MODEL 1
REMARK VINA RESULT:      -9.0      0.000      0.000
REMARK  Name = 
REMARK  5 active torsions:
REMARK  status: ('A' for Active; 'I' for Inactive)
REMARK    1  A    between atoms: C_1  and  C_2
REMARK    2  A    between atoms: C_2  and  C_3
REMARK    3  A    between atoms: N_5  and  C_6
REMARK    4  A    between atoms: C_16  and  C_18
REMARK    5  A    between atoms: C_18  and  C_19
REMARK                            x       y       z     vdW  Elec       q    Type
REMARK                         _______ _______ _______ _____ _____    ______ ____
ROOT
ATOM      1  C   UNL     1       7.794   4.435  17.467  0.00  0.00    +0.000 C 
ATOM      2  C   UNL     1       6.834   5.514  17.965  0.00  0.00    +0.000 C 
ATOM      3  C   UNL     1       7.606   6.827  18.300  0.00  0.00    +0.000 C 
ATOM      4  C   UNL     1       6.618   7.586  17.418  0.00  0.00    +0.000 C 
ATOM      5  N   UNL     1       6.250   6.295  16.863  0.00  0.00    +0.000 N 
ATOM      6  C   UNL     1       5.545   6.069  15.716  0.00  0.00    +0.000 C 
ATOM      7  O   UNL     1       5.218   7.019  14.994  0.00  0.00    +0.000 OA
ENDROOT
BRANCH   2   8
ATOM      8  C   UNL     1       5.798   4.906  19.005  0.00  0.00    +0.000 C 
ATOM      9  O   UNL     1       6.123   4.570  20.150  0.00  0.00    +0.000 OA
ATOM     10  N   UNL     1       4.493   4.780  18.541  0.00  0.00    +0.000 N 
ATOM     11  H   UNL     1       4.344   4.681  17.546  0.00  0.00    +0.000 HD
BRANCH  10  12
ATOM     12  C   UNL     1       3.405   4.378  19.345  0.00  0.00    +0.000 A 
ATOM     13  C   UNL     1       2.577   5.290  20.002  0.00  0.00    +0.000 A 
ATOM     14  C   UNL     1       1.496   4.829  20.762  0.00  0.00    +0.000 A 
ATOM     15  C   UNL     1       1.261   3.459  20.895  0.00  0.00    +0.000 A 
ATOM     16  C   UNL     1       2.086   2.545  20.241  0.00  0.00    +0.000 A 
ATOM     17  C   UNL     1       3.129   3.013  19.448  0.00  0.00    +0.000 A 
ATOM     18  F   UNL     1       3.919   2.129  18.817  0.00  0.00    +0.000 F 
ENDBRANCH  10  12
ENDBRANCH   2   8
BRANCH   6  19
ATOM     19  C   UNL     1       5.163   4.648  15.339  0.00  0.00    +0.000 C 
BRANCH  19  20
ATOM     20  C   UNL     1       5.651   4.222  13.970  0.00  0.00    +0.000 A 
ATOM     21  C   UNL     1       4.832   3.486  13.100  0.00  0.00    +0.000 A 
ATOM     22  C   UNL     1       5.312   3.084  11.853  0.00  0.00    +0.000 A 
ATOM     23  F   UNL     1       4.516   2.381  11.036  0.00  0.00    +0.000 F 
ATOM     24  C   UNL     1       6.603   3.388  11.444  0.00  0.00    +0.000 A 
ATOM     25  C   UNL     1       7.433   4.112  12.300  0.00  0.00    +0.000 A 
ATOM     26  C   UNL     1       6.954   4.515  13.554  0.00  0.00    +0.000 A 
ATOM     27  F   UNL     1       7.790   5.176  14.362  0.00  0.00    +0.000 F 
ENDBRANCH  19  20
ENDBRANCH   6  19
TORSDOF 4
ENDMDL
MODEL 2
REMARK VINA RESULT:      -8.9      1.895      6.473
REMARK  Name = 
REMARK  5 active torsions:
REMARK  status: ('A' for Active; 'I' for Inactive)
REMARK    1  A    between atoms: C_1  and  C_2
REMARK    2  A    between atoms: C_2  and  C_3
REMARK    3  A    between atoms: N_5  and  C_6
REMARK    4  A    between atoms: C_16  and  C_18
REMARK    5  A    between atoms: C_18  and  C_19
REMARK                            x       y       z     vdW  Elec       q    Type
REMARK                         _______ _______ _______ _____ _____    ______ ____
ROOT
ATOM      1  C   UNL     1       6.280   7.635  17.074  0.00  0.00    +0.000 C 
ATOM      2  C   UNL     1       6.984   6.365  17.547  0.00  0.00    +0.000 C 
ATOM      3  C   UNL     1       8.173   6.713  18.493  0.00  0.00    +0.000 C 
ATOM      4  C   UNL     1       7.600   5.728  19.509  0.00  0.00    +0.000 C 
ATOM      5  N   UNL     1       6.362   5.797  18.752  0.00  0.00    +0.000 N 
ATOM      6  C   UNL     1       5.130   5.375  19.161  0.00  0.00    +0.000 C 
ATOM      7  O   UNL     1       4.973   4.946  20.311  0.00  0.00    +0.000 OA
ENDROOT
BRANCH   2   8
ATOM      8  C   UNL     1       7.192   5.356  16.336  0.00  0.00    +0.000 C 
ATOM      9  O   UNL     1       7.890   4.339  16.429  0.00  0.00    +0.000 OA
ATOM     10  N   UNL     1       6.529   5.692  15.161  0.00  0.00    +0.000 N 
ATOM     11  H   UNL     1       6.315   6.666  14.991  0.00  0.00    +0.000 HD
BRANCH  10  12
ATOM     12  C   UNL     1       6.486   4.867  14.016  0.00  0.00    +0.000 A 
ATOM     13  C   UNL     1       5.448   3.966  13.775  0.00  0.00    +0.000 A 
ATOM     14  C   UNL     1       5.448   3.198  12.605  0.00  0.00    +0.000 A 
ATOM     15  C   UNL     1       6.502   3.302  11.694  0.00  0.00    +0.000 A 
ATOM     16  C   UNL     1       7.540   4.200  11.932  0.00  0.00    +0.000 A 
ATOM     17  C   UNL     1       7.508   4.996  13.072  0.00  0.00    +0.000 A 
ATOM     18  F   UNL     1       8.509   5.863  13.295  0.00  0.00    +0.000 F 
ENDBRANCH  10  12
ENDBRANCH   2   8
BRANCH   6  19
ATOM     19  C   UNL     1       3.959   5.433  18.195  0.00  0.00    +0.000 C 
BRANCH  19  20
ATOM     20  C   UNL     1       2.990   4.277  18.332  0.00  0.00    +0.000 A 
ATOM     21  C   UNL     1       1.883   4.350  19.192  0.00  0.00    +0.000 A 
ATOM     22  C   UNL     1       1.018   3.263  19.319  0.00  0.00    +0.000 A 
ATOM     23  F   UNL     1      -0.033   3.352  20.144  0.00  0.00    +0.000 F 
ATOM     24  C   UNL     1       1.230   2.085  18.616  0.00  0.00    +0.000 A 
ATOM     25  C   UNL     1       2.331   1.992  17.764  0.00  0.00    +0.000 A 
ATOM     26  C   UNL     1       3.202   3.082  17.636  0.00  0.00    +0.000 A 
ATOM     27  F   UNL     1       4.266   2.944  16.838  0.00  0.00    +0.000 F 
ENDBRANCH  19  20
ENDBRANCH   6  19
TORSDOF 4
ENDMDL
MODEL 3
REMARK VINA RESULT:      -8.9      0.902      1.307
REMARK  Name = 
REMARK  5 active torsions:
REMARK  status: ('A' for Active; 'I' for Inactive)
REMARK    1  A    between atoms: C_1  and  C_2
REMARK    2  A    between atoms: C_2  and  C_3
REMARK    3  A    between atoms: N_5  and  C_6
REMARK    4  A    between atoms: C_16  and  C_18
REMARK    5  A    between atoms: C_18  and  C_19
REMARK                            x       y       z     vdW  Elec       q    Type
REMARK                         _______ _______ _______ _____ _____    ______ ____
ROOT
ATOM      1  C   UNL     1       7.812   4.423  17.444  0.00  0.00    +0.000 C 
ATOM      2  C   UNL     1       6.859   5.501  17.957  0.00  0.00    +0.000 C 
ATOM      3  C   UNL     1       7.636   6.811  18.292  0.00  0.00    +0.000 C 
ATOM      4  C   UNL     1       6.641   7.576  17.424  0.00  0.00    +0.000 C 
ATOM      5  N   UNL     1       6.266   6.288  16.866  0.00  0.00    +0.000 N 
ATOM      6  C   UNL     1       5.550   6.070  15.724  0.00  0.00    +0.000 C 
ATOM      7  O   UNL     1       5.218   7.024  15.010  0.00  0.00    +0.000 OA
ENDROOT
BRANCH   2   8
ATOM      8  C   UNL     1       5.832   4.889  19.004  0.00  0.00    +0.000 C 
ATOM      9  O   UNL     1       6.145   4.631  20.173  0.00  0.00    +0.000 OA
ATOM     10  N   UNL     1       4.549   4.666  18.518  0.00  0.00    +0.000 N 
ATOM     11  H   UNL     1       4.431   4.507  17.526  0.00  0.00    +0.000 HD
BRANCH  10  12
ATOM     12  C   UNL     1       3.464   4.244  19.317  0.00  0.00    +0.000 A 
ATOM     13  C   UNL     1       3.159   2.898  19.521  0.00  0.00    +0.000 A 
ATOM     14  C   UNL     1       2.087   2.543  20.349  0.00  0.00    +0.000 A 
ATOM     15  C   UNL     1       1.299   3.531  20.944  0.00  0.00    +0.000 A 
ATOM     16  C   UNL     1       1.601   4.876  20.741  0.00  0.00    +0.000 A 
ATOM     17  C   UNL     1       2.698   5.221  19.958  0.00  0.00    +0.000 A 
ATOM     18  F   UNL     1       2.987   6.518  19.769  0.00  0.00    +0.000 F 
ENDBRANCH  10  12
ENDBRANCH   2   8
BRANCH   6  19
ATOM     19  C   UNL     1       5.161   4.652  15.343  0.00  0.00    +0.000 C 
BRANCH  19  20
ATOM     20  C   UNL     1       5.657   4.224  13.977  0.00  0.00    +0.000 A 
ATOM     21  C   UNL     1       4.846   3.476  13.108  0.00  0.00    +0.000 A 
ATOM     22  C   UNL     1       5.333   3.073  11.864  0.00  0.00    +0.000 A 
ATOM     23  F   UNL     1       4.546   2.360  11.049  0.00  0.00    +0.000 F 
ATOM     24  C   UNL     1       6.622   3.387  11.457  0.00  0.00    +0.000 A 
ATOM     25  C   UNL     1       7.444   4.122  12.312  0.00  0.00    +0.000 A 
ATOM     26  C   UNL     1       6.958   4.526  13.563  0.00  0.00    +0.000 A 
ATOM     27  F   UNL     1       7.786   5.198  14.370  0.00  0.00    +0.000 F 
ENDBRANCH  19  20
ENDBRANCH   6  19
TORSDOF 4
ENDMDL
MODEL 4
REMARK VINA RESULT:      -8.9      1.634      7.183
REMARK  Name = 
REMARK  5 active torsions:
REMARK  status: ('A' for Active; 'I' for Inactive)
REMARK    1  A    between atoms: C_1  and  C_2
REMARK    2  A    between atoms: C_2  and  C_3
REMARK    3  A    between atoms: N_5  and  C_6
REMARK    4  A    between atoms: C_16  and  C_18
REMARK    5  A    between atoms: C_18  and  C_19
REMARK                            x       y       z     vdW  Elec       q    Type
REMARK                         _______ _______ _______ _____ _____    ______ ____
ROOT
ATOM      1  C   UNL     1       5.151   6.922  16.489  0.00  0.00    +0.000 C 
ATOM      2  C   UNL     1       6.482   6.258  16.837  0.00  0.00    +0.000 C 
ATOM      3  C   UNL     1       7.488   7.304  17.406  0.00  0.00    +0.000 C 
ATOM      4  C   UNL     1       7.713   6.379  18.599  0.00  0.00    +0.000 C 
ATOM      5  N   UNL     1       6.491   5.703  18.199  0.00  0.00    +0.000 N 
ATOM      6  C   UNL     1       5.756   4.831  18.949  0.00  0.00    +0.000 C 
ATOM      7  O   UNL     1       6.073   4.607  20.124  0.00  0.00    +0.000 OA
ENDROOT
BRANCH   2   8
ATOM      8  C   UNL     1       6.929   5.261  15.682  0.00  0.00    +0.000 C 
ATOM      9  O   UNL     1       7.873   4.472  15.812  0.00  0.00    +0.000 OA
ATOM     10  N   UNL     1       6.182   5.332  14.512  0.00  0.00    +0.000 N 
ATOM     11  H   UNL     1       5.716   6.202  14.291  0.00  0.00    +0.000 HD
BRANCH  10  12
ATOM     12  C   UNL     1       6.340   4.452  13.420  0.00  0.00    +0.000 A 
ATOM     13  C   UNL     1       5.440   3.421  13.147  0.00  0.00    +0.000 A 
ATOM     14  C   UNL     1       5.636   2.600  12.031  0.00  0.00    +0.000 A 
ATOM     15  C   UNL     1       6.749   2.783  11.208  0.00  0.00    +0.000 A 
ATOM     16  C   UNL     1       7.651   3.811  11.478  0.00  0.00    +0.000 A 
ATOM     17  C   UNL     1       7.423   4.655  12.560  0.00  0.00    +0.000 A 
ATOM     18  F   UNL     1       8.293   5.645  12.814  0.00  0.00    +0.000 F 
ENDBRANCH  10  12
ENDBRANCH   2   8
BRANCH   6  19
ATOM     19  C   UNL     1       4.554   4.138  18.330  0.00  0.00    +0.000 C 
BRANCH  19  20
ATOM     20  C   UNL     1       3.384   3.973  19.277  0.00  0.00    +0.000 A 
ATOM     21  C   UNL     1       2.621   5.076  19.693  0.00  0.00    +0.000 A 
ATOM     22  C   UNL     1       1.562   4.903  20.585  0.00  0.00    +0.000 A 
ATOM     23  F   UNL     1       0.846   5.966  20.971  0.00  0.00    +0.000 F 
ATOM     24  C   UNL     1       1.241   3.650  21.090  0.00  0.00    +0.000 A 
ATOM     25  C   UNL     1       1.995   2.545  20.693  0.00  0.00    +0.000 A 
ATOM     26  C   UNL     1       3.060   2.717  19.800  0.00  0.00    +0.000 A 
ATOM     27  F   UNL     1       3.782   1.640  19.470  0.00  0.00    +0.000 F 
ENDBRANCH  19  20
ENDBRANCH   6  19
TORSDOF 4
ENDMDL
MODEL 5
REMARK VINA RESULT:      -8.8      1.842      6.388
REMARK  Name = 
REMARK  5 active torsions:
REMARK  status: ('A' for Active; 'I' for Inactive)
REMARK    1  A    between atoms: C_1  and  C_2
REMARK    2  A    between atoms: C_2  and  C_3
REMARK    3  A    between atoms: N_5  and  C_6
REMARK    4  A    between atoms: C_16  and  C_18
REMARK    5  A    between atoms: C_18  and  C_19
REMARK                            x       y       z     vdW  Elec       q    Type
REMARK                         _______ _______ _______ _____ _____    ______ ____
ROOT
ATOM      1  C   UNL     1       6.318   7.639  17.200  0.00  0.00    +0.000 C 
ATOM      2  C   UNL     1       7.048   6.370  17.635  0.00  0.00    +0.000 C 
ATOM      3  C   UNL     1       8.216   6.711  18.610  0.00  0.00    +0.000 C 
ATOM      4  C   UNL     1       7.656   5.676  19.581  0.00  0.00    +0.000 C 
ATOM      5  N   UNL     1       6.425   5.742  18.811  0.00  0.00    +0.000 N 
ATOM      6  C   UNL     1       5.199   5.275  19.188  0.00  0.00    +0.000 C 
ATOM      7  O   UNL     1       5.039   4.800  20.318  0.00  0.00    +0.000 OA
ENDROOT
BRANCH   2   8
ATOM      8  C   UNL     1       7.296   5.411  16.391  0.00  0.00    +0.000 C 
ATOM      9  O   UNL     1       7.982   4.385  16.467  0.00  0.00    +0.000 OA
ATOM     10  N   UNL     1       6.683   5.804  15.207  0.00  0.00    +0.000 N 
ATOM     11  H   UNL     1       6.484   6.786  15.070  0.00  0.00    +0.000 HD
BRANCH  10  12
ATOM     12  C   UNL     1       6.680   5.030  14.026  0.00  0.00    +0.000 A 
ATOM     13  C   UNL     1       7.664   5.153  13.043  0.00  0.00    +0.000 A 
ATOM     14  C   UNL     1       7.621   4.335  11.908  0.00  0.00    +0.000 A 
ATOM     15  C   UNL     1       6.580   3.421  11.736  0.00  0.00    +0.000 A 
ATOM     16  C   UNL     1       5.596   3.296  12.715  0.00  0.00    +0.000 A 
ATOM     17  C   UNL     1       5.671   4.077  13.864  0.00  0.00    +0.000 A 
ATOM     18  F   UNL     1       4.723   3.951  14.806  0.00  0.00    +0.000 F 
ENDBRANCH  10  12
ENDBRANCH   2   8
BRANCH   6  19
ATOM     19  C   UNL     1       4.039   5.340  18.209  0.00  0.00    +0.000 C 
BRANCH  19  20
ATOM     20  C   UNL     1       3.013   4.242  18.397  0.00  0.00    +0.000 A 
ATOM     21  C   UNL     1       1.870   4.440  19.187  0.00  0.00    +0.000 A 
ATOM     22  C   UNL     1       0.951   3.405  19.366  0.00  0.00    +0.000 A 
ATOM     23  F   UNL     1      -0.133   3.612  20.124  0.00  0.00    +0.000 F 
ATOM     24  C   UNL     1       1.142   2.161  18.781  0.00  0.00    +0.000 A 
ATOM     25  C   UNL     1       2.277   1.945  17.999  0.00  0.00    +0.000 A 
ATOM     26  C   UNL     1       3.203   2.982  17.821  0.00  0.00    +0.000 A 
ATOM     27  F   UNL     1       4.296   2.727  17.094  0.00  0.00    +0.000 F 
ENDBRANCH  19  20
ENDBRANCH   6  19
TORSDOF 4
ENDMDL
MODEL 6
REMARK VINA RESULT:      -8.7      1.881      6.826
REMARK  Name = 
REMARK  5 active torsions:
REMARK  status: ('A' for Active; 'I' for Inactive)
REMARK    1  A    between atoms: C_1  and  C_2
REMARK    2  A    between atoms: C_2  and  C_3
REMARK    3  A    between atoms: N_5  and  C_6
REMARK    4  A    between atoms: C_16  and  C_18
REMARK    5  A    between atoms: C_18  and  C_19
REMARK                            x       y       z     vdW  Elec       q    Type
REMARK                         _______ _______ _______ _____ _____    ______ ____
ROOT
ATOM      1  C   UNL     1       5.971   7.427  17.071  0.00  0.00    +0.000 C 
ATOM      2  C   UNL     1       6.857   6.250  17.475  0.00  0.00    +0.000 C 
ATOM      3  C   UNL     1       8.027   6.728  18.388  0.00  0.00    +0.000 C 
ATOM      4  C   UNL     1       7.633   5.649  19.392  0.00  0.00    +0.000 C 
ATOM      5  N   UNL     1       6.366   5.571  18.684  0.00  0.00    +0.000 N 
ATOM      6  C   UNL     1       5.219   4.977  19.126  0.00  0.00    +0.000 C 
ATOM      7  O   UNL     1       5.168   4.500  20.266  0.00  0.00    +0.000 OA
ENDROOT
BRANCH   2   8
ATOM      8  C   UNL     1       7.146   5.311  16.226  0.00  0.00    +0.000 C 
ATOM      9  O   UNL     1       7.967   4.386  16.264  0.00  0.00    +0.000 OA
ATOM     10  N   UNL     1       6.409   5.597  15.083  0.00  0.00    +0.000 N 
ATOM     11  H   UNL     1       6.072   6.542  14.952  0.00  0.00    +0.000 HD
BRANCH  10  12
ATOM     12  C   UNL     1       6.430   4.809  13.912  0.00  0.00    +0.000 A 
ATOM     13  C   UNL     1       5.422   3.894  13.603  0.00  0.00    +0.000 A 
ATOM     14  C   UNL     1       5.486   3.162  12.411  0.00  0.00    +0.000 A 
ATOM     15  C   UNL     1       6.571   3.318  11.546  0.00  0.00    +0.000 A 
ATOM     16  C   UNL     1       7.579   4.230  11.852  0.00  0.00    +0.000 A 
ATOM     17  C   UNL     1       7.484   4.989  13.014  0.00  0.00    +0.000 A 
ATOM     18  F   UNL     1       8.456   5.870  13.303  0.00  0.00    +0.000 F 
ENDBRANCH  10  12
ENDBRANCH   2   8
BRANCH   6  19
ATOM     19  C   UNL     1       4.011   4.904  18.206  0.00  0.00    +0.000 C 
BRANCH  19  20
ATOM     20  C   UNL     1       2.781   4.302  18.853  0.00  0.00    +0.000 A 
ATOM     21  C   UNL     1       2.264   3.068  18.430  0.00  0.00    +0.000 A 
ATOM     22  C   UNL     1       1.114   2.546  19.024  0.00  0.00    +0.000 A 
ATOM     23  F   UNL     1       0.636   1.367  18.607  0.00  0.00    +0.000 F 
ATOM     24  C   UNL     1       0.450   3.228  20.034  0.00  0.00    +0.000 A 
ATOM     25  C   UNL     1       0.946   4.461  20.460  0.00  0.00    +0.000 A 
ATOM     26  C   UNL     1       2.098   4.988  19.863  0.00  0.00    +0.000 A 
ATOM     27  F   UNL     1       2.523   6.188  20.273  0.00  0.00    +0.000 F 
ENDBRANCH  19  20
ENDBRANCH   6  19
TORSDOF 4
ENDMDL
MODEL 7
REMARK VINA RESULT:      -8.7      1.810      7.162
REMARK  Name = 
REMARK  5 active torsions:
REMARK  status: ('A' for Active; 'I' for Inactive)
REMARK    1  A    between atoms: C_1  and  C_2
REMARK    2  A    between atoms: C_2  and  C_3
REMARK    3  A    between atoms: N_5  and  C_6
REMARK    4  A    between atoms: C_16  and  C_18
REMARK    5  A    between atoms: C_18  and  C_19
REMARK                            x       y       z     vdW  Elec       q    Type
REMARK                         _______ _______ _______ _____ _____    ______ ____
ROOT
ATOM      1  C   UNL     1       5.018   6.837  16.504  0.00  0.00    +0.000 C 
ATOM      2  C   UNL     1       6.382   6.241  16.844  0.00  0.00    +0.000 C 
ATOM      3  C   UNL     1       7.339   7.337  17.405  0.00  0.00    +0.000 C 
ATOM      4  C   UNL     1       7.617   6.428  18.599  0.00  0.00    +0.000 C 
ATOM      5  N   UNL     1       6.427   5.691  18.208  0.00  0.00    +0.000 N 
ATOM      6  C   UNL     1       5.741   4.785  18.965  0.00  0.00    +0.000 C 
ATOM      7  O   UNL     1       6.076   4.580  20.138  0.00  0.00    +0.000 OA
ENDROOT
BRANCH   2   8
ATOM      8  C   UNL     1       6.871   5.264  15.689  0.00  0.00    +0.000 C 
ATOM      9  O   UNL     1       7.838   4.505  15.824  0.00  0.00    +0.000 OA
ATOM     10  N   UNL     1       6.133   5.318  14.513  0.00  0.00    +0.000 N 
ATOM     11  H   UNL     1       5.642   6.174  14.292  0.00  0.00    +0.000 HD
BRANCH  10  12
ATOM     12  C   UNL     1       6.329   4.449  13.418  0.00  0.00    +0.000 A 
ATOM     13  C   UNL     1       5.451   3.406  13.118  0.00  0.00    +0.000 A 
ATOM     14  C   UNL     1       5.685   2.596  12.001  0.00  0.00    +0.000 A 
ATOM     15  C   UNL     1       6.812   2.804  11.203  0.00  0.00    +0.000 A 
ATOM     16  C   UNL     1       7.691   3.845  11.500  0.00  0.00    +0.000 A 
ATOM     17  C   UNL     1       7.426   4.676  12.583  0.00  0.00    +0.000 A 
ATOM     18  F   UNL     1       8.274   5.679  12.863  0.00  0.00    +0.000 F 
ENDBRANCH  10  12
ENDBRANCH   2   8
BRANCH   6  19
ATOM     19  C   UNL     1       4.571   4.032  18.355  0.00  0.00    +0.000 C 
BRANCH  19  20
ATOM     20  C   UNL     1       3.380   3.891  19.280  0.00  0.00    +0.000 A 
ATOM     21  C   UNL     1       3.376   2.953  20.325  0.00  0.00    +0.000 A 
ATOM     22  C   UNL     1       2.257   2.824  21.149  0.00  0.00    +0.000 A 
ATOM     23  F   UNL     1       2.271   1.925  22.141  0.00  0.00    +0.000 F 
ATOM     24  C   UNL     1       1.125   3.604  20.957  0.00  0.00    +0.000 A 
ATOM     25  C   UNL     1       1.110   4.534  19.917  0.00  0.00    +0.000 A 
ATOM     26  C   UNL     1       2.231   4.664  19.087  0.00  0.00    +0.000 A 
ATOM     27  F   UNL     1       2.166   5.541  18.079  0.00  0.00    +0.000 F 
ENDBRANCH  19  20
ENDBRANCH   6  19
TORSDOF 4
ENDMDL
MODEL 8
REMARK VINA RESULT:      -8.6      1.843      6.647
REMARK  Name = 
REMARK  5 active torsions:
REMARK  status: ('A' for Active; 'I' for Inactive)
REMARK    1  A    between atoms: C_1  and  C_2
REMARK    2  A    between atoms: C_2  and  C_3
REMARK    3  A    between atoms: N_5  and  C_6
REMARK    4  A    between atoms: C_16  and  C_18
REMARK    5  A    between atoms: C_18  and  C_19
REMARK                            x       y       z     vdW  Elec       q    Type
REMARK                         _______ _______ _______ _____ _____    ______ ____
ROOT
ATOM      1  C   UNL     1       6.138   7.540  17.238  0.00  0.00    +0.000 C 
ATOM      2  C   UNL     1       6.966   6.321  17.642  0.00  0.00    +0.000 C 
ATOM      3  C   UNL     1       8.132   6.736  18.590  0.00  0.00    +0.000 C 
ATOM      4  C   UNL     1       7.671   5.657  19.565  0.00  0.00    +0.000 C 
ATOM      5  N   UNL     1       6.419   5.643  18.827  0.00  0.00    +0.000 N 
ATOM      6  C   UNL     1       5.239   5.089  19.231  0.00  0.00    +0.000 C 
ATOM      7  O   UNL     1       5.142   4.595  20.361  0.00  0.00    +0.000 OA
ENDROOT
BRANCH   2   8
ATOM      8  C   UNL     1       7.247   5.392  16.384  0.00  0.00    +0.000 C 
ATOM      9  O   UNL     1       7.979   4.397  16.440  0.00  0.00    +0.000 OA
ATOM     10  N   UNL     1       6.608   5.773  15.209  0.00  0.00    +0.000 N 
ATOM     11  H   UNL     1       6.364   6.747  15.088  0.00  0.00    +0.000 HD
BRANCH  10  12
ATOM     12  C   UNL     1       6.631   5.016  14.018  0.00  0.00    +0.000 A 
ATOM     13  C   UNL     1       7.599   5.197  13.029  0.00  0.00    +0.000 A 
ATOM     14  C   UNL     1       7.585   4.394  11.883  0.00  0.00    +0.000 A 
ATOM     15  C   UNL     1       6.585   3.436  11.706  0.00  0.00    +0.000 A 
ATOM     16  C   UNL     1       5.616   3.253  12.691  0.00  0.00    +0.000 A 
ATOM     17  C   UNL     1       5.665   4.020  13.850  0.00  0.00    +0.000 A 
ATOM     18  F   UNL     1       4.732   3.838  14.797  0.00  0.00    +0.000 F 
ENDBRANCH  10  12
ENDBRANCH   2   8
BRANCH   6  19
ATOM     19  C   UNL     1       4.052   5.080  18.283  0.00  0.00    +0.000 C 
BRANCH  19  20
ATOM     20  C   UNL     1       2.810   4.431  18.858  0.00  0.00    +0.000 A 
ATOM     21  C   UNL     1       2.348   3.193  18.385  0.00  0.00    +0.000 A 
ATOM     22  C   UNL     1       1.187   2.627  18.913  0.00  0.00    +0.000 A 
ATOM     23  F   UNL     1       0.762   1.445  18.450  0.00  0.00    +0.000 F 
ATOM     24  C   UNL     1       0.457   3.268  19.905  0.00  0.00    +0.000 A 
ATOM     25  C   UNL     1       0.898   4.504  20.380  0.00  0.00    +0.000 A 
ATOM     26  C   UNL     1       2.062   5.076  19.849  0.00  0.00    +0.000 A 
ATOM     27  F   UNL     1       2.434   6.277  20.304  0.00  0.00    +0.000 F 
ENDBRANCH  19  20
ENDBRANCH   6  19
TORSDOF 4
ENDMDL
MODEL 9
REMARK VINA RESULT:      -8.6      3.207      5.833
REMARK  Name = 
REMARK  5 active torsions:
REMARK  status: ('A' for Active; 'I' for Inactive)
REMARK    1  A    between atoms: C_1  and  C_2
REMARK    2  A    between atoms: C_2  and  C_3
REMARK    3  A    between atoms: N_5  and  C_6
REMARK    4  A    between atoms: C_16  and  C_18
REMARK    5  A    between atoms: C_18  and  C_19
REMARK                            x       y       z     vdW  Elec       q    Type
REMARK                         _______ _______ _______ _____ _____    ______ ____
ROOT
ATOM      1  C   UNL     1       1.393   2.141  18.588  0.00  0.00    +0.000 C 
ATOM      2  C   UNL     1       1.773   3.231  19.587  0.00  0.00    +0.000 C 
ATOM      3  C   UNL     1       1.099   2.973  20.969  0.00  0.00    +0.000 C 
ATOM      4  C   UNL     1       2.472   3.114  21.621  0.00  0.00    +0.000 C 
ATOM      5  N   UNL     1       3.029   2.931  20.292  0.00  0.00    +0.000 N 
ATOM      6  C   UNL     1       4.325   2.636  19.983  0.00  0.00    +0.000 C 
ATOM      7  O   UNL     1       5.143   2.420  20.886  0.00  0.00    +0.000 OA
ENDROOT
BRANCH   2   8
ATOM      8  C   UNL     1       1.688   4.667  18.910  0.00  0.00    +0.000 C 
ATOM      9  O   UNL     1       1.237   4.841  17.772  0.00  0.00    +0.000 OA
ATOM     10  N   UNL     1       2.153   5.720  19.689  0.00  0.00    +0.000 N 
ATOM     11  H   UNL     1       2.847   5.525  20.399  0.00  0.00    +0.000 HD
BRANCH  10  12
ATOM     12  C   UNL     1       2.052   7.079  19.320  0.00  0.00    +0.000 A 
ATOM     13  C   UNL     1       2.534   7.567  18.104  0.00  0.00    +0.000 A 
ATOM     14  C   UNL     1       2.377   8.920  17.783  0.00  0.00    +0.000 A 
ATOM     15  C   UNL     1       1.772   9.794  18.690  0.00  0.00    +0.000 A 
ATOM     16  C   UNL     1       1.291   9.310  19.905  0.00  0.00    +0.000 A 
ATOM     17  C   UNL     1       1.406   7.955  20.196  0.00  0.00    +0.000 A 
ATOM     18  F   UNL     1       0.938   7.494  21.366  0.00  0.00    +0.000 F 
ENDBRANCH  10  12
ENDBRANCH   2   8
BRANCH   6  19
ATOM     19  C   UNL     1       4.755   2.579  18.527  0.00  0.00    +0.000 C 
BRANCH  19  20
ATOM     20  C   UNL     1       5.209   3.910  17.966  0.00  0.00    +0.000 A 
ATOM     21  C   UNL     1       6.190   4.678  18.613  0.00  0.00    +0.000 A 
ATOM     22  C   UNL     1       6.575   5.913  18.091  0.00  0.00    +0.000 A 
ATOM     23  F   UNL     1       7.512   6.631  18.722  0.00  0.00    +0.000 F 
ATOM     24  C   UNL     1       5.998   6.419  16.934  0.00  0.00    +0.000 A 
ATOM     25  C   UNL     1       5.015   5.673  16.284  0.00  0.00    +0.000 A 
ATOM     26  C   UNL     1       4.625   4.433  16.807  0.00  0.00    +0.000 A 
ATOM     27  F   UNL     1       3.655   3.763  16.176  0.00  0.00    +0.000 F 
ENDBRANCH  19  20
ENDBRANCH   6  19
TORSDOF 4
ENDMDL
