MODEL 1
REMARK VINA RESULT:      -8.7      0.000      0.000
REMARK  Name = 
REMARK  6 active torsions:
REMARK  status: ('A' for Active; 'I' for Inactive)
REMARK    1  A    between atoms: C_1  and  N_2
REMARK    2  A    between atoms: C_7  and  C_8
REMARK    3  A    between atoms: C_11  and  S_12
REMARK    4  A    between atoms: S_12  and  C_13
REMARK    5  A    between atoms: C_16  and  N_17
REMARK    6  A    between atoms: N_26  and  C_27
REMARK                            x       y       z     vdW  Elec       q    Type
REMARK                         _______ _______ _______ _____ _____    ______ ____
ROOT
ATOM      1  C   UNL     1       5.793   3.805  15.547  0.00  0.00    +0.000 C 
ATOM      2  N   UNL     1       5.035   4.824  16.245  0.00  0.00    +0.000 N 
ATOM      3  C   UNL     1       5.272   6.152  16.008  0.00  0.00    +0.000 A 
ATOM      4  N   UNL     1       4.674   7.123  16.604  0.00  0.00    +0.000 NA
ATOM      5  C   UNL     1       3.706   6.797  17.569  0.00  0.00    +0.000 A 
ATOM      6  C   UNL     1       3.078   7.837  18.236  0.00  0.00    +0.000 A 
ATOM      7  C   UNL     1       2.131   7.556  19.214  0.00  0.00    +0.000 A 
ATOM      8  N   UNL     1       1.802   6.273  19.536  0.00  0.00    +0.000 NA
ATOM      9  C   UNL     1       2.404   5.240  18.876  0.00  0.00    +0.000 A 
ATOM     10  N   UNL     1       1.978   3.911  19.129  0.00  0.00    +0.000 N 
ATOM     11  C   UNL     1       3.366   5.489  17.889  0.00  0.00    +0.000 A 
ATOM     12  C   UNL     1       4.112   4.417  17.196  0.00  0.00    +0.000 A 
ATOM     13  O   UNL     1       3.932   3.235  17.498  0.00  0.00    +0.000 OA
ATOM     14  H   UNL     1       2.672   3.246  18.773  0.00  0.00    +0.000 HD
ENDROOT
BRANCH   7  15
ATOM     15  C   UNL     1       1.476   8.641  19.985  0.00  0.00    +0.000 A 
ATOM     16  C   UNL     1       0.841   8.400  21.203  0.00  0.00    +0.000 A 
ATOM     17  C   UNL     1       0.130   9.411  21.847  0.00  0.00    +0.000 A 
ATOM     18  C   UNL     1       0.037  10.711  21.300  0.00  0.00    +0.000 A 
ATOM     19  C   UNL     1       0.740  11.044  20.119  0.00  0.00    +0.000 A 
ATOM     20  C   UNL     1       1.428   9.962  19.495  0.00  0.00    +0.000 A 
BRANCH  19  21
ATOM     21  N   UNL     1       0.872  12.314  19.571  0.00  0.00    +0.000 N 
ATOM     22  C   UNL     1       2.184  13.011  19.592  0.00  0.00    +0.000 C 
ATOM     23  C   UNL     1       1.951  14.529  19.694  0.00  0.00    +0.000 C 
ATOM     24  O   UNL     1       1.127  15.017  18.622  0.00  0.00    +0.000 OA
ATOM     25  C   UNL     1      -0.146  14.348  18.648  0.00  0.00    +0.000 C 
ATOM     26  C   UNL     1       0.036  12.831  18.472  0.00  0.00    +0.000 C 
ENDBRANCH  19  21
BRANCH  18  27
ATOM     27  S   UNL     1      -0.976  11.830  22.268  0.00  0.00    +0.000 S 
ATOM     28  C   UNL     1      -2.298  12.258  21.149  0.00  0.00    +0.000 C 
ATOM     29  O   UNL     1      -1.587  11.068  23.348  0.00  0.00    +0.000 OA
ATOM     30  O   UNL     1      -0.229  13.029  22.597  0.00  0.00    +0.000 OA
ENDBRANCH  18  27
ENDBRANCH   7  15
BRANCH  10  31
ATOM     31  C   UNL     1       1.367   3.562  20.408  0.00  0.00    +0.000 C 
ATOM     32  C   UNL     1       1.796   2.306  21.124  0.00  0.00    +0.000 C 
ATOM     33  C   UNL     1       2.147   3.649  21.690  0.00  0.00    +0.000 C 
ENDBRANCH  10  31
TORSDOF 4
ENDMDL
MODEL 2
REMARK VINA RESULT:      -8.2      2.110      2.995
REMARK  Name = 
REMARK  6 active torsions:
REMARK  status: ('A' for Active; 'I' for Inactive)
REMARK    1  A    between atoms: C_1  and  N_2
REMARK    2  A    between atoms: C_7  and  C_8
REMARK    3  A    between atoms: C_11  and  S_12
REMARK    4  A    between atoms: S_12  and  C_13
REMARK    5  A    between atoms: C_16  and  N_17
REMARK    6  A    between atoms: N_26  and  C_27
REMARK                            x       y       z     vdW  Elec       q    Type
REMARK                         _______ _______ _______ _____ _____    ______ ____
ROOT
ATOM      1  C   UNL     1       8.038   4.374  17.748  0.00  0.00    +0.000 C 
ATOM      2  N   UNL     1       6.860   5.219  17.725  0.00  0.00    +0.000 N 
ATOM      3  C   UNL     1       6.843   6.367  16.978  0.00  0.00    +0.000 A 
ATOM      4  N   UNL     1       5.859   7.193  16.923  0.00  0.00    +0.000 NA
ATOM      5  C   UNL     1       4.716   6.896  17.684  0.00  0.00    +0.000 A 
ATOM      6  C   UNL     1       3.662   7.795  17.654  0.00  0.00    +0.000 A 
ATOM      7  C   UNL     1       2.523   7.548  18.412  0.00  0.00    +0.000 A 
ATOM      8  N   UNL     1       2.416   6.434  19.190  0.00  0.00    +0.000 NA
ATOM      9  C   UNL     1       3.442   5.534  19.218  0.00  0.00    +0.000 A 
ATOM     10  N   UNL     1       3.283   4.321  19.936  0.00  0.00    +0.000 N 
ATOM     11  C   UNL     1       4.606   5.755  18.470  0.00  0.00    +0.000 A 
ATOM     12  C   UNL     1       5.783   4.863  18.520  0.00  0.00    +0.000 A 
ATOM     13  O   UNL     1       5.793   3.883  19.270  0.00  0.00    +0.000 OA
ATOM     14  H   UNL     1       4.196   3.878  20.083  0.00  0.00    +0.000 HD
ENDROOT
BRANCH   7  15
ATOM     15  C   UNL     1       1.397   8.512  18.444  0.00  0.00    +0.000 A 
ATOM     16  C   UNL     1       0.564   8.711  17.343  0.00  0.00    +0.000 A 
ATOM     17  C   UNL     1      -0.410   9.708  17.358  0.00  0.00    +0.000 A 
ATOM     18  C   UNL     1      -0.595  10.541  18.484  0.00  0.00    +0.000 A 
ATOM     19  C   UNL     1       0.151  10.325  19.666  0.00  0.00    +0.000 A 
ATOM     20  C   UNL     1       1.146   9.308  19.581  0.00  0.00    +0.000 A 
BRANCH  19  21
ATOM     21  N   UNL     1      -0.048  10.953  20.890  0.00  0.00    +0.000 N 
ATOM     22  C   UNL     1      -0.291  10.153  22.118  0.00  0.00    +0.000 C 
ATOM     23  C   UNL     1      -1.208  10.944  23.067  0.00  0.00    +0.000 C 
ATOM     24  O   UNL     1      -0.656  12.231  23.394  0.00  0.00    +0.000 OA
ATOM     25  C   UNL     1      -0.464  12.994  22.190  0.00  0.00    +0.000 C 
ATOM     26  C   UNL     1       0.509  12.272  21.242  0.00  0.00    +0.000 C 
ENDBRANCH  19  21
BRANCH  18  27
ATOM     27  S   UNL     1      -1.861  11.791  18.257  0.00  0.00    +0.000 S 
ATOM     28  C   UNL     1      -2.554  11.387  16.662  0.00  0.00    +0.000 C 
ATOM     29  O   UNL     1      -2.915  11.548  19.232  0.00  0.00    +0.000 OA
ATOM     30  O   UNL     1      -1.262  13.110  18.192  0.00  0.00    +0.000 OA
ENDBRANCH  18  27
ENDBRANCH   7  15
BRANCH  10  31
ATOM     31  C   UNL     1       2.355   4.244  21.061  0.00  0.00    +0.000 C 
ATOM     32  C   UNL     1       1.007   3.594  20.875  0.00  0.00    +0.000 C 
ATOM     33  C   UNL     1       2.050   2.931  21.726  0.00  0.00    +0.000 C 
ENDBRANCH  10  31
TORSDOF 4
ENDMDL
MODEL 3
REMARK VINA RESULT:      -8.1      3.076      9.091
REMARK  Name = 
REMARK  6 active torsions:
REMARK  status: ('A' for Active; 'I' for Inactive)
REMARK    1  A    between atoms: C_1  and  N_2
REMARK    2  A    between atoms: C_7  and  C_8
REMARK    3  A    between atoms: C_11  and  S_12
REMARK    4  A    between atoms: S_12  and  C_13
REMARK    5  A    between atoms: C_16  and  N_17
REMARK    6  A    between atoms: N_26  and  C_27
REMARK                            x       y       z     vdW  Elec       q    Type
REMARK                         _______ _______ _______ _____ _____    ______ ____
ROOT
ATOM      1  C   UNL     1      -2.600  13.794  22.076  0.00  0.00    +0.000 C 
ATOM      2  N   UNL     1      -1.703  12.761  21.601  0.00  0.00    +0.000 N 
ATOM      3  C   UNL     1      -0.631  12.369  22.359  0.00  0.00    +0.000 A 
ATOM      4  N   UNL     1       0.236  11.486  22.005  0.00  0.00    +0.000 NA
ATOM      5  C   UNL     1       0.071  10.879  20.749  0.00  0.00    +0.000 A 
ATOM      6  C   UNL     1       1.017   9.949  20.347  0.00  0.00    +0.000 A 
ATOM      7  C   UNL     1       0.901   9.343  19.101  0.00  0.00    +0.000 A 
ATOM      8  N   UNL     1      -0.126   9.644  18.258  0.00  0.00    +0.000 NA
ATOM      9  C   UNL     1      -1.071  10.549  18.648  0.00  0.00    +0.000 A 
ATOM     10  N   UNL     1      -2.201  10.774  17.820  0.00  0.00    +0.000 N 
ATOM     11  C   UNL     1      -0.982  11.181  19.895  0.00  0.00    +0.000 A 
ATOM     12  C   UNL     1      -1.925  12.228  20.342  0.00  0.00    +0.000 A 
ATOM     13  O   UNL     1      -2.828  12.615  19.596  0.00  0.00    +0.000 OA
ATOM     14  H   UNL     1      -2.674  11.640  18.099  0.00  0.00    +0.000 HD
ENDROOT
BRANCH   7  15
ATOM     15  C   UNL     1       1.921   8.382  18.617  0.00  0.00    +0.000 A 
ATOM     16  C   UNL     1       3.009   8.788  17.844  0.00  0.00    +0.000 A 
ATOM     17  C   UNL     1       3.886   7.850  17.301  0.00  0.00    +0.000 A 
ATOM     18  C   UNL     1       3.713   6.465  17.520  0.00  0.00    +0.000 A 
ATOM     19  C   UNL     1       2.688   5.997  18.375  0.00  0.00    +0.000 A 
ATOM     20  C   UNL     1       1.811   7.001  18.880  0.00  0.00    +0.000 A 
BRANCH  19  21
ATOM     21  N   UNL     1       2.513   4.688  18.809  0.00  0.00    +0.000 N 
ATOM     22  C   UNL     1       2.906   4.291  20.185  0.00  0.00    +0.000 C 
ATOM     23  C   UNL     1       3.362   2.821  20.179  0.00  0.00    +0.000 C 
ATOM     24  O   UNL     1       2.343   1.948  19.664  0.00  0.00    +0.000 OA
ATOM     25  C   UNL     1       2.008   2.337  18.320  0.00  0.00    +0.000 C 
ATOM     26  C   UNL     1       1.474   3.779  18.291  0.00  0.00    +0.000 C 
ENDBRANCH  19  21
BRANCH  18  27
ATOM     27  S   UNL     1       4.923   5.445  16.677  0.00  0.00    +0.000 S 
ATOM     28  C   UNL     1       6.026   4.949  17.988  0.00  0.00    +0.000 C 
ATOM     29  O   UNL     1       4.255   4.232  16.226  0.00  0.00    +0.000 OA
ATOM     30  O   UNL     1       5.661   6.233  15.709  0.00  0.00    +0.000 OA
ENDBRANCH  18  27
ENDBRANCH   7  15
BRANCH  10  31
ATOM     31  C   UNL     1      -2.123  10.535  16.381  0.00  0.00    +0.000 C 
ATOM     32  C   UNL     1      -3.082   9.570  15.731  0.00  0.00    +0.000 C 
ATOM     33  C   UNL     1      -3.190  11.040  15.451  0.00  0.00    +0.000 C 
ENDBRANCH  10  31
TORSDOF 4
ENDMDL
MODEL 4
REMARK VINA RESULT:      -7.8      2.999      9.030
REMARK  Name = 
REMARK  6 active torsions:
REMARK  status: ('A' for Active; 'I' for Inactive)
REMARK    1  A    between atoms: C_1  and  N_2
REMARK    2  A    between atoms: C_7  and  C_8
REMARK    3  A    between atoms: C_11  and  S_12
REMARK    4  A    between atoms: S_12  and  C_13
REMARK    5  A    between atoms: C_16  and  N_17
REMARK    6  A    between atoms: N_26  and  C_27
REMARK                            x       y       z     vdW  Elec       q    Type
REMARK                         _______ _______ _______ _____ _____    ______ ____
ROOT
ATOM      1  C   UNL     1      -1.788  14.610  21.137  0.00  0.00    +0.000 C 
ATOM      2  N   UNL     1      -0.998  13.436  20.829  0.00  0.00    +0.000 N 
ATOM      3  C   UNL     1       0.165  13.183  21.507  0.00  0.00    +0.000 A 
ATOM      4  N   UNL     1       0.947  12.187  21.279  0.00  0.00    +0.000 NA
ATOM      5  C   UNL     1       0.581  11.292  20.260  0.00  0.00    +0.000 A 
ATOM      6  C   UNL     1       1.433  10.232  19.989  0.00  0.00    +0.000 A 
ATOM      7  C   UNL     1       1.117   9.338  18.972  0.00  0.00    +0.000 A 
ATOM      8  N   UNL     1      -0.018   9.478  18.230  0.00  0.00    +0.000 NA
ATOM      9  C   UNL     1      -0.871  10.509  18.497  0.00  0.00    +0.000 A 
ATOM     10  N   UNL     1      -2.107  10.587  17.804  0.00  0.00    +0.000 N 
ATOM     11  C   UNL     1      -0.580  11.432  19.511  0.00  0.00    +0.000 A 
ATOM     12  C   UNL     1      -1.420  12.615  19.796  0.00  0.00    +0.000 A 
ATOM     13  O   UNL     1      -2.415  12.855  19.107  0.00  0.00    +0.000 OA
ATOM     14  H   UNL     1      -2.511  11.523  17.911  0.00  0.00    +0.000 HD
ENDROOT
BRANCH   7  15
ATOM     15  C   UNL     1       2.028   8.223  18.619  0.00  0.00    +0.000 A 
ATOM     16  C   UNL     1       3.128   8.406  17.781  0.00  0.00    +0.000 A 
ATOM     17  C   UNL     1       3.898   7.320  17.368  0.00  0.00    +0.000 A 
ATOM     18  C   UNL     1       3.602   6.004  17.789  0.00  0.00    +0.000 A 
ATOM     19  C   UNL     1       2.561   5.765  18.716  0.00  0.00    +0.000 A 
ATOM     20  C   UNL     1       1.796   6.911  19.082  0.00  0.00    +0.000 A 
BRANCH  19  21
ATOM     21  N   UNL     1       2.275   4.555  19.338  0.00  0.00    +0.000 N 
ATOM     22  C   UNL     1       2.542   4.371  20.787  0.00  0.00    +0.000 C 
ATOM     23  C   UNL     1       2.907   2.900  21.055  0.00  0.00    +0.000 C 
ATOM     24  O   UNL     1       1.878   2.004  20.603  0.00  0.00    +0.000 OA
ATOM     25  C   UNL     1       1.666   2.182  19.192  0.00  0.00    +0.000 C 
ATOM     26  C   UNL     1       1.225   3.624  18.889  0.00  0.00    +0.000 C 
ENDBRANCH  19  21
BRANCH  18  27
ATOM     27  S   UNL     1       4.687   4.761  17.087  0.00  0.00    +0.000 S 
ATOM     28  C   UNL     1       5.459   5.614  15.723  0.00  0.00    +0.000 C 
ATOM     29  O   UNL     1       5.745   4.490  18.050  0.00  0.00    +0.000 OA
ATOM     30  O   UNL     1       3.913   3.648  16.572  0.00  0.00    +0.000 OA
ENDBRANCH  18  27
ENDBRANCH   7  15
BRANCH  10  31
ATOM     31  C   UNL     1      -2.251   9.985  16.481  0.00  0.00    +0.000 C 
ATOM     32  C   UNL     1      -3.627   9.684  15.943  0.00  0.00    +0.000 C 
ATOM     33  C   UNL     1      -2.801  10.773  15.325  0.00  0.00    +0.000 C 
ENDBRANCH  10  31
TORSDOF 4
ENDMDL
MODEL 5
REMARK VINA RESULT:      -7.7      3.036      8.739
REMARK  Name = 
REMARK  6 active torsions:
REMARK  status: ('A' for Active; 'I' for Inactive)
REMARK    1  A    between atoms: C_1  and  N_2
REMARK    2  A    between atoms: C_7  and  C_8
REMARK    3  A    between atoms: C_11  and  S_12
REMARK    4  A    between atoms: S_12  and  C_13
REMARK    5  A    between atoms: C_16  and  N_17
REMARK    6  A    between atoms: N_26  and  C_27
REMARK                            x       y       z     vdW  Elec       q    Type
REMARK                         _______ _______ _______ _____ _____    ______ ____
ROOT
ATOM      1  C   UNL     1       0.021  15.745  18.810  0.00  0.00    +0.000 C 
ATOM      2  N   UNL     1       0.624  14.428  18.768  0.00  0.00    +0.000 N 
ATOM      3  C   UNL     1       1.986  14.286  18.813  0.00  0.00    +0.000 A 
ATOM      4  N   UNL     1       2.609  13.162  18.747  0.00  0.00    +0.000 NA
ATOM      5  C   UNL     1       1.837  11.996  18.620  0.00  0.00    +0.000 A 
ATOM      6  C   UNL     1       2.502  10.784  18.519  0.00  0.00    +0.000 A 
ATOM      7  C   UNL     1       1.774   9.609  18.369  0.00  0.00    +0.000 A 
ATOM      8  N   UNL     1       0.412   9.619  18.318  0.00  0.00    +0.000 NA
ATOM      9  C   UNL     1      -0.255  10.805  18.430  0.00  0.00    +0.000 A 
ATOM     10  N   UNL     1      -1.672  10.802  18.494  0.00  0.00    +0.000 N 
ATOM     11  C   UNL     1       0.449  12.008  18.577  0.00  0.00    +0.000 A 
ATOM     12  C   UNL     1      -0.209  13.331  18.622  0.00  0.00    +0.000 A 
ATOM     13  O   UNL     1      -1.432  13.425  18.493  0.00  0.00    +0.000 OA
ATOM     14  H   UNL     1      -2.033  11.745  18.317  0.00  0.00    +0.000 HD
ENDROOT
BRANCH   7  15
ATOM     15  C   UNL     1       2.452   8.300  18.206  0.00  0.00    +0.000 A 
ATOM     16  C   UNL     1       3.537   8.133  17.345  0.00  0.00    +0.000 A 
ATOM     17  C   UNL     1       4.079   6.869  17.119  0.00  0.00    +0.000 A 
ATOM     18  C   UNL     1       3.561   5.720  17.757  0.00  0.00    +0.000 A 
ATOM     19  C   UNL     1       2.527   5.836  18.715  0.00  0.00    +0.000 A 
ATOM     20  C   UNL     1       1.999   7.150  18.884  0.00  0.00    +0.000 A 
BRANCH  19  21
ATOM     21  N   UNL     1       2.046   4.821  19.533  0.00  0.00    +0.000 N 
ATOM     22  C   UNL     1       2.030   4.986  21.009  0.00  0.00    +0.000 C 
ATOM     23  C   UNL     1       2.233   3.614  21.676  0.00  0.00    +0.000 C 
ATOM     24  O   UNL     1       1.240   2.663  21.255  0.00  0.00    +0.000 OA
ATOM     25  C   UNL     1       1.302   2.501  19.827  0.00  0.00    +0.000 C 
ATOM     26  C   UNL     1       1.029   3.838  19.118  0.00  0.00    +0.000 C 
ENDBRANCH  19  21
BRANCH  18  27
ATOM     27  S   UNL     1       4.374   4.197  17.271  0.00  0.00    +0.000 S 
ATOM     28  C   UNL     1       4.888   3.493  18.828  0.00  0.00    +0.000 C 
ATOM     29  O   UNL     1       3.363   3.298  16.731  0.00  0.00    +0.000 OA
ATOM     30  O   UNL     1       5.549   4.485  16.471  0.00  0.00    +0.000 OA
ENDBRANCH  18  27
ENDBRANCH   7  15
BRANCH  10  31
ATOM     31  C   UNL     1      -2.436   9.711  17.897  0.00  0.00    +0.000 C 
ATOM     32  C   UNL     1      -3.884   9.923  17.533  0.00  0.00    +0.000 C 
ATOM     33  C   UNL     1      -2.856   9.757  16.454  0.00  0.00    +0.000 C 
ENDBRANCH  10  31
TORSDOF 4
ENDMDL
MODEL 6
REMARK VINA RESULT:      -7.5      0.788      1.225
REMARK  Name = 
REMARK  6 active torsions:
REMARK  status: ('A' for Active; 'I' for Inactive)
REMARK    1  A    between atoms: C_1  and  N_2
REMARK    2  A    between atoms: C_7  and  C_8
REMARK    3  A    between atoms: C_11  and  S_12
REMARK    4  A    between atoms: S_12  and  C_13
REMARK    5  A    between atoms: C_16  and  N_17
REMARK    6  A    between atoms: N_26  and  C_27
REMARK                            x       y       z     vdW  Elec       q    Type
REMARK                         _______ _______ _______ _____ _____    ______ ____
ROOT
ATOM      1  C   UNL     1       5.920   3.668  15.430  0.00  0.00    +0.000 C 
ATOM      2  N   UNL     1       5.159   4.686  16.125  0.00  0.00    +0.000 N 
ATOM      3  C   UNL     1       5.385   6.015  15.876  0.00  0.00    +0.000 A 
ATOM      4  N   UNL     1       4.784   6.985  16.469  0.00  0.00    +0.000 NA
ATOM      5  C   UNL     1       3.824   6.661  17.441  0.00  0.00    +0.000 A 
ATOM      6  C   UNL     1       3.192   7.701  18.105  0.00  0.00    +0.000 A 
ATOM      7  C   UNL     1       2.253   7.420  19.091  0.00  0.00    +0.000 A 
ATOM      8  N   UNL     1       1.935   6.137  19.424  0.00  0.00    +0.000 NA
ATOM      9  C   UNL     1       2.541   5.104  18.768  0.00  0.00    +0.000 A 
ATOM     10  N   UNL     1       2.126   3.774  19.034  0.00  0.00    +0.000 N 
ATOM     11  C   UNL     1       3.496   5.352  17.773  0.00  0.00    +0.000 A 
ATOM     12  C   UNL     1       4.245   4.281  17.084  0.00  0.00    +0.000 A 
ATOM     13  O   UNL     1       4.075   3.099  17.396  0.00  0.00    +0.000 OA
ATOM     14  H   UNL     1       2.823   3.111  18.679  0.00  0.00    +0.000 HD
ENDROOT
BRANCH   7  15
ATOM     15  C   UNL     1       1.595   8.506  19.857  0.00  0.00    +0.000 A 
ATOM     16  C   UNL     1       0.820   8.246  20.988  0.00  0.00    +0.000 A 
ATOM     17  C   UNL     1       0.115   9.270  21.618  0.00  0.00    +0.000 A 
ATOM     18  C   UNL     1       0.166  10.600  21.145  0.00  0.00    +0.000 A 
ATOM     19  C   UNL     1       1.010  10.945  20.064  0.00  0.00    +0.000 A 
ATOM     20  C   UNL     1       1.686   9.852  19.446  0.00  0.00    +0.000 A 
BRANCH  19  21
ATOM     21  N   UNL     1       1.284  12.231  19.611  0.00  0.00    +0.000 N 
ATOM     22  C   UNL     1       0.210  13.062  19.009  0.00  0.00    +0.000 C 
ATOM     23  C   UNL     1       0.822  13.989  17.944  0.00  0.00    +0.000 C 
ATOM     24  O   UNL     1       1.865  14.814  18.491  0.00  0.00    +0.000 OA
ATOM     25  C   UNL     1       2.904  13.982  19.036  0.00  0.00    +0.000 C 
ATOM     26  C   UNL     1       2.349  13.090  20.159  0.00  0.00    +0.000 C 
ENDBRANCH  19  21
BRANCH  18  27
ATOM     27  S   UNL     1      -0.865  11.736  22.073  0.00  0.00    +0.000 S 
ATOM     28  C   UNL     1      -1.510  10.720  23.391  0.00  0.00    +0.000 C 
ATOM     29  O   UNL     1       0.002  12.721  22.704  0.00  0.00    +0.000 OA
ATOM     30  O   UNL     1      -1.967  12.202  21.253  0.00  0.00    +0.000 OA
ENDBRANCH  18  27
ENDBRANCH   7  15
BRANCH  10  31
ATOM     31  C   UNL     1       1.525   3.430  20.320  0.00  0.00    +0.000 C 
ATOM     32  C   UNL     1       2.133   2.335  21.160  0.00  0.00    +0.000 C 
ATOM     33  C   UNL     1       2.216   3.763  21.613  0.00  0.00    +0.000 C 
ENDBRANCH  10  31
TORSDOF 4
ENDMDL
MODEL 7
REMARK VINA RESULT:      -7.5      2.587      9.289
REMARK  Name = 
REMARK  6 active torsions:
REMARK  status: ('A' for Active; 'I' for Inactive)
REMARK    1  A    between atoms: C_1  and  N_2
REMARK    2  A    between atoms: C_7  and  C_8
REMARK    3  A    between atoms: C_11  and  S_12
REMARK    4  A    between atoms: S_12  and  C_13
REMARK    5  A    between atoms: C_16  and  N_17
REMARK    6  A    between atoms: N_26  and  C_27
REMARK                            x       y       z     vdW  Elec       q    Type
REMARK                         _______ _______ _______ _____ _____    ______ ____
ROOT
ATOM      1  C   UNL     1      -2.183  13.533  23.347  0.00  0.00    +0.000 C 
ATOM      2  N   UNL     1      -1.506  12.431  22.694  0.00  0.00    +0.000 N 
ATOM      3  C   UNL     1      -1.521  11.178  23.249  0.00  0.00    +0.000 A 
ATOM      4  N   UNL     1      -0.921  10.151  22.759  0.00  0.00    +0.000 NA
ATOM      5  C   UNL     1      -0.198  10.325  21.568  0.00  0.00    +0.000 A 
ATOM      6  C   UNL     1       0.475   9.230  21.049  0.00  0.00    +0.000 A 
ATOM      7  C   UNL     1       1.221   9.368  19.884  0.00  0.00    +0.000 A 
ATOM      8  N   UNL     1       1.307  10.563  19.234  0.00  0.00    +0.000 NA
ATOM      9  C   UNL     1       0.638  11.645  19.727  0.00  0.00    +0.000 A 
ATOM     10  N   UNL     1       0.634  12.856  18.988  0.00  0.00    +0.000 N 
ATOM     11  C   UNL     1      -0.118  11.542  20.902  0.00  0.00    +0.000 A 
ATOM     12  C   UNL     1      -0.799  12.693  21.531  0.00  0.00    +0.000 A 
ATOM     13  O   UNL     1      -0.692  13.823  21.048  0.00  0.00    +0.000 OA
ATOM     14  H   UNL     1       0.326  13.631  19.585  0.00  0.00    +0.000 HD
ENDROOT
BRANCH   7  15
ATOM     15  C   UNL     1       1.996   8.232  19.328  0.00  0.00    +0.000 A 
ATOM     16  C   UNL     1       2.967   8.413  18.344  0.00  0.00    +0.000 A 
ATOM     17  C   UNL     1       3.595   7.318  17.753  0.00  0.00    +0.000 A 
ATOM     18  C   UNL     1       3.280   5.994  18.134  0.00  0.00    +0.000 A 
ATOM     19  C   UNL     1       2.377   5.748  19.194  0.00  0.00    +0.000 A 
ATOM     20  C   UNL     1       1.751   6.906  19.741  0.00  0.00    +0.000 A 
BRANCH  19  21
ATOM     21  N   UNL     1       2.110   4.515  19.778  0.00  0.00    +0.000 N 
ATOM     22  C   UNL     1       2.243   4.332  21.246  0.00  0.00    +0.000 C 
ATOM     23  C   UNL     1       2.675   2.885  21.541  0.00  0.00    +0.000 C 
ATOM     24  O   UNL     1       1.755   1.929  20.985  0.00  0.00    +0.000 OA
ATOM     25  C   UNL     1       1.673   2.110  19.560  0.00  0.00    +0.000 C 
ATOM     26  C   UNL     1       1.171   3.524  19.222  0.00  0.00    +0.000 C 
ENDBRANCH  19  21
BRANCH  18  27
ATOM     27  S   UNL     1       4.166   4.745  17.200  0.00  0.00    +0.000 S 
ATOM     28  C   UNL     1       5.027   5.695  15.960  0.00  0.00    +0.000 C 
ATOM     29  O   UNL     1       5.191   4.177  18.064  0.00  0.00    +0.000 OA
ATOM     30  O   UNL     1       3.232   3.849  16.545  0.00  0.00    +0.000 OA
ENDBRANCH  18  27
ENDBRANCH   7  15
BRANCH  10  31
ATOM     31  C   UNL     1       1.725  13.164  18.068  0.00  0.00    +0.000 C 
ATOM     32  C   UNL     1       2.350  14.536  18.082  0.00  0.00    +0.000 C 
ATOM     33  C   UNL     1       3.131  13.351  18.567  0.00  0.00    +0.000 C 
ENDBRANCH  10  31
TORSDOF 4
ENDMDL
MODEL 8
REMARK VINA RESULT:      -7.5      3.226      8.769
REMARK  Name = 
REMARK  6 active torsions:
REMARK  status: ('A' for Active; 'I' for Inactive)
REMARK    1  A    between atoms: C_1  and  N_2
REMARK    2  A    between atoms: C_7  and  C_8
REMARK    3  A    between atoms: C_11  and  S_12
REMARK    4  A    between atoms: S_12  and  C_13
REMARK    5  A    between atoms: C_16  and  N_17
REMARK    6  A    between atoms: N_26  and  C_27
REMARK                            x       y       z     vdW  Elec       q    Type
REMARK                         _______ _______ _______ _____ _____    ______ ____
ROOT
ATOM      1  C   UNL     1      -5.271  12.252  17.403  0.00  0.00    +0.000 C 
ATOM      2  N   UNL     1      -4.024  11.516  17.370  0.00  0.00    +0.000 N 
ATOM      3  C   UNL     1      -3.719  10.713  16.302  0.00  0.00    +0.000 A 
ATOM      4  N   UNL     1      -2.654   9.998  16.202  0.00  0.00    +0.000 NA
ATOM      5  C   UNL     1      -1.736  10.045  17.264  0.00  0.00    +0.000 A 
ATOM      6  C   UNL     1      -0.600   9.255  17.176  0.00  0.00    +0.000 A 
ATOM      7  C   UNL     1       0.322   9.256  18.217  0.00  0.00    +0.000 A 
ATOM      8  N   UNL     1       0.135  10.020  19.330  0.00  0.00    +0.000 NA
ATOM      9  C   UNL     1      -0.973  10.813  19.422  0.00  0.00    +0.000 A 
ATOM     10  N   UNL     1      -1.108  11.693  20.526  0.00  0.00    +0.000 N 
ATOM     11  C   UNL     1      -1.924  10.831  18.393  0.00  0.00    +0.000 A 
ATOM     12  C   UNL     1      -3.182  11.603  18.467  0.00  0.00    +0.000 A 
ATOM     13  O   UNL     1      -3.462  12.248  19.481  0.00  0.00    +0.000 OA
ATOM     14  H   UNL     1      -2.077  12.020  20.598  0.00  0.00    +0.000 HD
ENDROOT
BRANCH   7  15
ATOM     15  C   UNL     1       1.522   8.386  18.182  0.00  0.00    +0.000 A 
ATOM     16  C   UNL     1       2.745   8.835  17.683  0.00  0.00    +0.000 A 
ATOM     17  C   UNL     1       3.823   7.963  17.549  0.00  0.00    +0.000 A 
ATOM     18  C   UNL     1       3.722   6.603  17.921  0.00  0.00    +0.000 A 
ATOM     19  C   UNL     1       2.541   6.110  18.523  0.00  0.00    +0.000 A 
ATOM     20  C   UNL     1       1.467   7.044  18.611  0.00  0.00    +0.000 A 
BRANCH  19  21
ATOM     21  N   UNL     1       2.369   4.851  19.086  0.00  0.00    +0.000 N 
ATOM     22  C   UNL     1       2.307   3.643  18.225  0.00  0.00    +0.000 C 
ATOM     23  C   UNL     1       1.385   2.599  18.879  0.00  0.00    +0.000 C 
ATOM     24  O   UNL     1       1.818   2.261  20.208  0.00  0.00    +0.000 OA
ATOM     25  C   UNL     1       1.836   3.444  21.025  0.00  0.00    +0.000 C 
ATOM     26  C   UNL     1       2.807   4.487  20.446  0.00  0.00    +0.000 C 
ENDBRANCH  19  21
BRANCH  18  27
ATOM     27  S   UNL     1       5.212   5.656  17.605  0.00  0.00    +0.000 S 
ATOM     28  C   UNL     1       6.406   6.907  17.165  0.00  0.00    +0.000 C 
ATOM     29  O   UNL     1       5.662   5.089  18.868  0.00  0.00    +0.000 OA
ATOM     30  O   UNL     1       5.017   4.770  16.473  0.00  0.00    +0.000 OA
ENDBRANCH  18  27
ENDBRANCH   7  15
BRANCH  10  31
ATOM     31  C   UNL     1      -0.447  11.396  21.794  0.00  0.00    +0.000 C 
ATOM     32  C   UNL     1      -1.258  11.339  23.064  0.00  0.00    +0.000 C 
ATOM     33  C   UNL     1      -0.666  10.084  22.494  0.00  0.00    +0.000 C 
ENDBRANCH  10  31
TORSDOF 4
ENDMDL
MODEL 9
REMARK VINA RESULT:      -7.4      3.288      8.746
REMARK  Name = 
REMARK  6 active torsions:
REMARK  status: ('A' for Active; 'I' for Inactive)
REMARK    1  A    between atoms: C_1  and  N_2
REMARK    2  A    between atoms: C_7  and  C_8
REMARK    3  A    between atoms: C_11  and  S_12
REMARK    4  A    between atoms: S_12  and  C_13
REMARK    5  A    between atoms: C_16  and  N_17
REMARK    6  A    between atoms: N_26  and  C_27
REMARK                            x       y       z     vdW  Elec       q    Type
REMARK                         _______ _______ _______ _____ _____    ______ ____
ROOT
ATOM      1  C   UNL     1      -5.114  12.160  17.158  0.00  0.00    +0.000 C 
ATOM      2  N   UNL     1      -3.870  11.419  17.177  0.00  0.00    +0.000 N 
ATOM      3  C   UNL     1      -3.551  10.569  16.151  0.00  0.00    +0.000 A 
ATOM      4  N   UNL     1      -2.488   9.846  16.099  0.00  0.00    +0.000 NA
ATOM      5  C   UNL     1      -1.587   9.936  17.173  0.00  0.00    +0.000 A 
ATOM      6  C   UNL     1      -0.453   9.139  17.139  0.00  0.00    +0.000 A 
ATOM      7  C   UNL     1       0.452   9.182  18.194  0.00  0.00    +0.000 A 
ATOM      8  N   UNL     1       0.250   9.995  19.269  0.00  0.00    +0.000 NA
ATOM      9  C   UNL     1      -0.856  10.794  19.308  0.00  0.00    +0.000 A 
ATOM     10  N   UNL     1      -1.005  11.723  20.370  0.00  0.00    +0.000 N 
ATOM     11  C   UNL     1      -1.790  10.771  18.264  0.00  0.00    +0.000 A 
ATOM     12  C   UNL     1      -3.046  11.550  18.283  0.00  0.00    +0.000 A 
ATOM     13  O   UNL     1      -3.339  12.240  19.264  0.00  0.00    +0.000 OA
ATOM     14  H   UNL     1      -1.974  12.056  20.412  0.00  0.00    +0.000 HD
ENDROOT
BRANCH   7  15
ATOM     15  C   UNL     1       1.648   8.307  18.216  0.00  0.00    +0.000 A 
ATOM     16  C   UNL     1       2.863   8.702  17.655  0.00  0.00    +0.000 A 
ATOM     17  C   UNL     1       3.935   7.816  17.581  0.00  0.00    +0.000 A 
ATOM     18  C   UNL     1       3.838   6.497  18.079  0.00  0.00    +0.000 A 
ATOM     19  C   UNL     1       2.668   6.068  18.748  0.00  0.00    +0.000 A 
ATOM     20  C   UNL     1       1.598   7.010  18.769  0.00  0.00    +0.000 A 
BRANCH  19  21
ATOM     21  N   UNL     1       2.503   4.867  19.429  0.00  0.00    +0.000 N 
ATOM     22  C   UNL     1       1.860   4.841  20.767  0.00  0.00    +0.000 C 
ATOM     23  C   UNL     1       2.464   3.697  21.600  0.00  0.00    +0.000 C 
ATOM     24  O   UNL     1       2.328   2.427  20.940  0.00  0.00    +0.000 OA
ATOM     25  C   UNL     1       2.989   2.473  19.663  0.00  0.00    +0.000 C 
ATOM     26  C   UNL     1       2.363   3.556  18.769  0.00  0.00    +0.000 C 
ENDBRANCH  19  21
BRANCH  18  27
ATOM     27  S   UNL     1       5.319   5.518  17.824  0.00  0.00    +0.000 S 
ATOM     28  C   UNL     1       4.824   4.345  16.575  0.00  0.00    +0.000 C 
ATOM     29  O   UNL     1       6.324   6.372  17.207  0.00  0.00    +0.000 OA
ATOM     30  O   UNL     1       5.664   4.801  19.037  0.00  0.00    +0.000 OA
ENDBRANCH  18  27
ENDBRANCH   7  15
BRANCH  10  31
ATOM     31  C   UNL     1      -0.366  11.479  21.661  0.00  0.00    +0.000 C 
ATOM     32  C   UNL     1      -1.056  11.911  22.930  0.00  0.00    +0.000 C 
ATOM     33  C   UNL     1      -0.911  10.452  22.614  0.00  0.00    +0.000 C 
ENDBRANCH  10  31
TORSDOF 4
ENDMDL
