MODEL 1
REMARK VINA RESULT:      -8.7      0.000      0.000
REMARK  Name = 
REMARK  7 active torsions:
REMARK  status: ('A' for Active; 'I' for Inactive)
REMARK    1  A    between atoms: C_1  and  C_2
REMARK    2  A    between atoms: C_3  and  C_4
REMARK    3  A    between atoms: C_4  and  C_5
REMARK    4  A    between atoms: C_5  and  O_7
REMARK    5  A    between atoms: C_16  and  C_17
REMARK    6  A    between atoms: C_20  and  S_21
REMARK    7  A    between atoms: S_21  and  O_24
REMARK                            x       y       z     vdW  Elec       q    Type
REMARK                         _______ _______ _______ _____ _____    ______ ____
ROOT
ATOM      1  C   UNL     1       5.071   7.020  16.172  0.00  0.00    +0.000 C 
ATOM      2  C   UNL     1       4.361   6.314  17.281  0.00  0.00    +0.000 C 
ATOM      3  C   UNL     1       4.665   5.104  17.811  0.00  0.00    +0.000 C 
ATOM      4  C   UNL     1       3.712   4.860  18.921  0.00  0.00    +0.000 A 
ATOM      5  C   UNL     1       3.614   3.808  19.826  0.00  0.00    +0.000 A 
ATOM      6  C   UNL     1       2.568   3.818  20.754  0.00  0.00    +0.000 A 
ATOM      7  F   UNL     1       2.464   2.820  21.642  0.00  0.00    +0.000 F 
ATOM      8  C   UNL     1       1.614   4.839  20.783  0.00  0.00    +0.000 A 
ATOM      9  C   UNL     1       1.719   5.898  19.888  0.00  0.00    +0.000 A 
ATOM     10  C   UNL     1       2.786   5.925  18.996  0.00  0.00    +0.000 A 
ATOM     11  C   UNL     1       3.204   6.905  17.980  0.00  0.00    +0.000 C 
ATOM     12  C   UNL     1       2.706   8.131  17.726  0.00  0.00    +0.000 C 
ENDROOT
BRANCH  12  13
ATOM     13  C   UNL     1       1.717   8.760  18.529  0.00  0.00    +0.000 A 
ATOM     14  C   UNL     1       0.610   9.485  18.112  0.00  0.00    +0.000 A 
ATOM     15  C   UNL     1      -0.027   9.995  19.263  0.00  0.00    +0.000 A 
ATOM     16  C   UNL     1       0.666   9.513  20.364  0.00  0.00    +0.000 A 
ATOM     17  O   UNL     1       1.714   8.745  19.903  0.00  0.00    +0.000 OA
BRANCH  16  18
ATOM     18  S   UNL     1       0.395   9.768  22.114  0.00  0.00    +0.000 S 
ATOM     19  O   UNL     1       0.250  11.193  22.286  0.00  0.00    +0.000 OA
ATOM     20  O   UNL     1      -0.602   8.790  22.508  0.00  0.00    +0.000 OA
BRANCH  18  21
ATOM     21  O   UNL     1       1.833   9.350  22.706  0.00  0.00    +0.000 OA
ATOM     22  H   UNL     1       2.427   9.164  21.950  0.00  0.00    +0.000 HD
ENDBRANCH  18  21
ENDBRANCH  16  18
ENDBRANCH  12  13
BRANCH   3  23
ATOM     23  C   UNL     1       5.683   4.120  17.296  0.00  0.00    +0.000 C 
BRANCH  23  24
ATOM     24  C   UNL     1       7.170   4.456  17.386  0.00  0.00    +0.000 C 
ATOM     25  O   UNL     1       7.895   4.478  16.392  0.00  0.00    +0.000 OA
BRANCH  24  26
ATOM     26  O   UNL     1       7.647   4.749  18.607  0.00  0.00    +0.000 OA
ATOM     27  H   UNL     1       7.803   5.696  18.758  0.00  0.00    +0.000 HD
ENDBRANCH  24  26
ENDBRANCH  23  24
ENDBRANCH   3  23
TORSDOF 6
ENDMDL
MODEL 2
REMARK VINA RESULT:      -8.3      1.771      2.124
REMARK  Name = 
REMARK  7 active torsions:
REMARK  status: ('A' for Active; 'I' for Inactive)
REMARK    1  A    between atoms: C_1  and  C_2
REMARK    2  A    between atoms: C_3  and  C_4
REMARK    3  A    between atoms: C_4  and  C_5
REMARK    4  A    between atoms: C_5  and  O_7
REMARK    5  A    between atoms: C_16  and  C_17
REMARK    6  A    between atoms: C_20  and  S_21
REMARK    7  A    between atoms: S_21  and  O_24
REMARK                            x       y       z     vdW  Elec       q    Type
REMARK                         _______ _______ _______ _____ _____    ______ ____
ROOT
ATOM      1  C   UNL     1       6.436   7.420  16.886  0.00  0.00    +0.000 C 
ATOM      2  C   UNL     1       5.322   6.453  17.126  0.00  0.00    +0.000 C 
ATOM      3  C   UNL     1       5.371   5.102  17.024  0.00  0.00    +0.000 C 
ATOM      4  C   UNL     1       4.036   4.586  17.413  0.00  0.00    +0.000 A 
ATOM      5  C   UNL     1       3.562   3.284  17.538  0.00  0.00    +0.000 A 
ATOM      6  C   UNL     1       2.221   3.090  17.884  0.00  0.00    +0.000 A 
ATOM      7  F   UNL     1       1.748   1.843  18.021  0.00  0.00    +0.000 F 
ATOM      8  C   UNL     1       1.346   4.161  18.085  0.00  0.00    +0.000 A 
ATOM      9  C   UNL     1       1.822   5.463  17.975  0.00  0.00    +0.000 A 
ATOM     10  C   UNL     1       3.167   5.667  17.683  0.00  0.00    +0.000 A 
ATOM     11  C   UNL     1       3.979   6.889  17.552  0.00  0.00    +0.000 C 
ATOM     12  C   UNL     1       3.637   8.167  17.806  0.00  0.00    +0.000 C 
ENDROOT
BRANCH  12  13
ATOM     13  C   UNL     1       2.401   8.550  18.394  0.00  0.00    +0.000 A 
ATOM     14  C   UNL     1       1.273   9.055  17.764  0.00  0.00    +0.000 A 
ATOM     15  C   UNL     1       0.331   9.376  18.764  0.00  0.00    +0.000 A 
ATOM     16  C   UNL     1       0.878   8.996  19.981  0.00  0.00    +0.000 A 
ATOM     17  O   UNL     1       2.131   8.474  19.739  0.00  0.00    +0.000 OA
BRANCH  16  18
ATOM     18  S   UNL     1       0.221   9.114  21.641  0.00  0.00    +0.000 S 
ATOM     19  O   UNL     1      -0.716   8.025  21.771  0.00  0.00    +0.000 OA
ATOM     20  O   UNL     1       1.366   9.318  22.508  0.00  0.00    +0.000 OA
BRANCH  18  21
ATOM     21  O   UNL     1      -0.629  10.477  21.531  0.00  0.00    +0.000 OA
ATOM     22  H   UNL     1      -1.352  10.435  22.191  0.00  0.00    +0.000 HD
ENDBRANCH  18  21
ENDBRANCH  16  18
ENDBRANCH  12  13
BRANCH   3  23
ATOM     23  C   UNL     1       6.510   4.276  16.487  0.00  0.00    +0.000 C 
BRANCH  23  24
ATOM     24  C   UNL     1       6.872   4.361  15.006  0.00  0.00    +0.000 C 
ATOM     25  O   UNL     1       7.631   5.226  14.570  0.00  0.00    +0.000 OA
BRANCH  24  26
ATOM     26  O   UNL     1       6.337   3.429  14.201  0.00  0.00    +0.000 OA
ATOM     27  H   UNL     1       6.325   3.672  13.260  0.00  0.00    +0.000 HD
ENDBRANCH  24  26
ENDBRANCH  23  24
ENDBRANCH   3  23
TORSDOF 6
ENDMDL
MODEL 3
REMARK VINA RESULT:      -8.3      0.651      1.080
REMARK  Name = 
REMARK  7 active torsions:
REMARK  status: ('A' for Active; 'I' for Inactive)
REMARK    1  A    between atoms: C_1  and  C_2
REMARK    2  A    between atoms: C_3  and  C_4
REMARK    3  A    between atoms: C_4  and  C_5
REMARK    4  A    between atoms: C_5  and  O_7
REMARK    5  A    between atoms: C_16  and  C_17
REMARK    6  A    between atoms: C_20  and  S_21
REMARK    7  A    between atoms: S_21  and  O_24
REMARK                            x       y       z     vdW  Elec       q    Type
REMARK                         _______ _______ _______ _____ _____    ______ ____
ROOT
ATOM      1  C   UNL     1       5.189   6.980  16.232  0.00  0.00    +0.000 C 
ATOM      2  C   UNL     1       4.421   6.366  17.358  0.00  0.00    +0.000 C 
ATOM      3  C   UNL     1       4.696   5.206  18.002  0.00  0.00    +0.000 C 
ATOM      4  C   UNL     1       3.685   5.052  19.077  0.00  0.00    +0.000 A 
ATOM      5  C   UNL     1       3.538   4.078  20.059  0.00  0.00    +0.000 A 
ATOM      6  C   UNL     1       2.444   4.162  20.927  0.00  0.00    +0.000 A 
ATOM      7  F   UNL     1       2.292   3.241  21.888  0.00  0.00    +0.000 F 
ATOM      8  C   UNL     1       1.491   5.178  20.819  0.00  0.00    +0.000 A 
ATOM      9  C   UNL     1       1.644   6.160  19.847  0.00  0.00    +0.000 A 
ATOM     10  C   UNL     1       2.756   6.116  19.013  0.00  0.00    +0.000 A 
ATOM     11  C   UNL     1       3.229   7.009  17.942  0.00  0.00    +0.000 C 
ATOM     12  C   UNL     1       2.746   8.208  17.561  0.00  0.00    +0.000 C 
ENDROOT
BRANCH  12  13
ATOM     13  C   UNL     1       1.716   8.898  18.255  0.00  0.00    +0.000 A 
ATOM     14  C   UNL     1       0.475   9.290  17.776  0.00  0.00    +0.000 A 
ATOM     15  C   UNL     1      -0.166  10.026  18.795  0.00  0.00    +0.000 A 
ATOM     16  C   UNL     1       0.671  10.010  19.901  0.00  0.00    +0.000 A 
ATOM     17  O   UNL     1       1.805   9.302  19.565  0.00  0.00    +0.000 OA
BRANCH  16  18
ATOM     18  S   UNL     1       0.473  10.743  21.521  0.00  0.00    +0.000 S 
ATOM     19  O   UNL     1      -0.903  11.169  21.595  0.00  0.00    +0.000 OA
ATOM     20  O   UNL     1       1.095   9.821  22.453  0.00  0.00    +0.000 OA
BRANCH  18  21
ATOM     21  O   UNL     1       1.384  12.061  21.369  0.00  0.00    +0.000 OA
ATOM     22  H   UNL     1       2.227  11.799  20.946  0.00  0.00    +0.000 HD
ENDBRANCH  18  21
ENDBRANCH  16  18
ENDBRANCH  12  13
BRANCH   3  23
ATOM     23  C   UNL     1       5.739   4.186  17.626  0.00  0.00    +0.000 C 
BRANCH  23  24
ATOM     24  C   UNL     1       7.218   4.558  17.698  0.00  0.00    +0.000 C 
ATOM     25  O   UNL     1       7.773   4.818  18.765  0.00  0.00    +0.000 OA
BRANCH  24  26
ATOM     26  O   UNL     1       7.894   4.566  16.538  0.00  0.00    +0.000 OA
ATOM     27  H   UNL     1       8.666   3.976  16.521  0.00  0.00    +0.000 HD
ENDBRANCH  24  26
ENDBRANCH  23  24
ENDBRANCH   3  23
TORSDOF 6
ENDMDL
MODEL 4
REMARK VINA RESULT:      -8.0      1.802      2.163
REMARK  Name = 
REMARK  7 active torsions:
REMARK  status: ('A' for Active; 'I' for Inactive)
REMARK    1  A    between atoms: C_1  and  C_2
REMARK    2  A    between atoms: C_3  and  C_4
REMARK    3  A    between atoms: C_4  and  C_5
REMARK    4  A    between atoms: C_5  and  O_7
REMARK    5  A    between atoms: C_16  and  C_17
REMARK    6  A    between atoms: C_20  and  S_21
REMARK    7  A    between atoms: S_21  and  O_24
REMARK                            x       y       z     vdW  Elec       q    Type
REMARK                         _______ _______ _______ _____ _____    ______ ____
ROOT
ATOM      1  C   UNL     1       5.069   6.965  15.999  0.00  0.00    +0.000 C 
ATOM      2  C   UNL     1       4.365   6.299  17.136  0.00  0.00    +0.000 C 
ATOM      3  C   UNL     1       4.650   5.092  17.683  0.00  0.00    +0.000 C 
ATOM      4  C   UNL     1       3.713   4.893  18.816  0.00  0.00    +0.000 A 
ATOM      5  C   UNL     1       3.607   3.862  19.743  0.00  0.00    +0.000 A 
ATOM      6  C   UNL     1       2.580   3.916  20.691  0.00  0.00    +0.000 A 
ATOM      7  F   UNL     1       2.469   2.938  21.600  0.00  0.00    +0.000 F 
ATOM      8  C   UNL     1       1.652   4.960  20.717  0.00  0.00    +0.000 A 
ATOM      9  C   UNL     1       1.764   5.999  19.800  0.00  0.00    +0.000 A 
ATOM     10  C   UNL     1       2.814   5.982  18.887  0.00  0.00    +0.000 A 
ATOM     11  C   UNL     1       3.236   6.931  17.843  0.00  0.00    +0.000 C 
ATOM     12  C   UNL     1       2.762   8.163  17.575  0.00  0.00    +0.000 C 
ENDROOT
BRANCH  12  13
ATOM     13  C   UNL     1       1.804   8.833  18.383  0.00  0.00    +0.000 A 
ATOM     14  C   UNL     1       1.764   8.922  19.767  0.00  0.00    +0.000 A 
ATOM     15  C   UNL     1       0.581   9.604  20.119  0.00  0.00    +0.000 A 
ATOM     16  C   UNL     1      -0.044   9.979  18.938  0.00  0.00    +0.000 A 
ATOM     17  O   UNL     1       0.723   9.521  17.888  0.00  0.00    +0.000 OA
BRANCH  16  18
ATOM     18  S   UNL     1      -1.571  10.869  18.660  0.00  0.00    +0.000 S 
ATOM     19  O   UNL     1      -2.480   9.915  18.073  0.00  0.00    +0.000 OA
ATOM     20  O   UNL     1      -1.832  11.602  19.884  0.00  0.00    +0.000 OA
BRANCH  18  21
ATOM     21  O   UNL     1      -1.119  11.888  17.499  0.00  0.00    +0.000 OA
ATOM     22  H   UNL     1      -1.692  11.732  16.720  0.00  0.00    +0.000 HD
ENDBRANCH  18  21
ENDBRANCH  16  18
ENDBRANCH  12  13
BRANCH   3  23
ATOM     23  C   UNL     1       5.634   4.074  17.169  0.00  0.00    +0.000 C 
BRANCH  23  24
ATOM     24  C   UNL     1       7.130   4.377  17.220  0.00  0.00    +0.000 C 
ATOM     25  O   UNL     1       7.778   4.632  16.206  0.00  0.00    +0.000 OA
BRANCH  24  26
ATOM     26  O   UNL     1       7.703   4.375  18.435  0.00  0.00    +0.000 OA
ATOM     27  H   UNL     1       7.882   5.260  18.794  0.00  0.00    +0.000 HD
ENDBRANCH  24  26
ENDBRANCH  23  24
ENDBRANCH   3  23
TORSDOF 6
ENDMDL
MODEL 5
REMARK VINA RESULT:      -7.8      4.388      7.919
REMARK  Name = 
REMARK  7 active torsions:
REMARK  status: ('A' for Active; 'I' for Inactive)
REMARK    1  A    between atoms: C_1  and  C_2
REMARK    2  A    between atoms: C_3  and  C_4
REMARK    3  A    between atoms: C_4  and  C_5
REMARK    4  A    between atoms: C_5  and  O_7
REMARK    5  A    between atoms: C_16  and  C_17
REMARK    6  A    between atoms: C_20  and  S_21
REMARK    7  A    between atoms: S_21  and  O_24
REMARK                            x       y       z     vdW  Elec       q    Type
REMARK                         _______ _______ _______ _____ _____    ______ ____
ROOT
ATOM      1  C   UNL     1       4.202   2.177  19.920  0.00  0.00    +0.000 C 
ATOM      2  C   UNL     1       3.913   3.532  19.361  0.00  0.00    +0.000 C 
ATOM      3  C   UNL     1       3.173   4.514  19.931  0.00  0.00    +0.000 C 
ATOM      4  C   UNL     1       3.225   5.685  19.021  0.00  0.00    +0.000 A 
ATOM      5  C   UNL     1       2.691   6.964  19.147  0.00  0.00    +0.000 A 
ATOM      6  C   UNL     1       2.861   7.867  18.093  0.00  0.00    +0.000 A 
ATOM      7  F   UNL     1       2.365   9.107  18.201  0.00  0.00    +0.000 F 
ATOM      8  C   UNL     1       3.528   7.514  16.917  0.00  0.00    +0.000 A 
ATOM      9  C   UNL     1       4.075   6.242  16.795  0.00  0.00    +0.000 A 
ATOM     10  C   UNL     1       3.958   5.353  17.859  0.00  0.00    +0.000 A 
ATOM     11  C   UNL     1       4.456   3.983  18.066  0.00  0.00    +0.000 C 
ATOM     12  C   UNL     1       5.286   3.255  17.293  0.00  0.00    +0.000 C 
ENDROOT
BRANCH  12  13
ATOM     13  C   UNL     1       5.949   3.771  16.146  0.00  0.00    +0.000 A 
ATOM     14  C   UNL     1       6.923   4.756  16.092  0.00  0.00    +0.000 A 
ATOM     15  C   UNL     1       7.213   4.999  14.733  0.00  0.00    +0.000 A 
ATOM     16  C   UNL     1       6.457   4.106  13.986  0.00  0.00    +0.000 A 
ATOM     17  O   UNL     1       5.707   3.350  14.861  0.00  0.00    +0.000 OA
BRANCH  16  18
ATOM     18  S   UNL     1       6.345   3.872  12.216  0.00  0.00    +0.000 S 
ATOM     19  O   UNL     1       4.935   3.859  11.909  0.00  0.00    +0.000 OA
ATOM     20  O   UNL     1       7.302   4.793  11.632  0.00  0.00    +0.000 OA
BRANCH  18  21
ATOM     21  O   UNL     1       6.886   2.362  12.077  0.00  0.00    +0.000 OA
ATOM     22  H   UNL     1       6.368   1.798  12.688  0.00  0.00    +0.000 HD
ENDBRANCH  18  21
ENDBRANCH  16  18
ENDBRANCH  12  13
BRANCH   3  23
ATOM     23  C   UNL     1       2.337   4.409  21.180  0.00  0.00    +0.000 C 
BRANCH  23  24
ATOM     24  C   UNL     1       1.352   3.253  21.334  0.00  0.00    +0.000 C 
ATOM     25  O   UNL     1       1.413   2.467  22.279  0.00  0.00    +0.000 OA
BRANCH  24  26
ATOM     26  O   UNL     1       0.397   3.147  20.396  0.00  0.00    +0.000 OA
ATOM     27  H   UNL     1       0.494   3.769  19.656  0.00  0.00    +0.000 HD
ENDBRANCH  24  26
ENDBRANCH  23  24
ENDBRANCH   3  23
TORSDOF 6
ENDMDL
MODEL 6
REMARK VINA RESULT:      -7.7      2.682      4.106
REMARK  Name = 
REMARK  7 active torsions:
REMARK  status: ('A' for Active; 'I' for Inactive)
REMARK    1  A    between atoms: C_1  and  C_2
REMARK    2  A    between atoms: C_3  and  C_4
REMARK    3  A    between atoms: C_4  and  C_5
REMARK    4  A    between atoms: C_5  and  O_7
REMARK    5  A    between atoms: C_16  and  C_17
REMARK    6  A    between atoms: C_20  and  S_21
REMARK    7  A    between atoms: S_21  and  O_24
REMARK                            x       y       z     vdW  Elec       q    Type
REMARK                         _______ _______ _______ _____ _____    ______ ____
ROOT
ATOM      1  C   UNL     1       1.122   3.348  20.876  0.00  0.00    +0.000 C 
ATOM      2  C   UNL     1       1.931   4.173  19.929  0.00  0.00    +0.000 C 
ATOM      3  C   UNL     1       2.680   3.731  18.889  0.00  0.00    +0.000 C 
ATOM      4  C   UNL     1       3.244   4.927  18.216  0.00  0.00    +0.000 A 
ATOM      5  C   UNL     1       4.030   5.046  17.075  0.00  0.00    +0.000 A 
ATOM      6  C   UNL     1       4.463   6.319  16.690  0.00  0.00    +0.000 A 
ATOM      7  F   UNL     1       5.211   6.456  15.586  0.00  0.00    +0.000 F 
ATOM      8  C   UNL     1       4.148   7.462  17.429  0.00  0.00    +0.000 A 
ATOM      9  C   UNL     1       3.351   7.346  18.562  0.00  0.00    +0.000 A 
ATOM     10  C   UNL     1       2.870   6.092  18.924  0.00  0.00    +0.000 A 
ATOM     11  C   UNL     1       1.983   5.645  20.010  0.00  0.00    +0.000 C 
ATOM     12  C   UNL     1       1.289   6.384  20.897  0.00  0.00    +0.000 C 
ENDROOT
BRANCH  12  13
ATOM     13  C   UNL     1       1.201   7.801  20.845  0.00  0.00    +0.000 A 
ATOM     14  C   UNL     1       1.448   8.713  21.860  0.00  0.00    +0.000 A 
ATOM     15  C   UNL     1       1.140   9.998  21.367  0.00  0.00    +0.000 A 
ATOM     16  C   UNL     1       0.775   9.852  20.037  0.00  0.00    +0.000 A 
ATOM     17  O   UNL     1       0.837   8.510  19.725  0.00  0.00    +0.000 OA
BRANCH  16  18
ATOM     18  S   UNL     1       0.271  11.069  18.827  0.00  0.00    +0.000 S 
ATOM     19  O   UNL     1      -0.720  10.418  18.004  0.00  0.00    +0.000 OA
ATOM     20  O   UNL     1       0.042  12.294  19.568  0.00  0.00    +0.000 OA
BRANCH  18  21
ATOM     21  O   UNL     1       1.617  11.202  17.954  0.00  0.00    +0.000 OA
ATOM     22  H   UNL     1       1.362  11.458  17.044  0.00  0.00    +0.000 HD
ENDBRANCH  18  21
ENDBRANCH  16  18
ENDBRANCH  12  13
BRANCH   3  23
ATOM     23  C   UNL     1       3.001   2.299  18.548  0.00  0.00    +0.000 C 
BRANCH  23  24
ATOM     24  C   UNL     1       4.195   1.615  19.210  0.00  0.00    +0.000 C 
ATOM     25  O   UNL     1       4.808   2.134  20.142  0.00  0.00    +0.000 OA
BRANCH  24  26
ATOM     26  O   UNL     1       4.532   0.404  18.738  0.00  0.00    +0.000 OA
ATOM     27  H   UNL     1       4.121   0.178  17.888  0.00  0.00    +0.000 HD
ENDBRANCH  24  26
ENDBRANCH  23  24
ENDBRANCH   3  23
TORSDOF 6
ENDMDL
MODEL 7
REMARK VINA RESULT:      -7.6      4.218      8.956
REMARK  Name = 
REMARK  7 active torsions:
REMARK  status: ('A' for Active; 'I' for Inactive)
REMARK    1  A    between atoms: C_1  and  C_2
REMARK    2  A    between atoms: C_3  and  C_4
REMARK    3  A    between atoms: C_4  and  C_5
REMARK    4  A    between atoms: C_5  and  O_7
REMARK    5  A    between atoms: C_16  and  C_17
REMARK    6  A    between atoms: C_20  and  S_21
REMARK    7  A    between atoms: S_21  and  O_24
REMARK                            x       y       z     vdW  Elec       q    Type
REMARK                         _______ _______ _______ _____ _____    ______ ____
ROOT
ATOM      1  C   UNL     1      -0.930  12.395  22.090  0.00  0.00    +0.000 C 
ATOM      2  C   UNL     1      -1.450  11.903  20.778  0.00  0.00    +0.000 C 
ATOM      3  C   UNL     1      -2.593  12.281  20.155  0.00  0.00    +0.000 C 
ATOM      4  C   UNL     1      -2.643  11.559  18.860  0.00  0.00    +0.000 A 
ATOM      5  C   UNL     1      -3.561  11.619  17.816  0.00  0.00    +0.000 A 
ATOM      6  C   UNL     1      -3.380  10.776  16.716  0.00  0.00    +0.000 A 
ATOM      7  F   UNL     1      -4.247  10.828  15.695  0.00  0.00    +0.000 F 
ATOM      8  C   UNL     1      -2.322   9.867  16.647  0.00  0.00    +0.000 A 
ATOM      9  C   UNL     1      -1.396   9.815  17.682  0.00  0.00    +0.000 A 
ATOM     10  C   UNL     1      -1.536  10.687  18.757  0.00  0.00    +0.000 A 
ATOM     11  C   UNL     1      -0.719  10.917  19.960  0.00  0.00    +0.000 C 
ATOM     12  C   UNL     1       0.484  10.403  20.281  0.00  0.00    +0.000 C 
ENDROOT
BRANCH  12  13
ATOM     13  C   UNL     1       1.259   9.603  19.399  0.00  0.00    +0.000 A 
ATOM     14  C   UNL     1       1.721   9.927  18.132  0.00  0.00    +0.000 A 
ATOM     15  C   UNL     1       2.363   8.787  17.604  0.00  0.00    +0.000 A 
ATOM     16  C   UNL     1       2.340   7.810  18.589  0.00  0.00    +0.000 A 
ATOM     17  O   UNL     1       1.683   8.328  19.685  0.00  0.00    +0.000 OA
BRANCH  16  18
ATOM     18  S   UNL     1       2.975   6.138  18.586  0.00  0.00    +0.000 S 
ATOM     19  O   UNL     1       1.922   5.318  18.039  0.00  0.00    +0.000 OA
ATOM     20  O   UNL     1       4.315   6.223  18.037  0.00  0.00    +0.000 OA
BRANCH  18  21
ATOM     21  O   UNL     1       3.051   5.841  20.167  0.00  0.00    +0.000 OA
ATOM     22  H   UNL     1       3.191   6.694  20.627  0.00  0.00    +0.000 HD
ENDBRANCH  18  21
ENDBRANCH  16  18
ENDBRANCH  12  13
BRANCH   3  23
ATOM     23  C   UNL     1      -3.682  13.159  20.714  0.00  0.00    +0.000 C 
BRANCH  23  24
ATOM     24  C   UNL     1      -4.707  12.568  21.678  0.00  0.00    +0.000 C 
ATOM     25  O   UNL     1      -4.531  12.565  22.896  0.00  0.00    +0.000 OA
BRANCH  24  26
ATOM     26  O   UNL     1      -5.827  12.067  21.132  0.00  0.00    +0.000 OA
ATOM     27  H   UNL     1      -6.516  11.832  21.777  0.00  0.00    +0.000 HD
ENDBRANCH  24  26
ENDBRANCH  23  24
ENDBRANCH   3  23
TORSDOF 6
ENDMDL
MODEL 8
REMARK VINA RESULT:      -7.6      1.830      2.264
REMARK  Name = 
REMARK  7 active torsions:
REMARK  status: ('A' for Active; 'I' for Inactive)
REMARK    1  A    between atoms: C_1  and  C_2
REMARK    2  A    between atoms: C_3  and  C_4
REMARK    3  A    between atoms: C_4  and  C_5
REMARK    4  A    between atoms: C_5  and  O_7
REMARK    5  A    between atoms: C_16  and  C_17
REMARK    6  A    between atoms: C_20  and  S_21
REMARK    7  A    between atoms: S_21  and  O_24
REMARK                            x       y       z     vdW  Elec       q    Type
REMARK                         _______ _______ _______ _____ _____    ______ ____
ROOT
ATOM      1  C   UNL     1       5.029   7.101  16.171  0.00  0.00    +0.000 C 
ATOM      2  C   UNL     1       4.311   6.427  17.295  0.00  0.00    +0.000 C 
ATOM      3  C   UNL     1       4.599   5.224  17.848  0.00  0.00    +0.000 C 
ATOM      4  C   UNL     1       3.644   5.016  18.964  0.00  0.00    +0.000 A 
ATOM      5  C   UNL     1       3.532   3.983  19.890  0.00  0.00    +0.000 A 
ATOM      6  C   UNL     1       2.488   4.027  20.818  0.00  0.00    +0.000 A 
ATOM      7  F   UNL     1       2.371   3.048  21.726  0.00  0.00    +0.000 F 
ATOM      8  C   UNL     1       1.548   5.061  20.827  0.00  0.00    +0.000 A 
ATOM      9  C   UNL     1       1.667   6.101  19.912  0.00  0.00    +0.000 A 
ATOM     10  C   UNL     1       2.733   6.095  19.018  0.00  0.00    +0.000 A 
ATOM     11  C   UNL     1       3.163   7.048  17.982  0.00  0.00    +0.000 C 
ATOM     12  C   UNL     1       2.682   8.276  17.705  0.00  0.00    +0.000 C 
ENDROOT
BRANCH  12  13
ATOM     13  C   UNL     1       1.703   8.935  18.496  0.00  0.00    +0.000 A 
ATOM     14  C   UNL     1       1.575   8.933  19.877  0.00  0.00    +0.000 A 
ATOM     15  C   UNL     1       0.401   9.647  20.199  0.00  0.00    +0.000 A 
ATOM     16  C   UNL     1      -0.126  10.130  19.010  0.00  0.00    +0.000 A 
ATOM     17  O   UNL     1       0.689   9.706  17.982  0.00  0.00    +0.000 OA
BRANCH  16  18
ATOM     18  S   UNL     1      -1.590  11.110  18.699  0.00  0.00    +0.000 S 
ATOM     19  O   UNL     1      -2.063  11.532  19.995  0.00  0.00    +0.000 OA
ATOM     20  O   UNL     1      -1.240  12.014  17.620  0.00  0.00    +0.000 OA
BRANCH  18  21
ATOM     21  O   UNL     1      -2.600   9.979  18.158  0.00  0.00    +0.000 OA
ATOM     22  H   UNL     1      -3.270  10.417  17.594  0.00  0.00    +0.000 HD
ENDBRANCH  18  21
ENDBRANCH  16  18
ENDBRANCH  12  13
BRANCH   3  23
ATOM     23  C   UNL     1       5.603   4.216  17.352  0.00  0.00    +0.000 C 
BRANCH  23  24
ATOM     24  C   UNL     1       7.096   4.509  17.485  0.00  0.00    +0.000 C 
ATOM     25  O   UNL     1       7.630   4.687  18.579  0.00  0.00    +0.000 OA
BRANCH  24  26
ATOM     26  O   UNL     1       7.806   4.542  16.346  0.00  0.00    +0.000 OA
ATOM     27  H   UNL     1       8.591   5.114  16.381  0.00  0.00    +0.000 HD
ENDBRANCH  24  26
ENDBRANCH  23  24
ENDBRANCH   3  23
TORSDOF 6
ENDMDL
MODEL 9
REMARK VINA RESULT:      -7.4      1.013      1.016
REMARK  Name = 
REMARK  7 active torsions:
REMARK  status: ('A' for Active; 'I' for Inactive)
REMARK    1  A    between atoms: C_1  and  C_2
REMARK    2  A    between atoms: C_3  and  C_4
REMARK    3  A    between atoms: C_4  and  C_5
REMARK    4  A    between atoms: C_5  and  O_7
REMARK    5  A    between atoms: C_16  and  C_17
REMARK    6  A    between atoms: C_20  and  S_21
REMARK    7  A    between atoms: S_21  and  O_24
REMARK                            x       y       z     vdW  Elec       q    Type
REMARK                         _______ _______ _______ _____ _____    ______ ____
ROOT
ATOM      1  C   UNL     1       6.043   7.589  16.891  0.00  0.00    +0.000 C 
ATOM      2  C   UNL     1       5.042   6.628  17.448  0.00  0.00    +0.000 C 
ATOM      3  C   UNL     1       5.217   5.303  17.677  0.00  0.00    +0.000 C 
ATOM      4  C   UNL     1       3.962   4.796  18.286  0.00  0.00    +0.000 A 
ATOM      5  C   UNL     1       3.624   3.534  18.763  0.00  0.00    +0.000 A 
ATOM      6  C   UNL     1       2.330   3.327  19.251  0.00  0.00    +0.000 A 
ATOM      7  F   UNL     1       1.989   2.121  19.726  0.00  0.00    +0.000 F 
ATOM      8  C   UNL     1       1.368   4.341  19.251  0.00  0.00    +0.000 A 
ATOM      9  C   UNL     1       1.709   5.607  18.787  0.00  0.00    +0.000 A 
ATOM     10  C   UNL     1       3.009   5.838  18.349  0.00  0.00    +0.000 A 
ATOM     11  C   UNL     1       3.689   7.047  17.858  0.00  0.00    +0.000 C 
ATOM     12  C   UNL     1       3.240   8.317  17.816  0.00  0.00    +0.000 C 
ENDROOT
BRANCH  12  13
ATOM     13  C   UNL     1       2.008   8.735  18.387  0.00  0.00    +0.000 A 
ATOM     14  C   UNL     1       0.870   9.184  17.733  0.00  0.00    +0.000 A 
ATOM     15  C   UNL     1      -0.064   9.575  18.717  0.00  0.00    +0.000 A 
ATOM     16  C   UNL     1       0.499   9.291  19.953  0.00  0.00    +0.000 A 
ATOM     17  O   UNL     1       1.752   8.760  19.737  0.00  0.00    +0.000 OA
BRANCH  16  18
ATOM     18  S   UNL     1      -0.142   9.531  21.606  0.00  0.00    +0.000 S 
ATOM     19  O   UNL     1      -0.818  10.805  21.585  0.00  0.00    +0.000 OA
ATOM     20  O   UNL     1      -0.771   8.277  21.975  0.00  0.00    +0.000 OA
BRANCH  18  21
ATOM     21  O   UNL     1       1.225   9.720  22.434  0.00  0.00    +0.000 OA
ATOM     22  H   UNL     1       1.258   9.027  23.126  0.00  0.00    +0.000 HD
ENDBRANCH  18  21
ENDBRANCH  16  18
ENDBRANCH  12  13
BRANCH   3  23
ATOM     23  C   UNL     1       6.399   4.462  17.273  0.00  0.00    +0.000 C 
BRANCH  23  24
ATOM     24  C   UNL     1       7.693   4.542  18.079  0.00  0.00    +0.000 C 
ATOM     25  O   UNL     1       8.723   3.974  17.715  0.00  0.00    +0.000 OA
BRANCH  24  26
ATOM     26  O   UNL     1       7.660   5.284  19.197  0.00  0.00    +0.000 OA
ATOM     27  H   UNL     1       7.855   6.225  19.058  0.00  0.00    +0.000 HD
ENDBRANCH  24  26
ENDBRANCH  23  24
ENDBRANCH   3  23
TORSDOF 6
ENDMDL
