MODEL 1
REMARK VINA RESULT:      -7.9      0.000      0.000
REMARK  Name = 
REMARK  6 active torsions:
REMARK  status: ('A' for Active; 'I' for Inactive)
REMARK    1  A    between atoms: C_2  and  C_3
REMARK    2  A    between atoms: C_7  and  C_8
REMARK    3  A    between atoms: C_10  and  C_11
REMARK    4  A    between atoms: C_11  and  N_12
REMARK    5  A    between atoms: N_15  and  C_16
REMARK    6  A    between atoms: C_22  and  C_23
REMARK                            x       y       z     vdW  Elec       q    Type
REMARK                         _______ _______ _______ _____ _____    ______ ____
ROOT
ATOM      1  N   UNL     1       0.693   9.219  18.851  0.00  0.00    +0.000 NA
ATOM      2  C   UNL     1       0.705   9.280  20.336  0.00  0.00    +0.000 C 
ATOM      3  C   UNL     1       1.053  10.657  20.964  0.00  0.00    +0.000 C 
ATOM      4  N   UNL     1       0.222  11.704  20.350  0.00  0.00    +0.000 N 
ATOM      5  C   UNL     1       0.262  11.726  18.875  0.00  0.00    +0.000 C 
ATOM      6  C   UNL     1      -0.159  10.331  18.353  0.00  0.00    +0.000 C 
ENDROOT
BRANCH   4   7
ATOM      7  C   UNL     1      -0.059  12.883  21.043  0.00  0.00    +0.000 A 
ATOM      8  C   UNL     1       0.942  13.803  21.365  0.00  0.00    +0.000 A 
ATOM      9  C   UNL     1       0.612  14.956  22.048  0.00  0.00    +0.000 A 
ATOM     10  N   UNL     1      -0.636  15.267  22.443  0.00  0.00    +0.000 NA
ATOM     11  C   UNL     1      -1.608  14.379  22.187  0.00  0.00    +0.000 A 
ATOM     12  C   UNL     1      -2.887  14.647  22.662  0.00  0.00    +0.000 A 
ATOM     13  C   UNL     1      -3.972  13.764  22.498  0.00  0.00    +0.000 A 
ATOM     14  C   UNL     1      -3.726  12.579  21.807  0.00  0.00    +0.000 A 
ATOM     15  C   UNL     1      -2.450  12.269  21.366  0.00  0.00    +0.000 A 
ATOM     16  C   UNL     1      -1.377  13.166  21.503  0.00  0.00    +0.000 A 
BRANCH  13  17
ATOM     17  C   UNL     1      -5.298  14.025  23.097  0.00  0.00    +0.000 A 
ATOM     18  C   UNL     1      -6.081  13.003  23.635  0.00  0.00    +0.000 A 
ATOM     19  C   UNL     1      -7.335  13.314  24.138  0.00  0.00    +0.000 A 
ATOM     20  N   UNL     1      -7.855  14.556  24.162  0.00  0.00    +0.000 NA
ATOM     21  C   UNL     1      -7.090  15.535  23.651  0.00  0.00    +0.000 A 
ATOM     22  C   UNL     1      -5.836  15.326  23.114  0.00  0.00    +0.000 A 
ENDBRANCH  13  17
ENDBRANCH   4   7
BRANCH   1  23
ATOM     23  C   UNL     1       2.041   9.328  18.252  0.00  0.00    +0.000 C 
BRANCH  23  26
ATOM     24  C   UNL     1       2.983   5.933  18.012  0.00  0.00    +0.000 A 
ATOM     25  N   UNL     1       2.068   6.820  18.330  0.00  0.00    +0.000 NA
ATOM     26  C   UNL     1       2.705   8.005  18.064  0.00  0.00    +0.000 A 
ATOM     27  N   UNL     1       3.939   7.879  17.553  0.00  0.00    +0.000 NA
ATOM     28  O   UNL     1       4.130   6.493  17.524  0.00  0.00    +0.000 OA
BRANCH  24  33
ATOM     29  C   UNL     1       3.821   2.560  19.421  0.00  0.00    +0.000 A 
ATOM     30  C   UNL     1       3.151   1.706  18.543  0.00  0.00    +0.000 A 
ATOM     31  C   UNL     1       2.368   2.236  17.515  0.00  0.00    +0.000 A 
ATOM     32  C   UNL     1       2.274   3.621  17.345  0.00  0.00    +0.000 A 
ATOM     33  C   UNL     1       2.959   4.490  18.206  0.00  0.00    +0.000 A 
ATOM     34  C   UNL     1       3.707   3.944  19.262  0.00  0.00    +0.000 A 
BRANCH  29  36
ATOM     35  N   UNL     1       5.334   1.583  21.287  0.00  0.00    +0.000 NA
ATOM     36  C   UNL     1       4.654   2.028  20.458  0.00  0.00    +0.000 C 
ENDBRANCH  29  36
ENDBRANCH  24  33
ENDBRANCH  23  26
ENDBRANCH   1  23
TORSDOF 6
ENDMDL
MODEL 2
REMARK VINA RESULT:      -7.5      4.111     10.028
REMARK  Name = 
REMARK  6 active torsions:
REMARK  status: ('A' for Active; 'I' for Inactive)
REMARK    1  A    between atoms: C_2  and  C_3
REMARK    2  A    between atoms: C_7  and  C_8
REMARK    3  A    between atoms: C_10  and  C_11
REMARK    4  A    between atoms: C_11  and  N_12
REMARK    5  A    between atoms: N_15  and  C_16
REMARK    6  A    between atoms: C_22  and  C_23
REMARK                            x       y       z     vdW  Elec       q    Type
REMARK                         _______ _______ _______ _____ _____    ______ ____
ROOT
ATOM      1  N   UNL     1      -0.722  15.133  20.018  0.00  0.00    +0.000 NA
ATOM      2  C   UNL     1      -1.833  14.148  20.101  0.00  0.00    +0.000 C 
ATOM      3  C   UNL     1      -1.435  12.652  19.989  0.00  0.00    +0.000 C 
ATOM      4  N   UNL     1      -0.335  12.362  20.922  0.00  0.00    +0.000 N 
ATOM      5  C   UNL     1       0.823  13.269  20.800  0.00  0.00    +0.000 C 
ATOM      6  C   UNL     1       0.327  14.723  20.988  0.00  0.00    +0.000 C 
ENDROOT
BRANCH   4   7
ATOM      7  C   UNL     1      -0.140  11.067  21.408  0.00  0.00    +0.000 A 
ATOM      8  C   UNL     1      -0.545  10.695  22.692  0.00  0.00    +0.000 A 
ATOM      9  C   UNL     1      -0.332   9.401  23.124  0.00  0.00    +0.000 A 
ATOM     10  N   UNL     1       0.259   8.446  22.382  0.00  0.00    +0.000 NA
ATOM     11  C   UNL     1       0.700   8.791  21.163  0.00  0.00    +0.000 A 
ATOM     12  C   UNL     1       1.386   7.839  20.417  0.00  0.00    +0.000 A 
ATOM     13  C   UNL     1       1.938   8.103  19.149  0.00  0.00    +0.000 A 
ATOM     14  C   UNL     1       1.757   9.386  18.633  0.00  0.00    +0.000 A 
ATOM     15  C   UNL     1       1.118  10.363  19.377  0.00  0.00    +0.000 A 
ATOM     16  C   UNL     1       0.541  10.088  20.629  0.00  0.00    +0.000 A 
BRANCH  13  17
ATOM     17  C   UNL     1       2.749   7.106  18.419  0.00  0.00    +0.000 A 
ATOM     18  C   UNL     1       3.851   7.471  17.645  0.00  0.00    +0.000 A 
ATOM     19  C   UNL     1       4.536   6.487  16.949  0.00  0.00    +0.000 A 
ATOM     20  N   UNL     1       4.222   5.178  16.980  0.00  0.00    +0.000 NA
ATOM     21  C   UNL     1       3.165   4.834  17.736  0.00  0.00    +0.000 A 
ATOM     22  C   UNL     1       2.410   5.740  18.453  0.00  0.00    +0.000 A 
ENDBRANCH  13  17
ENDBRANCH   4   7
BRANCH   1  23
ATOM     23  C   UNL     1      -0.129  15.229  18.666  0.00  0.00    +0.000 C 
BRANCH  23  26
ATOM     24  C   UNL     1       3.246  16.249  18.468  0.00  0.00    +0.000 A 
ATOM     25  N   UNL     1       2.366  15.276  18.406  0.00  0.00    +0.000 NA
ATOM     26  C   UNL     1       1.188  15.930  18.656  0.00  0.00    +0.000 A 
ATOM     27  N   UNL     1       1.304  17.258  18.816  0.00  0.00    +0.000 NA
ATOM     28  O   UNL     1       2.682  17.472  18.697  0.00  0.00    +0.000 OA
BRANCH  24  33
ATOM     29  C   UNL     1       6.672  14.817  17.943  0.00  0.00    +0.000 A 
ATOM     30  C   UNL     1       7.487  15.812  18.487  0.00  0.00    +0.000 A 
ATOM     31  C   UNL     1       6.919  16.989  18.977  0.00  0.00    +0.000 A 
ATOM     32  C   UNL     1       5.531  17.165  18.949  0.00  0.00    +0.000 A 
ATOM     33  C   UNL     1       4.699  16.166  18.426  0.00  0.00    +0.000 A 
ATOM     34  C   UNL     1       5.288  15.006  17.897  0.00  0.00    +0.000 A 
BRANCH  29  36
ATOM     35  N   UNL     1       7.689  12.587  17.095  0.00  0.00    +0.000 NA
ATOM     36  C   UNL     1       7.241  13.591  17.470  0.00  0.00    +0.000 C 
ENDBRANCH  29  36
ENDBRANCH  24  33
ENDBRANCH  23  26
ENDBRANCH   1  23
TORSDOF 6
ENDMDL
MODEL 3
REMARK VINA RESULT:      -7.4      4.505     11.088
REMARK  Name = 
REMARK  6 active torsions:
REMARK  status: ('A' for Active; 'I' for Inactive)
REMARK    1  A    between atoms: C_2  and  C_3
REMARK    2  A    between atoms: C_7  and  C_8
REMARK    3  A    between atoms: C_10  and  C_11
REMARK    4  A    between atoms: C_11  and  N_12
REMARK    5  A    between atoms: N_15  and  C_16
REMARK    6  A    between atoms: C_22  and  C_23
REMARK                            x       y       z     vdW  Elec       q    Type
REMARK                         _______ _______ _______ _____ _____    ______ ____
ROOT
ATOM      1  N   UNL     1       0.163  14.280  18.519  0.00  0.00    +0.000 NA
ATOM      2  C   UNL     1       1.329  13.407  18.221  0.00  0.00    +0.000 C 
ATOM      3  C   UNL     1       1.779  12.450  19.357  0.00  0.00    +0.000 C 
ATOM      4  N   UNL     1       0.616  11.707  19.868  0.00  0.00    +0.000 N 
ATOM      5  C   UNL     1      -0.526  12.557  20.260  0.00  0.00    +0.000 C 
ATOM      6  C   UNL     1      -0.932  13.421  19.042  0.00  0.00    +0.000 C 
ENDROOT
BRANCH   4   7
ATOM      7  C   UNL     1       0.782  10.463  20.480  0.00  0.00    +0.000 A 
ATOM      8  C   UNL     1       0.440  10.250  21.818  0.00  0.00    +0.000 A 
ATOM      9  C   UNL     1       0.620   9.001  22.375  0.00  0.00    +0.000 A 
ATOM     10  N   UNL     1       1.120   7.943  21.710  0.00  0.00    +0.000 NA
ATOM     11  C   UNL     1       1.500   8.133  20.438  0.00  0.00    +0.000 A 
ATOM     12  C   UNL     1       2.095   7.073  19.763  0.00  0.00    +0.000 A 
ATOM     13  C   UNL     1       2.580   7.172  18.444  0.00  0.00    +0.000 A 
ATOM     14  C   UNL     1       2.426   8.400  17.802  0.00  0.00    +0.000 A 
ATOM     15  C   UNL     1       1.879   9.483  18.471  0.00  0.00    +0.000 A 
ATOM     16  C   UNL     1       1.368   9.373  19.775  0.00  0.00    +0.000 A 
BRANCH  13  17
ATOM     17  C   UNL     1       3.298   6.062  17.783  0.00  0.00    +0.000 A 
ATOM     18  C   UNL     1       4.471   6.269  17.055  0.00  0.00    +0.000 A 
ATOM     19  C   UNL     1       5.065   5.188  16.422  0.00  0.00    +0.000 A 
ATOM     20  N   UNL     1       4.594   3.927  16.472  0.00  0.00    +0.000 NA
ATOM     21  C   UNL     1       3.470   3.736  17.183  0.00  0.00    +0.000 A 
ATOM     22  C   UNL     1       2.796   4.748  17.837  0.00  0.00    +0.000 A 
ENDBRANCH  13  17
ENDBRANCH   4   7
BRANCH   1  23
ATOM     23  C   UNL     1       0.467  15.340  19.506  0.00  0.00    +0.000 C 
BRANCH  23  26
ATOM     24  C   UNL     1       3.644  16.860  19.240  0.00  0.00    +0.000 A 
ATOM     25  N   UNL     1       2.844  16.048  19.892  0.00  0.00    +0.000 NA
ATOM     26  C   UNL     1       1.687  16.127  19.159  0.00  0.00    +0.000 A 
ATOM     27  N   UNL     1       1.763  16.906  18.069  0.00  0.00    +0.000 NA
ATOM     28  O   UNL     1       3.070  17.403  18.125  0.00  0.00    +0.000 OA
BRANCH  24  33
ATOM     29  C   UNL     1       7.373  17.243  19.150  0.00  0.00    +0.000 A 
ATOM     30  C   UNL     1       7.620  17.946  20.331  0.00  0.00    +0.000 A 
ATOM     31  C   UNL     1       6.554  18.353  21.137  0.00  0.00    +0.000 A 
ATOM     32  C   UNL     1       5.240  18.035  20.778  0.00  0.00    +0.000 A 
ATOM     33  C   UNL     1       4.979  17.311  19.607  0.00  0.00    +0.000 A 
ATOM     34  C   UNL     1       6.058  16.946  18.784  0.00  0.00    +0.000 A 
BRANCH  29  36
ATOM     35  N   UNL     1       9.342  16.410  17.683  0.00  0.00    +0.000 NA
ATOM     36  C   UNL     1       8.460  16.791  18.334  0.00  0.00    +0.000 C 
ENDBRANCH  29  36
ENDBRANCH  24  33
ENDBRANCH  23  26
ENDBRANCH   1  23
TORSDOF 6
ENDMDL
MODEL 4
REMARK VINA RESULT:      -7.4      4.940      8.952
REMARK  Name = 
REMARK  6 active torsions:
REMARK  status: ('A' for Active; 'I' for Inactive)
REMARK    1  A    between atoms: C_2  and  C_3
REMARK    2  A    between atoms: C_7  and  C_8
REMARK    3  A    between atoms: C_10  and  C_11
REMARK    4  A    between atoms: C_11  and  N_12
REMARK    5  A    between atoms: N_15  and  C_16
REMARK    6  A    between atoms: C_22  and  C_23
REMARK                            x       y       z     vdW  Elec       q    Type
REMARK                         _______ _______ _______ _____ _____    ______ ____
ROOT
ATOM      1  N   UNL     1       6.691   5.287  16.776  0.00  0.00    +0.000 NA
ATOM      2  C   UNL     1       6.753   4.968  18.227  0.00  0.00    +0.000 C 
ATOM      3  C   UNL     1       5.535   5.415  19.081  0.00  0.00    +0.000 C 
ATOM      4  N   UNL     1       4.290   4.961  18.443  0.00  0.00    +0.000 N 
ATOM      5  C   UNL     1       4.159   5.344  17.023  0.00  0.00    +0.000 C 
ATOM      6  C   UNL     1       5.387   4.799  16.254  0.00  0.00    +0.000 C 
ENDROOT
BRANCH   4   7
ATOM      7  C   UNL     1       3.137   4.756  19.203  0.00  0.00    +0.000 A 
ATOM      8  C   UNL     1       2.597   3.481  19.388  0.00  0.00    +0.000 A 
ATOM      9  C   UNL     1       1.456   3.330  20.152  0.00  0.00    +0.000 A 
ATOM     10  N   UNL     1       0.804   4.349  20.743  0.00  0.00    +0.000 NA
ATOM     11  C   UNL     1       1.276   5.588  20.541  0.00  0.00    +0.000 A 
ATOM     12  C   UNL     1       0.567   6.658  21.076  0.00  0.00    +0.000 A 
ATOM     13  C   UNL     1       0.939   8.003  20.885  0.00  0.00    +0.000 A 
ATOM     14  C   UNL     1       2.089   8.243  20.134  0.00  0.00    +0.000 A 
ATOM     15  C   UNL     1       2.784   7.196  19.553  0.00  0.00    +0.000 A 
ATOM     16  C   UNL     1       2.429   5.854  19.771  0.00  0.00    +0.000 A 
BRANCH  13  17
ATOM     17  C   UNL     1       0.114   9.126  21.379  0.00  0.00    +0.000 A 
ATOM     18  C   UNL     1      -0.341  10.138  20.533  0.00  0.00    +0.000 A 
ATOM     19  C   UNL     1      -1.070  11.186  21.075  0.00  0.00    +0.000 A 
ATOM     20  N   UNL     1      -1.392  11.292  22.378  0.00  0.00    +0.000 NA
ATOM     21  C   UNL     1      -0.958  10.307  23.183  0.00  0.00    +0.000 A 
ATOM     22  C   UNL     1      -0.214   9.231  22.744  0.00  0.00    +0.000 A 
ENDBRANCH  13  17
ENDBRANCH   4   7
BRANCH   1  23
ATOM     23  C   UNL     1       6.822   6.732  16.492  0.00  0.00    +0.000 C 
BRANCH  23  26
ATOM     24  C   UNL     1       8.605   9.014  18.513  0.00  0.00    +0.000 A 
ATOM     25  N   UNL     1       7.835   8.810  17.469  0.00  0.00    +0.000 NA
ATOM     26  C   UNL     1       7.664   7.450  17.494  0.00  0.00    +0.000 A 
ATOM     27  N   UNL     1       8.250   6.827  18.529  0.00  0.00    +0.000 NA
ATOM     28  O   UNL     1       8.886   7.872  19.208  0.00  0.00    +0.000 OA
BRANCH  24  33
ATOM     29  C   UNL     1      10.656  12.150  18.346  0.00  0.00    +0.000 A 
ATOM     30  C   UNL     1      10.708  12.533  19.687  0.00  0.00    +0.000 A 
ATOM     31  C   UNL     1      10.017  11.795  20.651  0.00  0.00    +0.000 A 
ATOM     32  C   UNL     1       9.294  10.656  20.280  0.00  0.00    +0.000 A 
ATOM     33  C   UNL     1       9.251  10.247  18.940  0.00  0.00    +0.000 A 
ATOM     34  C   UNL     1       9.915  11.024  17.976  0.00  0.00    +0.000 A 
BRANCH  29  36
ATOM     35  N   UNL     1      11.988  13.453  16.542  0.00  0.00    +0.000 NA
ATOM     36  C   UNL     1      11.389  12.878  17.354  0.00  0.00    +0.000 C 
ENDBRANCH  29  36
ENDBRANCH  24  33
ENDBRANCH  23  26
ENDBRANCH   1  23
TORSDOF 6
ENDMDL
MODEL 5
REMARK VINA RESULT:      -7.4      4.184     10.120
REMARK  Name = 
REMARK  6 active torsions:
REMARK  status: ('A' for Active; 'I' for Inactive)
REMARK    1  A    between atoms: C_2  and  C_3
REMARK    2  A    between atoms: C_7  and  C_8
REMARK    3  A    between atoms: C_10  and  C_11
REMARK    4  A    between atoms: C_11  and  N_12
REMARK    5  A    between atoms: N_15  and  C_16
REMARK    6  A    between atoms: C_22  and  C_23
REMARK                            x       y       z     vdW  Elec       q    Type
REMARK                         _______ _______ _______ _____ _____    ______ ____
ROOT
ATOM      1  N   UNL     1      -0.443  15.002  19.425  0.00  0.00    +0.000 NA
ATOM      2  C   UNL     1       0.271  13.928  18.687  0.00  0.00    +0.000 C 
ATOM      3  C   UNL     1       0.963  12.842  19.554  0.00  0.00    +0.000 C 
ATOM      4  N   UNL     1       0.011  12.324  20.550  0.00  0.00    +0.000 N 
ATOM      5  C   UNL     1      -0.647  13.366  21.363  0.00  0.00    +0.000 C 
ATOM      6  C   UNL     1      -1.354  14.357  20.407  0.00  0.00    +0.000 C 
ENDROOT
BRANCH   4   7
ATOM      7  C   UNL     1       0.167  11.042  21.081  0.00  0.00    +0.000 A 
ATOM      8  C   UNL     1      -0.225  10.735  22.386  0.00  0.00    +0.000 A 
ATOM      9  C   UNL     1      -0.052   9.451  22.863  0.00  0.00    +0.000 A 
ATOM     10  N   UNL     1       0.486   8.446  22.147  0.00  0.00    +0.000 NA
ATOM     11  C   UNL     1       0.913   8.727  20.907  0.00  0.00    +0.000 A 
ATOM     12  C   UNL     1       1.546   7.721  20.185  0.00  0.00    +0.000 A 
ATOM     13  C   UNL     1       2.080   7.916  18.897  0.00  0.00    +0.000 A 
ATOM     14  C   UNL     1       1.937   9.184  18.335  0.00  0.00    +0.000 A 
ATOM     15  C   UNL     1       1.353  10.213  19.054  0.00  0.00    +0.000 A 
ATOM     16  C   UNL     1       0.792  10.008  20.327  0.00  0.00    +0.000 A 
BRANCH  13  17
ATOM     17  C   UNL     1       2.836   6.860  18.190  0.00  0.00    +0.000 A 
ATOM     18  C   UNL     1       2.464   5.516  18.252  0.00  0.00    +0.000 A 
ATOM     19  C   UNL     1       3.247   4.575  17.602  0.00  0.00    +0.000 A 
ATOM     20  N   UNL     1       4.350   4.868  16.887  0.00  0.00    +0.000 NA
ATOM     21  C   UNL     1       4.694   6.166  16.824  0.00  0.00    +0.000 A 
ATOM     22  C   UNL     1       3.990   7.176  17.448  0.00  0.00    +0.000 A 
ENDBRANCH  13  17
ENDBRANCH   4   7
BRANCH   1  23
ATOM     23  C   UNL     1       0.468  15.926  20.135  0.00  0.00    +0.000 C 
BRANCH  23  26
ATOM     24  C   UNL     1       3.667  16.263  18.679  0.00  0.00    +0.000 A 
ATOM     25  N   UNL     1       2.911  15.716  19.603  0.00  0.00    +0.000 NA
ATOM     26  C   UNL     1       1.685  16.270  19.343  0.00  0.00    +0.000 A 
ATOM     27  N   UNL     1       1.649  17.086  18.277  0.00  0.00    +0.000 NA
ATOM     28  O   UNL     1       2.977  17.087  17.836  0.00  0.00    +0.000 OA
BRANCH  24  33
ATOM     29  C   UNL     1       7.047  14.794  17.981  0.00  0.00    +0.000 A 
ATOM     30  C   UNL     1       7.898  15.831  18.366  0.00  0.00    +0.000 A 
ATOM     31  C   UNL     1       7.364  17.046  18.802  0.00  0.00    +0.000 A 
ATOM     32  C   UNL     1       5.978  17.218  18.880  0.00  0.00    +0.000 A 
ATOM     33  C   UNL     1       5.112  16.178  18.517  0.00  0.00    +0.000 A 
ATOM     34  C   UNL     1       5.662  14.977  18.039  0.00  0.00    +0.000 A 
BRANCH  29  36
ATOM     35  N   UNL     1       8.032  12.517  17.227  0.00  0.00    +0.000 NA
ATOM     36  C   UNL     1       7.582  13.532  17.565  0.00  0.00    +0.000 C 
ENDBRANCH  29  36
ENDBRANCH  24  33
ENDBRANCH  23  26
ENDBRANCH   1  23
TORSDOF 6
ENDMDL
MODEL 6
REMARK VINA RESULT:      -7.4      2.871      4.196
REMARK  Name = 
REMARK  6 active torsions:
REMARK  status: ('A' for Active; 'I' for Inactive)
REMARK    1  A    between atoms: C_2  and  C_3
REMARK    2  A    between atoms: C_7  and  C_8
REMARK    3  A    between atoms: C_10  and  C_11
REMARK    4  A    between atoms: C_11  and  N_12
REMARK    5  A    between atoms: N_15  and  C_16
REMARK    6  A    between atoms: C_22  and  C_23
REMARK                            x       y       z     vdW  Elec       q    Type
REMARK                         _______ _______ _______ _____ _____    ______ ____
ROOT
ATOM      1  N   UNL     1       1.793  10.084  18.989  0.00  0.00    +0.000 NA
ATOM      2  C   UNL     1       1.524  11.494  18.604  0.00  0.00    +0.000 C 
ATOM      3  C   UNL     1       0.030  11.904  18.495  0.00  0.00    +0.000 C 
ATOM      4  N   UNL     1      -0.686  11.491  19.712  0.00  0.00    +0.000 N 
ATOM      5  C   UNL     1      -0.511  10.069  20.069  0.00  0.00    +0.000 C 
ATOM      6  C   UNL     1       1.004   9.784  20.213  0.00  0.00    +0.000 C 
ENDROOT
BRANCH   4   7
ATOM      7  C   UNL     1      -1.845  12.157  20.114  0.00  0.00    +0.000 A 
ATOM      8  C   UNL     1      -3.056  11.999  19.435  0.00  0.00    +0.000 A 
ATOM      9  C   UNL     1      -4.175  12.678  19.873  0.00  0.00    +0.000 A 
ATOM     10  N   UNL     1      -4.186  13.508  20.933  0.00  0.00    +0.000 NA
ATOM     11  C   UNL     1      -3.026  13.713  21.574  0.00  0.00    +0.000 A 
ATOM     12  C   UNL     1      -3.003  14.630  22.618  0.00  0.00    +0.000 A 
ATOM     13  C   UNL     1      -1.833  14.964  23.327  0.00  0.00    +0.000 A 
ATOM     14  C   UNL     1      -0.658  14.313  22.954  0.00  0.00    +0.000 A 
ATOM     15  C   UNL     1      -0.647  13.430  21.887  0.00  0.00    +0.000 A 
ATOM     16  C   UNL     1      -1.822  13.076  21.201  0.00  0.00    +0.000 A 
BRANCH  13  17
ATOM     17  C   UNL     1      -1.814  16.014  24.367  0.00  0.00    +0.000 A 
ATOM     18  C   UNL     1      -2.467  17.237  24.196  0.00  0.00    +0.000 A 
ATOM     19  C   UNL     1      -2.366  18.194  25.194  0.00  0.00    +0.000 A 
ATOM     20  N   UNL     1      -1.688  18.022  26.344  0.00  0.00    +0.000 NA
ATOM     21  C   UNL     1      -1.072  16.839  26.504  0.00  0.00    +0.000 A 
ATOM     22  C   UNL     1      -1.099  15.828  25.565  0.00  0.00    +0.000 A 
ENDBRANCH  13  17
ENDBRANCH   4   7
BRANCH   1  23
ATOM     23  C   UNL     1       1.442   9.114  17.930  0.00  0.00    +0.000 C 
BRANCH  23  26
ATOM     24  C   UNL     1       3.955   6.646  17.675  0.00  0.00    +0.000 A 
ATOM     25  N   UNL     1       3.567   7.876  17.430  0.00  0.00    +0.000 NA
ATOM     26  C   UNL     1       2.299   7.892  17.950  0.00  0.00    +0.000 A 
ATOM     27  N   UNL     1       1.918   6.749  18.542  0.00  0.00    +0.000 NA
ATOM     28  O   UNL     1       3.024   5.911  18.353  0.00  0.00    +0.000 OA
BRANCH  24  33
ATOM     29  C   UNL     1       6.312   4.717  15.486  0.00  0.00    +0.000 A 
ATOM     30  C   UNL     1       7.375   4.468  16.356  0.00  0.00    +0.000 A 
ATOM     31  C   UNL     1       7.352   4.985  17.653  0.00  0.00    +0.000 A 
ATOM     32  C   UNL     1       6.253   5.730  18.093  0.00  0.00    +0.000 A 
ATOM     33  C   UNL     1       5.169   5.970  17.238  0.00  0.00    +0.000 A 
ATOM     34  C   UNL     1       5.226   5.481  15.923  0.00  0.00    +0.000 A 
BRANCH  29  36
ATOM     35  N   UNL     1       6.291   3.723  13.091  0.00  0.00    +0.000 NA
ATOM     36  C   UNL     1       6.309   4.164  14.165  0.00  0.00    +0.000 C 
ENDBRANCH  29  36
ENDBRANCH  24  33
ENDBRANCH  23  26
ENDBRANCH   1  23
TORSDOF 6
ENDMDL
MODEL 7
REMARK VINA RESULT:      -7.3      4.997      9.974
REMARK  Name = 
REMARK  6 active torsions:
REMARK  status: ('A' for Active; 'I' for Inactive)
REMARK    1  A    between atoms: C_2  and  C_3
REMARK    2  A    between atoms: C_7  and  C_8
REMARK    3  A    between atoms: C_10  and  C_11
REMARK    4  A    between atoms: C_11  and  N_12
REMARK    5  A    between atoms: N_15  and  C_16
REMARK    6  A    between atoms: C_22  and  C_23
REMARK                            x       y       z     vdW  Elec       q    Type
REMARK                         _______ _______ _______ _____ _____    ______ ____
ROOT
ATOM      1  N   UNL     1       1.676  15.530  18.991  0.00  0.00    +0.000 NA
ATOM      2  C   UNL     1       0.330  14.918  18.838  0.00  0.00    +0.000 C 
ATOM      3  C   UNL     1       0.279  13.366  18.818  0.00  0.00    +0.000 C 
ATOM      4  N   UNL     1       1.029  12.832  19.965  0.00  0.00    +0.000 N 
ATOM      5  C   UNL     1       2.405  13.353  20.090  0.00  0.00    +0.000 C 
ATOM      6  C   UNL     1       2.337  14.898  20.164  0.00  0.00    +0.000 C 
ENDROOT
BRANCH   4   7
ATOM      7  C   UNL     1       0.728  11.572  20.485  0.00  0.00    +0.000 A 
ATOM      8  C   UNL     1      -0.004  11.419  21.666  0.00  0.00    +0.000 A 
ATOM      9  C   UNL     1      -0.278  10.151  22.137  0.00  0.00    +0.000 A 
ATOM     10  N   UNL     1       0.122   9.018  21.530  0.00  0.00    +0.000 NA
ATOM     11  C   UNL     1       0.865   9.138  20.420  0.00  0.00    +0.000 A 
ATOM     12  C   UNL     1       1.356   7.979  19.828  0.00  0.00    +0.000 A 
ATOM     13  C   UNL     1       2.189   7.986  18.692  0.00  0.00    +0.000 A 
ATOM     14  C   UNL     1       2.506   9.229  18.145  0.00  0.00    +0.000 A 
ATOM     15  C   UNL     1       2.067  10.398  18.745  0.00  0.00    +0.000 A 
ATOM     16  C   UNL     1       1.211  10.387  19.860  0.00  0.00    +0.000 A 
BRANCH  13  17
ATOM     17  C   UNL     1       2.779   6.748  18.140  0.00  0.00    +0.000 A 
ATOM     18  C   UNL     1       4.025   6.739  17.510  0.00  0.00    +0.000 A 
ATOM     19  C   UNL     1       4.494   5.550  16.974  0.00  0.00    +0.000 A 
ATOM     20  N   UNL     1       3.834   4.378  17.033  0.00  0.00    +0.000 NA
ATOM     21  C   UNL     1       2.640   4.394  17.650  0.00  0.00    +0.000 A 
ATOM     22  C   UNL     1       2.079   5.528  18.203  0.00  0.00    +0.000 A 
ENDBRANCH  13  17
ENDBRANCH   4   7
BRANCH   1  23
ATOM     23  C   UNL     1       2.532  15.360  17.797  0.00  0.00    +0.000 C 
BRANCH  23  26
ATOM     24  C   UNL     1       6.039  15.676  18.067  0.00  0.00    +0.000 A 
ATOM     25  N   UNL     1       5.006  14.940  17.730  0.00  0.00    +0.000 NA
ATOM     26  C   UNL     1       3.950  15.761  18.034  0.00  0.00    +0.000 A 
ATOM     27  N   UNL     1       4.294  16.976  18.489  0.00  0.00    +0.000 NA
ATOM     28  O   UNL     1       5.692  16.919  18.518  0.00  0.00    +0.000 OA
BRANCH  24  33
ATOM     29  C   UNL     1       9.105  13.557  18.488  0.00  0.00    +0.000 A 
ATOM     30  C   UNL     1      10.125  14.509  18.420  0.00  0.00    +0.000 A 
ATOM     31  C   UNL     1       9.815  15.848  18.174  0.00  0.00    +0.000 A 
ATOM     32  C   UNL     1       8.482  16.245  18.022  0.00  0.00    +0.000 A 
ATOM     33  C   UNL     1       7.446  15.305  18.110  0.00  0.00    +0.000 A 
ATOM     34  C   UNL     1       7.776  13.955  18.314  0.00  0.00    +0.000 A 
BRANCH  29  36
ATOM     35  N   UNL     1       9.650  11.079  19.023  0.00  0.00    +0.000 NA
ATOM     36  C   UNL     1       9.408  12.187  18.773  0.00  0.00    +0.000 C 
ENDBRANCH  29  36
ENDBRANCH  24  33
ENDBRANCH  23  26
ENDBRANCH   1  23
TORSDOF 6
ENDMDL
MODEL 8
REMARK VINA RESULT:      -7.2      2.094      2.929
REMARK  Name = 
REMARK  6 active torsions:
REMARK  status: ('A' for Active; 'I' for Inactive)
REMARK    1  A    between atoms: C_2  and  C_3
REMARK    2  A    between atoms: C_7  and  C_8
REMARK    3  A    between atoms: C_10  and  C_11
REMARK    4  A    between atoms: C_11  and  N_12
REMARK    5  A    between atoms: N_15  and  C_16
REMARK    6  A    between atoms: C_22  and  C_23
REMARK                            x       y       z     vdW  Elec       q    Type
REMARK                         _______ _______ _______ _____ _____    ______ ____
ROOT
ATOM      1  N   UNL     1       1.495  10.180  19.103  0.00  0.00    +0.000 NA
ATOM      2  C   UNL     1       1.088  11.610  19.081  0.00  0.00    +0.000 C 
ATOM      3  C   UNL     1      -0.162  11.955  18.227  0.00  0.00    +0.000 C 
ATOM      4  N   UNL     1      -1.265  11.045  18.575  0.00  0.00    +0.000 N 
ATOM      5  C   UNL     1      -0.915   9.612  18.516  0.00  0.00    +0.000 C 
ATOM      6  C   UNL     1       0.298   9.367  19.446  0.00  0.00    +0.000 C 
ENDROOT
BRANCH   4   7
ATOM      7  C   UNL     1      -2.592  11.432  18.377  0.00  0.00    +0.000 A 
ATOM      8  C   UNL     1      -3.256  11.193  17.171  0.00  0.00    +0.000 A 
ATOM      9  C   UNL     1      -4.569  11.592  17.027  0.00  0.00    +0.000 A 
ATOM     10  N   UNL     1      -5.277  12.217  17.985  0.00  0.00    +0.000 NA
ATOM     11  C   UNL     1      -4.649  12.500  19.136  0.00  0.00    +0.000 A 
ATOM     12  C   UNL     1      -5.341  13.218  20.105  0.00  0.00    +0.000 A 
ATOM     13  C   UNL     1      -4.767  13.616  21.328  0.00  0.00    +0.000 A 
ATOM     14  C   UNL     1      -3.444  13.242  21.559  0.00  0.00    +0.000 A 
ATOM     15  C   UNL     1      -2.720  12.567  20.589  0.00  0.00    +0.000 A 
ATOM     16  C   UNL     1      -3.305  12.144  19.383  0.00  0.00    +0.000 A 
BRANCH  13  17
ATOM     17  C   UNL     1      -5.490  14.464  22.299  0.00  0.00    +0.000 A 
ATOM     18  C   UNL     1      -6.784  14.162  22.726  0.00  0.00    +0.000 A 
ATOM     19  C   UNL     1      -7.419  15.028  23.602  0.00  0.00    +0.000 A 
ATOM     20  N   UNL     1      -6.863  16.150  24.096  0.00  0.00    +0.000 NA
ATOM     21  C   UNL     1      -5.613  16.428  23.687  0.00  0.00    +0.000 A 
ATOM     22  C   UNL     1      -4.902  15.638  22.806  0.00  0.00    +0.000 A 
ENDBRANCH  13  17
ENDBRANCH   4   7
BRANCH   1  23
ATOM     23  C   UNL     1       2.051   9.713  17.815  0.00  0.00    +0.000 C 
BRANCH  23  26
ATOM     24  C   UNL     1       2.586   6.228  18.020  0.00  0.00    +0.000 A 
ATOM     25  N   UNL     1       1.742   7.234  18.052  0.00  0.00    +0.000 NA
ATOM     26  C   UNL     1       2.568   8.314  17.875  0.00  0.00    +0.000 A 
ATOM     27  N   UNL     1       3.862   8.010  17.688  0.00  0.00    +0.000 NA
ATOM     28  O   UNL     1       3.876   6.614  17.791  0.00  0.00    +0.000 OA
BRANCH  24  33
ATOM     29  C   UNL     1       1.852   3.094  19.945  0.00  0.00    +0.000 A 
ATOM     30  C   UNL     1       2.031   2.109  18.971  0.00  0.00    +0.000 A 
ATOM     31  C   UNL     1       2.336   2.473  17.658  0.00  0.00    +0.000 A 
ATOM     32  C   UNL     1       2.489   3.821  17.319  0.00  0.00    +0.000 A 
ATOM     33  C   UNL     1       2.334   4.820  18.290  0.00  0.00    +0.000 A 
ATOM     34  C   UNL     1       1.984   4.441  19.598  0.00  0.00    +0.000 A 
BRANCH  29  36
ATOM     35  N   UNL     1       1.337   2.423  22.396  0.00  0.00    +0.000 NA
ATOM     36  C   UNL     1       1.573   2.731  21.302  0.00  0.00    +0.000 C 
ENDBRANCH  29  36
ENDBRANCH  24  33
ENDBRANCH  23  26
ENDBRANCH   1  23
TORSDOF 6
ENDMDL
MODEL 9
REMARK VINA RESULT:      -7.2      3.850      5.961
REMARK  Name = 
REMARK  6 active torsions:
REMARK  status: ('A' for Active; 'I' for Inactive)
REMARK    1  A    between atoms: C_2  and  C_3
REMARK    2  A    between atoms: C_7  and  C_8
REMARK    3  A    between atoms: C_10  and  C_11
REMARK    4  A    between atoms: C_11  and  N_12
REMARK    5  A    between atoms: N_15  and  C_16
REMARK    6  A    between atoms: C_22  and  C_23
REMARK                            x       y       z     vdW  Elec       q    Type
REMARK                         _______ _______ _______ _____ _____    ______ ____
ROOT
ATOM      1  N   UNL     1       2.582   6.260  18.396  0.00  0.00    +0.000 NA
ATOM      2  C   UNL     1       1.917   5.897  19.675  0.00  0.00    +0.000 C 
ATOM      3  C   UNL     1       1.891   6.996  20.772  0.00  0.00    +0.000 C 
ATOM      4  N   UNL     1       1.392   8.255  20.199  0.00  0.00    +0.000 N 
ATOM      5  C   UNL     1       2.097   8.690  18.977  0.00  0.00    +0.000 C 
ATOM      6  C   UNL     1       2.009   7.551  17.931  0.00  0.00    +0.000 C 
ENDROOT
BRANCH   4   7
ATOM      7  C   UNL     1       0.784   9.213  21.013  0.00  0.00    +0.000 A 
ATOM      8  C   UNL     1       0.132   8.864  22.198  0.00  0.00    +0.000 A 
ATOM      9  C   UNL     1      -0.451   9.849  22.969  0.00  0.00    +0.000 A 
ATOM     10  N   UNL     1      -0.443  11.158  22.654  0.00  0.00    +0.000 NA
ATOM     11  C   UNL     1       0.137  11.514  21.498  0.00  0.00    +0.000 A 
ATOM     12  C   UNL     1       0.081  12.850  21.117  0.00  0.00    +0.000 A 
ATOM     13  C   UNL     1       0.608  13.329  19.903  0.00  0.00    +0.000 A 
ATOM     14  C   UNL     1       1.226  12.399  19.068  0.00  0.00    +0.000 A 
ATOM     15  C   UNL     1       1.252  11.056  19.404  0.00  0.00    +0.000 A 
ATOM     16  C   UNL     1       0.753  10.585  20.631  0.00  0.00    +0.000 A 
BRANCH  13  17
ATOM     17  C   UNL     1       0.449  14.735  19.475  0.00  0.00    +0.000 A 
ATOM     18  C   UNL     1      -0.761  15.418  19.611  0.00  0.00    +0.000 A 
ATOM     19  C   UNL     1      -0.850  16.721  19.144  0.00  0.00    +0.000 A 
ATOM     20  N   UNL     1       0.167  17.394  18.575  0.00  0.00    +0.000 NA
ATOM     21  C   UNL     1       1.331  16.732  18.458  0.00  0.00    +0.000 A 
ATOM     22  C   UNL     1       1.517  15.430  18.877  0.00  0.00    +0.000 A 
ENDBRANCH  13  17
ENDBRANCH   4   7
BRANCH   1  23
ATOM     23  C   UNL     1       4.050   6.393  18.520  0.00  0.00    +0.000 C 
BRANCH  23  26
ATOM     24  C   UNL     1       5.803   4.967  15.806  0.00  0.00    +0.000 A 
ATOM     25  N   UNL     1       5.166   6.000  16.307  0.00  0.00    +0.000 NA
ATOM     26  C   UNL     1       4.797   5.544  17.546  0.00  0.00    +0.000 A 
ATOM     27  N   UNL     1       5.223   4.305  17.840  0.00  0.00    +0.000 NA
ATOM     28  O   UNL     1       5.891   3.915  16.674  0.00  0.00    +0.000 OA
BRANCH  24  33
ATOM     29  C   UNL     1       6.332   3.431  12.426  0.00  0.00    +0.000 A 
ATOM     30  C   UNL     1       7.382   4.201  11.920  0.00  0.00    +0.000 A 
ATOM     31  C   UNL     1       7.883   5.272  12.664  0.00  0.00    +0.000 A 
ATOM     32  C   UNL     1       7.356   5.559  13.927  0.00  0.00    +0.000 A 
ATOM     33  C   UNL     1       6.317   4.781  14.457  0.00  0.00    +0.000 A 
ATOM     34  C   UNL     1       5.793   3.735  13.679  0.00  0.00    +0.000 A 
BRANCH  29  36
ATOM     35  N   UNL     1       5.437   1.390  11.101  0.00  0.00    +0.000 NA
ATOM     36  C   UNL     1       5.833   2.310  11.688  0.00  0.00    +0.000 C 
ENDBRANCH  29  36
ENDBRANCH  24  33
ENDBRANCH  23  26
ENDBRANCH   1  23
TORSDOF 6
ENDMDL
