MODEL 1
REMARK VINA RESULT:      -7.9      0.000      0.000
REMARK  Name = 
REMARK  11 active torsions:
REMARK  status: ('A' for Active; 'I' for Inactive)
REMARK    1  A    between atoms: C_1  and  O_2
REMARK    2  A    between atoms: O_2  and  C_3
REMARK    3  A    between atoms: C_6  and  C_7
REMARK    4  A    between atoms: C_12  and  N_13
REMARK    5  A    between atoms: N_13  and  C_14
REMARK    6  A    between atoms: C_14  and  C_15
REMARK    7  A    between atoms: C_15  and  C_16
REMARK    8  A    between atoms: C_16  and  N_17
REMARK    9  A    between atoms: C_20  and  C_21
REMARK   10  A    between atoms: C_24  and  O_25
REMARK   11  A    between atoms: O_25  and  C_26
REMARK                            x       y       z     vdW  Elec       q    Type
REMARK                         _______ _______ _______ _____ _____    ______ ____
ROOT
ATOM      1  C   UNL     1       3.320   3.936  19.060  0.00  0.00    +0.000 A 
ATOM      2  C   UNL     1       2.791   2.626  19.203  0.00  0.00    +0.000 A 
ATOM      3  C   UNL     1       1.694   2.336  20.015  0.00  0.00    +0.000 A 
ATOM      4  C   UNL     1       1.090   3.348  20.731  0.00  0.00    +0.000 A 
ATOM      5  C   UNL     1       1.599   4.640  20.647  0.00  0.00    +0.000 A 
ATOM      6  C   UNL     1       2.715   4.964  19.843  0.00  0.00    +0.000 A 
ENDROOT
BRANCH   1  10
ATOM      7  C   UNL     1       6.462   4.811  16.176  0.00  0.00    +0.000 A 
ATOM      8  C   UNL     1       5.219   4.329  15.764  0.00  0.00    +0.000 A 
ATOM      9  C   UNL     1       4.215   4.055  16.694  0.00  0.00    +0.000 A 
ATOM     10  C   UNL     1       4.436   4.150  18.081  0.00  0.00    +0.000 A 
ATOM     11  C   UNL     1       5.751   4.464  18.461  0.00  0.00    +0.000 A 
ATOM     12  C   UNL     1       6.752   4.833  17.545  0.00  0.00    +0.000 A 
BRANCH   7  14
ATOM     13  C   UNL     1       7.135   4.808  13.912  0.00  0.00    +0.000 C 
ATOM     14  O   UNL     1       7.391   5.222  15.257  0.00  0.00    +0.000 OA
ENDBRANCH   7  14
BRANCH  12  15
ATOM     15  O   UNL     1       7.914   5.194  18.172  0.00  0.00    +0.000 OA
ATOM     16  C   UNL     1       7.850   5.707  19.492  0.00  0.00    +0.000 C 
ENDBRANCH  12  15
ENDBRANCH   1  10
BRANCH   6  17
ATOM     17  N   UNL     1       3.196   6.299  19.814  0.00  0.00    +0.000 N 
ATOM     18  H   UNL     1       4.060   6.340  19.272  0.00  0.00    +0.000 HD
BRANCH  17  19
ATOM     19  C   UNL     1       2.246   7.362  19.512  0.00  0.00    +0.000 C 
BRANCH  19  20
ATOM     20  C   UNL     1       2.241   7.734  18.033  0.00  0.00    +0.000 C 
BRANCH  20  21
ATOM     21  C   UNL     1       2.174   9.259  17.936  0.00  0.00    +0.000 C 
BRANCH  21  22
ATOM     22  N   UNL     1       0.960   9.837  18.459  0.00  0.00    +0.000 N 
ATOM     23  C   UNL     1       0.864  10.623  19.570  0.00  0.00    +0.000 A 
ATOM     24  N   UNL     1      -0.347  11.110  19.707  0.00  0.00    +0.000 NA
ATOM     25  C   UNL     1      -1.061  10.627  18.636  0.00  0.00    +0.000 A 
ATOM     26  C   UNL     1      -2.478  10.993  18.439  0.00  0.00    +0.000 C 
ATOM     27  C   UNL     1      -0.262   9.826  17.849  0.00  0.00    +0.000 A 
ENDBRANCH  21  22
ENDBRANCH  20  21
ENDBRANCH  19  20
ENDBRANCH  17  19
ENDBRANCH   6  17
TORSDOF 8
ENDMDL
MODEL 2
REMARK VINA RESULT:      -7.9      1.076      1.438
REMARK  Name = 
REMARK  11 active torsions:
REMARK  status: ('A' for Active; 'I' for Inactive)
REMARK    1  A    between atoms: C_1  and  O_2
REMARK    2  A    between atoms: O_2  and  C_3
REMARK    3  A    between atoms: C_6  and  C_7
REMARK    4  A    between atoms: C_12  and  N_13
REMARK    5  A    between atoms: N_13  and  C_14
REMARK    6  A    between atoms: C_14  and  C_15
REMARK    7  A    between atoms: C_15  and  C_16
REMARK    8  A    between atoms: C_16  and  N_17
REMARK    9  A    between atoms: C_20  and  C_21
REMARK   10  A    between atoms: C_24  and  O_25
REMARK   11  A    between atoms: O_25  and  C_26
REMARK                            x       y       z     vdW  Elec       q    Type
REMARK                         _______ _______ _______ _____ _____    ______ ____
ROOT
ATOM      1  C   UNL     1       3.191   3.883  19.088  0.00  0.00    +0.000 A 
ATOM      2  C   UNL     1       2.588   2.609  19.260  0.00  0.00    +0.000 A 
ATOM      3  C   UNL     1       1.429   2.415  20.012  0.00  0.00    +0.000 A 
ATOM      4  C   UNL     1       0.833   3.491  20.637  0.00  0.00    +0.000 A 
ATOM      5  C   UNL     1       1.412   4.751  20.523  0.00  0.00    +0.000 A 
ATOM      6  C   UNL     1       2.592   4.979  19.778  0.00  0.00    +0.000 A 
ENDROOT
BRANCH   1  10
ATOM      7  C   UNL     1       6.550   4.455  16.377  0.00  0.00    +0.000 A 
ATOM      8  C   UNL     1       5.311   4.017  15.908  0.00  0.00    +0.000 A 
ATOM      9  C   UNL     1       4.237   3.839  16.782  0.00  0.00    +0.000 A 
ATOM     10  C   UNL     1       4.376   3.992  18.174  0.00  0.00    +0.000 A 
ATOM     11  C   UNL     1       5.680   4.258  18.624  0.00  0.00    +0.000 A 
ATOM     12  C   UNL     1       6.754   4.530  17.759  0.00  0.00    +0.000 A 
BRANCH   7  14
ATOM     13  C   UNL     1       7.147   4.911  14.137  0.00  0.00    +0.000 C 
ATOM     14  O   UNL     1       7.555   4.772  15.502  0.00  0.00    +0.000 OA
ENDBRANCH   7  14
BRANCH  12  15
ATOM     15  O   UNL     1       7.892   4.862  18.443  0.00  0.00    +0.000 OA
ATOM     16  C   UNL     1       8.026   6.177  18.954  0.00  0.00    +0.000 C 
ENDBRANCH  12  15
ENDBRANCH   1  10
BRANCH   6  17
ATOM     17  N   UNL     1       3.141   6.286  19.716  0.00  0.00    +0.000 N 
ATOM     18  H   UNL     1       4.049   6.299  20.183  0.00  0.00    +0.000 HD
BRANCH  17  19
ATOM     19  C   UNL     1       3.115   6.978  18.434  0.00  0.00    +0.000 C 
BRANCH  19  20
ATOM     20  C   UNL     1       1.750   7.587  18.130  0.00  0.00    +0.000 C 
BRANCH  20  21
ATOM     21  C   UNL     1       1.840   9.090  18.400  0.00  0.00    +0.000 C 
BRANCH  21  22
ATOM     22  N   UNL     1       1.046   9.544  19.517  0.00  0.00    +0.000 N 
ATOM     23  C   UNL     1       0.089  10.514  19.473  0.00  0.00    +0.000 A 
ATOM     24  N   UNL     1      -0.555  10.602  20.614  0.00  0.00    +0.000 NA
ATOM     25  C   UNL     1       0.005   9.644  21.426  0.00  0.00    +0.000 A 
ATOM     26  C   UNL     1      -0.491   9.428  22.800  0.00  0.00    +0.000 C 
ATOM     27  C   UNL     1       1.010   8.977  20.759  0.00  0.00    +0.000 A 
ENDBRANCH  21  22
ENDBRANCH  20  21
ENDBRANCH  19  20
ENDBRANCH  17  19
ENDBRANCH   6  17
TORSDOF 8
ENDMDL
MODEL 3
REMARK VINA RESULT:      -7.6      1.530      1.851
REMARK  Name = 
REMARK  11 active torsions:
REMARK  status: ('A' for Active; 'I' for Inactive)
REMARK    1  A    between atoms: C_1  and  O_2
REMARK    2  A    between atoms: O_2  and  C_3
REMARK    3  A    between atoms: C_6  and  C_7
REMARK    4  A    between atoms: C_12  and  N_13
REMARK    5  A    between atoms: N_13  and  C_14
REMARK    6  A    between atoms: C_14  and  C_15
REMARK    7  A    between atoms: C_15  and  C_16
REMARK    8  A    between atoms: C_16  and  N_17
REMARK    9  A    between atoms: C_20  and  C_21
REMARK   10  A    between atoms: C_24  and  O_25
REMARK   11  A    between atoms: O_25  and  C_26
REMARK                            x       y       z     vdW  Elec       q    Type
REMARK                         _______ _______ _______ _____ _____    ______ ____
ROOT
ATOM      1  C   UNL     1       3.036   3.871  19.006  0.00  0.00    +0.000 A 
ATOM      2  C   UNL     1       2.424   2.590  18.974  0.00  0.00    +0.000 A 
ATOM      3  C   UNL     1       1.279   2.278  19.709  0.00  0.00    +0.000 A 
ATOM      4  C   UNL     1       0.708   3.237  20.521  0.00  0.00    +0.000 A 
ATOM      5  C   UNL     1       1.298   4.494  20.609  0.00  0.00    +0.000 A 
ATOM      6  C   UNL     1       2.463   4.837  19.886  0.00  0.00    +0.000 A 
ENDROOT
BRANCH   1  10
ATOM      7  C   UNL     1       6.343   4.874  16.358  0.00  0.00    +0.000 A 
ATOM      8  C   UNL     1       5.084   4.552  15.849  0.00  0.00    +0.000 A 
ATOM      9  C   UNL     1       4.027   4.235  16.705  0.00  0.00    +0.000 A 
ATOM     10  C   UNL     1       4.201   4.125  18.097  0.00  0.00    +0.000 A 
ATOM     11  C   UNL     1       5.521   4.281  18.553  0.00  0.00    +0.000 A 
ATOM     12  C   UNL     1       6.581   4.689  17.724  0.00  0.00    +0.000 A 
BRANCH   7  14
ATOM     13  C   UNL     1       7.198   4.950  14.157  0.00  0.00    +0.000 C 
ATOM     14  O   UNL     1       7.334   5.330  15.530  0.00  0.00    +0.000 OA
ENDBRANCH   7  14
BRANCH  12  15
ATOM     15  O   UNL     1       7.742   4.869  18.427  0.00  0.00    +0.000 OA
ATOM     16  C   UNL     1       7.985   6.124  19.039  0.00  0.00    +0.000 C 
ENDBRANCH  12  15
ENDBRANCH   1  10
BRANCH   6  17
ATOM     17  N   UNL     1       3.024   6.133  20.033  0.00  0.00    +0.000 N 
ATOM     18  H   UNL     1       4.029   6.054  20.200  0.00  0.00    +0.000 HD
BRANCH  17  19
ATOM     19  C   UNL     1       2.655   7.152  19.060  0.00  0.00    +0.000 C 
BRANCH  19  20
ATOM     20  C   UNL     1       1.479   8.004  19.530  0.00  0.00    +0.000 C 
BRANCH  20  21
ATOM     21  C   UNL     1       1.633   8.220  21.036  0.00  0.00    +0.000 C 
BRANCH  21  22
ATOM     22  N   UNL     1       0.804   9.273  21.575  0.00  0.00    +0.000 N 
ATOM     23  C   UNL     1       0.379   9.370  22.867  0.00  0.00    +0.000 A 
ATOM     24  N   UNL     1      -0.238  10.509  23.081  0.00  0.00    +0.000 NA
ATOM     25  C   UNL     1      -0.202  11.178  21.880  0.00  0.00    +0.000 A 
ATOM     26  C   UNL     1      -0.785  12.529  21.745  0.00  0.00    +0.000 C 
ATOM     27  C   UNL     1       0.440  10.419  20.927  0.00  0.00    +0.000 A 
ENDBRANCH  21  22
ENDBRANCH  20  21
ENDBRANCH  19  20
ENDBRANCH  17  19
ENDBRANCH   6  17
TORSDOF 8
ENDMDL
MODEL 4
REMARK VINA RESULT:      -7.6      1.193      1.410
REMARK  Name = 
REMARK  11 active torsions:
REMARK  status: ('A' for Active; 'I' for Inactive)
REMARK    1  A    between atoms: C_1  and  O_2
REMARK    2  A    between atoms: O_2  and  C_3
REMARK    3  A    between atoms: C_6  and  C_7
REMARK    4  A    between atoms: C_12  and  N_13
REMARK    5  A    between atoms: N_13  and  C_14
REMARK    6  A    between atoms: C_14  and  C_15
REMARK    7  A    between atoms: C_15  and  C_16
REMARK    8  A    between atoms: C_16  and  N_17
REMARK    9  A    between atoms: C_20  and  C_21
REMARK   10  A    between atoms: C_24  and  O_25
REMARK   11  A    between atoms: O_25  and  C_26
REMARK                            x       y       z     vdW  Elec       q    Type
REMARK                         _______ _______ _______ _____ _____    ______ ____
ROOT
ATOM      1  C   UNL     1       3.403   4.076  19.323  0.00  0.00    +0.000 A 
ATOM      2  C   UNL     1       3.139   2.743  19.735  0.00  0.00    +0.000 A 
ATOM      3  C   UNL     1       2.093   2.409  20.596  0.00  0.00    +0.000 A 
ATOM      4  C   UNL     1       1.274   3.402  21.091  0.00  0.00    +0.000 A 
ATOM      5  C   UNL     1       1.520   4.726  20.740  0.00  0.00    +0.000 A 
ATOM      6  C   UNL     1       2.578   5.099  19.881  0.00  0.00    +0.000 A 
ENDROOT
BRANCH   1  10
ATOM      7  C   UNL     1       6.442   4.992  16.343  0.00  0.00    +0.000 A 
ATOM      8  C   UNL     1       5.229   4.405  15.979  0.00  0.00    +0.000 A 
ATOM      9  C   UNL     1       4.258   4.118  16.940  0.00  0.00    +0.000 A 
ATOM     10  C   UNL     1       4.489   4.308  18.315  0.00  0.00    +0.000 A 
ATOM     11  C   UNL     1       5.785   4.732  18.655  0.00  0.00    +0.000 A 
ATOM     12  C   UNL     1       6.746   5.114  17.703  0.00  0.00    +0.000 A 
BRANCH   7  14
ATOM     13  C   UNL     1       7.142   4.830  14.092  0.00  0.00    +0.000 C 
ATOM     14  O   UNL     1       7.329   5.411  15.387  0.00  0.00    +0.000 OA
ENDBRANCH   7  14
BRANCH  12  15
ATOM     15  O   UNL     1       7.889   5.587  18.290  0.00  0.00    +0.000 OA
ATOM     16  C   UNL     1       8.023   6.982  18.502  0.00  0.00    +0.000 C 
ENDBRANCH  12  15
ENDBRANCH   1  10
BRANCH   6  17
ATOM     17  N   UNL     1       2.785   6.469  19.575  0.00  0.00    +0.000 N 
ATOM     18  H   UNL     1       3.764   6.711  19.732  0.00  0.00    +0.000 HD
BRANCH  17  19
ATOM     19  C   UNL     1       2.231   6.983  18.330  0.00  0.00    +0.000 C 
BRANCH  19  20
ATOM     20  C   UNL     1       2.683   8.411  18.039  0.00  0.00    +0.000 C 
BRANCH  20  21
ATOM     21  C   UNL     1       1.430   9.268  17.852  0.00  0.00    +0.000 C 
BRANCH  21  22
ATOM     22  N   UNL     1       1.143  10.154  18.955  0.00  0.00    +0.000 N 
ATOM     23  C   UNL     1       0.787   9.771  20.214  0.00  0.00    +0.000 A 
ATOM     24  N   UNL     1       0.732  10.800  21.028  0.00  0.00    +0.000 NA
ATOM     25  C   UNL     1       1.076  11.891  20.265  0.00  0.00    +0.000 A 
ATOM     26  C   UNL     1       1.151  13.241  20.859  0.00  0.00    +0.000 C 
ATOM     27  C   UNL     1       1.331  11.507  18.966  0.00  0.00    +0.000 A 
ENDBRANCH  21  22
ENDBRANCH  20  21
ENDBRANCH  19  20
ENDBRANCH  17  19
ENDBRANCH   6  17
TORSDOF 8
ENDMDL
MODEL 5
REMARK VINA RESULT:      -7.5      1.130      1.264
REMARK  Name = 
REMARK  11 active torsions:
REMARK  status: ('A' for Active; 'I' for Inactive)
REMARK    1  A    between atoms: C_1  and  O_2
REMARK    2  A    between atoms: O_2  and  C_3
REMARK    3  A    between atoms: C_6  and  C_7
REMARK    4  A    between atoms: C_12  and  N_13
REMARK    5  A    between atoms: N_13  and  C_14
REMARK    6  A    between atoms: C_14  and  C_15
REMARK    7  A    between atoms: C_15  and  C_16
REMARK    8  A    between atoms: C_16  and  N_17
REMARK    9  A    between atoms: C_20  and  C_21
REMARK   10  A    between atoms: C_24  and  O_25
REMARK   11  A    between atoms: O_25  and  C_26
REMARK                            x       y       z     vdW  Elec       q    Type
REMARK                         _______ _______ _______ _____ _____    ______ ____
ROOT
ATOM      1  C   UNL     1       3.404   3.958  19.125  0.00  0.00    +0.000 A 
ATOM      2  C   UNL     1       3.488   2.838  19.994  0.00  0.00    +0.000 A 
ATOM      3  C   UNL     1       2.475   2.496  20.890  0.00  0.00    +0.000 A 
ATOM      4  C   UNL     1       1.339   3.275  20.964  0.00  0.00    +0.000 A 
ATOM      5  C   UNL     1       1.232   4.402  20.156  0.00  0.00    +0.000 A 
ATOM      6  C   UNL     1       2.244   4.782  19.245  0.00  0.00    +0.000 A 
ENDROOT
BRANCH   1  10
ATOM      7  C   UNL     1       6.470   4.802  16.151  0.00  0.00    +0.000 A 
ATOM      8  C   UNL     1       5.327   4.074  15.821  0.00  0.00    +0.000 A 
ATOM      9  C   UNL     1       4.345   3.810  16.779  0.00  0.00    +0.000 A 
ATOM     10  C   UNL     1       4.506   4.171  18.130  0.00  0.00    +0.000 A 
ATOM     11  C   UNL     1       5.747   4.743  18.457  0.00  0.00    +0.000 A 
ATOM     12  C   UNL     1       6.709   5.100  17.497  0.00  0.00    +0.000 A 
BRANCH   7  14
ATOM     13  C   UNL     1       7.004   4.795  13.850  0.00  0.00    +0.000 C 
ATOM     14  O   UNL     1       7.355   5.189  15.180  0.00  0.00    +0.000 OA
ENDBRANCH   7  14
BRANCH  12  15
ATOM     15  O   UNL     1       7.784   5.735  18.060  0.00  0.00    +0.000 OA
ATOM     16  C   UNL     1       7.888   5.786  19.472  0.00  0.00    +0.000 C 
ENDBRANCH  12  15
ENDBRANCH   1  10
BRANCH   6  17
ATOM     17  N   UNL     1       2.081   5.953  18.461  0.00  0.00    +0.000 N 
ATOM     18  H   UNL     1       1.126   5.995  18.103  0.00  0.00    +0.000 HD
BRANCH  17  19
ATOM     19  C   UNL     1       2.577   7.212  19.001  0.00  0.00    +0.000 C 
BRANCH  19  20
ATOM     20  C   UNL     1       2.704   8.293  17.931  0.00  0.00    +0.000 C 
BRANCH  20  21
ATOM     21  C   UNL     1       1.360   9.016  17.838  0.00  0.00    +0.000 C 
BRANCH  21  22
ATOM     22  N   UNL     1       1.165  10.043  18.834  0.00  0.00    +0.000 N 
ATOM     23  C   UNL     1       1.548  11.347  18.720  0.00  0.00    +0.000 A 
ATOM     24  N   UNL     1       1.106  12.063  19.728  0.00  0.00    +0.000 NA
ATOM     25  C   UNL     1       0.401  11.188  20.521  0.00  0.00    +0.000 A 
ATOM     26  C   UNL     1      -0.274  11.650  21.750  0.00  0.00    +0.000 C 
ATOM     27  C   UNL     1       0.432   9.921  19.980  0.00  0.00    +0.000 A 
ENDBRANCH  21  22
ENDBRANCH  20  21
ENDBRANCH  19  20
ENDBRANCH  17  19
ENDBRANCH   6  17
TORSDOF 8
ENDMDL
MODEL 6
REMARK VINA RESULT:      -7.4      1.197      1.374
REMARK  Name = 
REMARK  11 active torsions:
REMARK  status: ('A' for Active; 'I' for Inactive)
REMARK    1  A    between atoms: C_1  and  O_2
REMARK    2  A    between atoms: O_2  and  C_3
REMARK    3  A    between atoms: C_6  and  C_7
REMARK    4  A    between atoms: C_12  and  N_13
REMARK    5  A    between atoms: N_13  and  C_14
REMARK    6  A    between atoms: C_14  and  C_15
REMARK    7  A    between atoms: C_15  and  C_16
REMARK    8  A    between atoms: C_16  and  N_17
REMARK    9  A    between atoms: C_20  and  C_21
REMARK   10  A    between atoms: C_24  and  O_25
REMARK   11  A    between atoms: O_25  and  C_26
REMARK                            x       y       z     vdW  Elec       q    Type
REMARK                         _______ _______ _______ _____ _____    ______ ____
ROOT
ATOM      1  C   UNL     1       3.192   4.140  18.428  0.00  0.00    +0.000 A 
ATOM      2  C   UNL     1       2.572   2.873  18.257  0.00  0.00    +0.000 A 
ATOM      3  C   UNL     1       1.412   2.500  18.935  0.00  0.00    +0.000 A 
ATOM      4  C   UNL     1       0.831   3.378  19.827  0.00  0.00    +0.000 A 
ATOM      5  C   UNL     1       1.426   4.615  20.051  0.00  0.00    +0.000 A 
ATOM      6  C   UNL     1       2.608   5.019  19.389  0.00  0.00    +0.000 A 
ENDROOT
BRANCH   1  10
ATOM      7  C   UNL     1       6.458   5.158  15.735  0.00  0.00    +0.000 A 
ATOM      8  C   UNL     1       5.938   3.864  15.781  0.00  0.00    +0.000 A 
ATOM      9  C   UNL     1       4.888   3.545  16.645  0.00  0.00    +0.000 A 
ATOM     10  C   UNL     1       4.377   4.473  17.572  0.00  0.00    +0.000 A 
ATOM     11  C   UNL     1       5.046   5.708  17.619  0.00  0.00    +0.000 A 
ATOM     12  C   UNL     1       6.042   6.082  16.699  0.00  0.00    +0.000 A 
BRANCH   7  14
ATOM     13  C   UNL     1       7.274   4.794  13.548  0.00  0.00    +0.000 C 
ATOM     14  O   UNL     1       7.381   5.506  14.785  0.00  0.00    +0.000 OA
ENDBRANCH   7  14
BRANCH  12  15
ATOM     15  O   UNL     1       6.460   7.371  16.893  0.00  0.00    +0.000 OA
ATOM     16  C   UNL     1       7.649   7.603  17.628  0.00  0.00    +0.000 C 
ENDBRANCH  12  15
ENDBRANCH   1  10
BRANCH   6  17
ATOM     17  N   UNL     1       3.175   6.288  19.674  0.00  0.00    +0.000 N 
ATOM     18  H   UNL     1       4.082   6.370  19.213  0.00  0.00    +0.000 HD
BRANCH  17  19
ATOM     19  C   UNL     1       2.324   7.463  19.539  0.00  0.00    +0.000 C 
BRANCH  19  20
ATOM     20  C   UNL     1       2.068   7.831  18.081  0.00  0.00    +0.000 C 
BRANCH  20  21
ATOM     21  C   UNL     1       2.109   9.356  17.971  0.00  0.00    +0.000 C 
BRANCH  21  22
ATOM     22  N   UNL     1       0.913  10.020  18.431  0.00  0.00    +0.000 N 
ATOM     23  C   UNL     1      -0.356   9.767  17.999  0.00  0.00    +0.000 A 
ATOM     24  N   UNL     1      -1.242  10.431  18.705  0.00  0.00    +0.000 NA
ATOM     25  C   UNL     1      -0.516  11.134  19.638  0.00  0.00    +0.000 A 
ATOM     26  C   UNL     1      -1.188  11.986  20.639  0.00  0.00    +0.000 C 
ATOM     27  C   UNL     1       0.832  10.894  19.477  0.00  0.00    +0.000 A 
ENDBRANCH  21  22
ENDBRANCH  20  21
ENDBRANCH  19  20
ENDBRANCH  17  19
ENDBRANCH   6  17
TORSDOF 8
ENDMDL
MODEL 7
REMARK VINA RESULT:      -7.4      1.248      1.392
REMARK  Name = 
REMARK  11 active torsions:
REMARK  status: ('A' for Active; 'I' for Inactive)
REMARK    1  A    between atoms: C_1  and  O_2
REMARK    2  A    between atoms: O_2  and  C_3
REMARK    3  A    between atoms: C_6  and  C_7
REMARK    4  A    between atoms: C_12  and  N_13
REMARK    5  A    between atoms: N_13  and  C_14
REMARK    6  A    between atoms: C_14  and  C_15
REMARK    7  A    between atoms: C_15  and  C_16
REMARK    8  A    between atoms: C_16  and  N_17
REMARK    9  A    between atoms: C_20  and  C_21
REMARK   10  A    between atoms: C_24  and  O_25
REMARK   11  A    between atoms: O_25  and  C_26
REMARK                            x       y       z     vdW  Elec       q    Type
REMARK                         _______ _______ _______ _____ _____    ______ ____
ROOT
ATOM      1  C   UNL     1       3.797   4.613  18.814  0.00  0.00    +0.000 A 
ATOM      2  C   UNL     1       3.829   3.485  19.676  0.00  0.00    +0.000 A 
ATOM      3  C   UNL     1       2.843   3.231  20.630  0.00  0.00    +0.000 A 
ATOM      4  C   UNL     1       1.788   4.109  20.770  0.00  0.00    +0.000 A 
ATOM      5  C   UNL     1       1.738   5.246  19.970  0.00  0.00    +0.000 A 
ATOM      6  C   UNL     1       2.726   5.538  19.003  0.00  0.00    +0.000 A 
ENDROOT
BRANCH   1  10
ATOM      7  C   UNL     1       6.681   5.083  15.586  0.00  0.00    +0.000 A 
ATOM      8  C   UNL     1       5.819   3.987  15.629  0.00  0.00    +0.000 A 
ATOM      9  C   UNL     1       4.893   3.845  16.666  0.00  0.00    +0.000 A 
ATOM     10  C   UNL     1       4.854   4.732  17.757  0.00  0.00    +0.000 A 
ATOM     11  C   UNL     1       5.855   5.718  17.768  0.00  0.00    +0.000 A 
ATOM     12  C   UNL     1       6.735   5.936  16.694  0.00  0.00    +0.000 A 
BRANCH   7  14
ATOM     13  C   UNL     1       7.105   4.578  13.318  0.00  0.00    +0.000 C 
ATOM     14  O   UNL     1       7.480   5.300  14.495  0.00  0.00    +0.000 OA
ENDBRANCH   7  14
BRANCH  12  15
ATOM     15  O   UNL     1       7.543   7.021  16.905  0.00  0.00    +0.000 OA
ATOM     16  C   UNL     1       7.985   7.301  18.223  0.00  0.00    +0.000 C 
ENDBRANCH  12  15
ENDBRANCH   1  10
BRANCH   6  17
ATOM     17  N   UNL     1       2.625   6.724  18.230  0.00  0.00    +0.000 N 
ATOM     18  H   UNL     1       2.172   6.515  17.339  0.00  0.00    +0.000 HD
BRANCH  17  19
ATOM     19  C   UNL     1       2.133   7.928  18.886  0.00  0.00    +0.000 C 
BRANCH  19  20
ATOM     20  C   UNL     1       1.817   9.043  17.894  0.00  0.00    +0.000 C 
BRANCH  20  21
ATOM     21  C   UNL     1       1.294  10.240  18.689  0.00  0.00    +0.000 C 
BRANCH  21  22
ATOM     22  N   UNL     1      -0.080  10.586  18.413  0.00  0.00    +0.000 N 
ATOM     23  C   UNL     1      -0.658  11.799  18.644  0.00  0.00    +0.000 A 
ATOM     24  N   UNL     1      -1.877  11.847  18.158  0.00  0.00    +0.000 NA
ATOM     25  C   UNL     1      -2.091  10.616  17.581  0.00  0.00    +0.000 A 
ATOM     26  C   UNL     1      -3.364  10.308  16.899  0.00  0.00    +0.000 C 
ATOM     27  C   UNL     1      -0.981   9.815  17.736  0.00  0.00    +0.000 A 
ENDBRANCH  21  22
ENDBRANCH  20  21
ENDBRANCH  19  20
ENDBRANCH  17  19
ENDBRANCH   6  17
TORSDOF 8
ENDMDL
MODEL 8
REMARK VINA RESULT:      -7.2      1.459      1.772
REMARK  Name = 
REMARK  11 active torsions:
REMARK  status: ('A' for Active; 'I' for Inactive)
REMARK    1  A    between atoms: C_1  and  O_2
REMARK    2  A    between atoms: O_2  and  C_3
REMARK    3  A    between atoms: C_6  and  C_7
REMARK    4  A    between atoms: C_12  and  N_13
REMARK    5  A    between atoms: N_13  and  C_14
REMARK    6  A    between atoms: C_14  and  C_15
REMARK    7  A    between atoms: C_15  and  C_16
REMARK    8  A    between atoms: C_16  and  N_17
REMARK    9  A    between atoms: C_20  and  C_21
REMARK   10  A    between atoms: C_24  and  O_25
REMARK   11  A    between atoms: O_25  and  C_26
REMARK                            x       y       z     vdW  Elec       q    Type
REMARK                         _______ _______ _______ _____ _____    ______ ____
ROOT
ATOM      1  C   UNL     1       3.182   4.194  18.549  0.00  0.00    +0.000 A 
ATOM      2  C   UNL     1       2.613   2.897  18.453  0.00  0.00    +0.000 A 
ATOM      3  C   UNL     1       1.472   2.516  19.160  0.00  0.00    +0.000 A 
ATOM      4  C   UNL     1       0.861   3.419  20.007  0.00  0.00    +0.000 A 
ATOM      5  C   UNL     1       1.408   4.689  20.157  0.00  0.00    +0.000 A 
ATOM      6  C   UNL     1       2.569   5.102  19.464  0.00  0.00    +0.000 A 
ENDROOT
BRANCH   1  10
ATOM      7  C   UNL     1       6.388   5.219  15.786  0.00  0.00    +0.000 A 
ATOM      8  C   UNL     1       5.838   3.937  15.810  0.00  0.00    +0.000 A 
ATOM      9  C   UNL     1       4.807   3.616  16.696  0.00  0.00    +0.000 A 
ATOM     10  C   UNL     1       4.348   4.526  17.666  0.00  0.00    +0.000 A 
ATOM     11  C   UNL     1       5.047   5.743  17.729  0.00  0.00    +0.000 A 
ATOM     12  C   UNL     1       6.023   6.122  16.791  0.00  0.00    +0.000 A 
BRANCH   7  14
ATOM     13  C   UNL     1       7.186   4.837  13.596  0.00  0.00    +0.000 C 
ATOM     14  O   UNL     1       7.289   5.574  14.818  0.00  0.00    +0.000 OA
ENDBRANCH   7  14
BRANCH  12  15
ATOM     15  O   UNL     1       6.478   7.394  17.009  0.00  0.00    +0.000 OA
ATOM     16  C   UNL     1       7.710   7.575  17.687  0.00  0.00    +0.000 C 
ENDBRANCH  12  15
ENDBRANCH   1  10
BRANCH   6  17
ATOM     17  N   UNL     1       3.086   6.407  19.674  0.00  0.00    +0.000 N 
ATOM     18  H   UNL     1       3.983   6.501  19.196  0.00  0.00    +0.000 HD
BRANCH  17  19
ATOM     19  C   UNL     1       2.185   7.537  19.491  0.00  0.00    +0.000 C 
BRANCH  19  20
ATOM     20  C   UNL     1       2.445   8.280  18.184  0.00  0.00    +0.000 C 
BRANCH  20  21
ATOM     21  C   UNL     1       1.298   9.270  17.974  0.00  0.00    +0.000 C 
BRANCH  21  22
ATOM     22  N   UNL     1       1.535  10.584  18.523  0.00  0.00    +0.000 N 
ATOM     23  C   UNL     1       2.374  11.525  18.004  0.00  0.00    +0.000 A 
ATOM     24  N   UNL     1       2.267  12.666  18.646  0.00  0.00    +0.000 NA
ATOM     25  C   UNL     1       1.314  12.454  19.614  0.00  0.00    +0.000 A 
ATOM     26  C   UNL     1       0.903  13.540  20.527  0.00  0.00    +0.000 C 
ATOM     27  C   UNL     1       0.850  11.158  19.556  0.00  0.00    +0.000 A 
ENDBRANCH  21  22
ENDBRANCH  20  21
ENDBRANCH  19  20
ENDBRANCH  17  19
ENDBRANCH   6  17
TORSDOF 8
ENDMDL
MODEL 9
REMARK VINA RESULT:      -7.2      1.497      1.929
REMARK  Name = 
REMARK  11 active torsions:
REMARK  status: ('A' for Active; 'I' for Inactive)
REMARK    1  A    between atoms: C_1  and  O_2
REMARK    2  A    between atoms: O_2  and  C_3
REMARK    3  A    between atoms: C_6  and  C_7
REMARK    4  A    between atoms: C_12  and  N_13
REMARK    5  A    between atoms: N_13  and  C_14
REMARK    6  A    between atoms: C_14  and  C_15
REMARK    7  A    between atoms: C_15  and  C_16
REMARK    8  A    between atoms: C_16  and  N_17
REMARK    9  A    between atoms: C_20  and  C_21
REMARK   10  A    between atoms: C_24  and  O_25
REMARK   11  A    between atoms: O_25  and  C_26
REMARK                            x       y       z     vdW  Elec       q    Type
REMARK                         _______ _______ _______ _____ _____    ______ ____
ROOT
ATOM      1  C   UNL     1       3.678   5.124  18.760  0.00  0.00    +0.000 A 
ATOM      2  C   UNL     1       3.628   4.040  19.677  0.00  0.00    +0.000 A 
ATOM      3  C   UNL     1       2.671   3.947  20.688  0.00  0.00    +0.000 A 
ATOM      4  C   UNL     1       1.732   4.948  20.832  0.00  0.00    +0.000 A 
ATOM      5  C   UNL     1       1.769   6.045  19.978  0.00  0.00    +0.000 A 
ATOM      6  C   UNL     1       2.732   6.174  18.951  0.00  0.00    +0.000 A 
ENDROOT
BRANCH   1  10
ATOM      7  C   UNL     1       6.425   5.112  15.382  0.00  0.00    +0.000 A 
ATOM      8  C   UNL     1       5.426   4.147  15.502  0.00  0.00    +0.000 A 
ATOM      9  C   UNL     1       4.546   4.159  16.586  0.00  0.00    +0.000 A 
ATOM     10  C   UNL     1       4.685   5.070  17.650  0.00  0.00    +0.000 A 
ATOM     11  C   UNL     1       5.810   5.909  17.581  0.00  0.00    +0.000 A 
ATOM     12  C   UNL     1       6.654   5.977  16.459  0.00  0.00    +0.000 A 
BRANCH   7  14
ATOM     13  C   UNL     1       6.828   4.270  13.213  0.00  0.00    +0.000 C 
ATOM     14  O   UNL     1       7.188   5.191  14.247  0.00  0.00    +0.000 OA
ENDBRANCH   7  14
BRANCH  12  15
ATOM     15  O   UNL     1       7.612   6.945  16.596  0.00  0.00    +0.000 OA
ATOM     16  C   UNL     1       7.813   7.536  17.868  0.00  0.00    +0.000 C 
ENDBRANCH  12  15
ENDBRANCH   1  10
BRANCH   6  17
ATOM     17  N   UNL     1       2.725   7.327  18.124  0.00  0.00    +0.000 N 
ATOM     18  H   UNL     1       2.343   7.089  17.208  0.00  0.00    +0.000 HD
BRANCH  17  19
ATOM     19  C   UNL     1       2.212   8.569  18.686  0.00  0.00    +0.000 C 
BRANCH  19  20
ATOM     20  C   UNL     1       1.133   9.200  17.811  0.00  0.00    +0.000 C 
BRANCH  20  21
ATOM     21  C   UNL     1       0.360  10.200  18.673  0.00  0.00    +0.000 C 
BRANCH  21  22
ATOM     22  N   UNL     1      -0.983  10.469  18.215  0.00  0.00    +0.000 N 
ATOM     23  C   UNL     1      -1.621   9.827  17.195  0.00  0.00    +0.000 A 
ATOM     24  N   UNL     1      -2.878  10.197  17.111  0.00  0.00    +0.000 NA
ATOM     25  C   UNL     1      -3.062  11.108  18.125  0.00  0.00    +0.000 A 
ATOM     26  C   UNL     1      -4.381  11.728  18.360  0.00  0.00    +0.000 C 
ATOM     27  C   UNL     1      -1.887  11.294  18.821  0.00  0.00    +0.000 A 
ENDBRANCH  21  22
ENDBRANCH  20  21
ENDBRANCH  19  20
ENDBRANCH  17  19
ENDBRANCH   6  17
TORSDOF 8
ENDMDL
