MODEL 1
REMARK VINA RESULT:      -7.8      0.000      0.000
REMARK  Name = 
REMARK  2 active torsions:
REMARK  status: ('A' for Active; 'I' for Inactive)
REMARK    1  A    between atoms: N_17  and  C_18
REMARK    2  A    between atoms: C_18  and  C_19
REMARK                            x       y       z     vdW  Elec       q    Type
REMARK                         _______ _______ _______ _____ _____    ______ ____
ROOT
ATOM      1  O   UNL     1       6.286   4.620  19.958  0.00  0.00    +0.000 OA
ATOM      2  C   UNL     1       5.520   5.088  19.110  0.00  0.00    +0.000 A 
ATOM      3  C   UNL     1       4.233   4.386  18.903  0.00  0.00    +0.000 A 
ATOM      4  C   UNL     1       3.429   4.111  20.012  0.00  0.00    +0.000 A 
ATOM      5  C   UNL     1       2.188   3.512  19.822  0.00  0.00    +0.000 A 
ATOM      6  C   UNL     1       1.759   3.170  18.539  0.00  0.00    +0.000 A 
ATOM      7  C   UNL     1       2.601   3.382  17.441  0.00  0.00    +0.000 A 
ATOM      8  C   UNL     1       3.867   3.968  17.607  0.00  0.00    +0.000 A 
ATOM      9  C   UNL     1       4.724   4.254  16.447  0.00  0.00    +0.000 A 
ATOM     10  C   UNL     1       5.459   3.287  15.763  0.00  0.00    +0.000 A 
ATOM     11  C   UNL     1       6.263   3.658  14.676  0.00  0.00    +0.000 A 
ATOM     12  C   UNL     1       6.261   4.975  14.200  0.00  0.00    +0.000 A 
ATOM     13  C   UNL     1       5.582   5.960  14.905  0.00  0.00    +0.000 A 
ATOM     14  C   UNL     1       4.934   5.591  16.081  0.00  0.00    +0.000 A 
ATOM     15  C   UNL     1       4.973   6.545  17.213  0.00  0.00    +0.000 A 
ATOM     16  O   UNL     1       4.299   7.563  17.216  0.00  0.00    +0.000 OA
ATOM     17  N   UNL     1       5.854   6.135  18.230  0.00  0.00    +0.000 N 
ENDROOT
BRANCH  17  18
ATOM     18  C   UNL     1       7.272   6.206  17.893  0.00  0.00    +0.000 C 
BRANCH  18  19
ATOM     19  C   UNL     1       7.814   7.576  18.016  0.00  0.00    +0.000 A 
ATOM     20  C   UNL     1       7.563   8.760  17.354  0.00  0.00    +0.000 A 
ATOM     21  C   UNL     1       8.308   9.756  18.025  0.00  0.00    +0.000 A 
ATOM     22  C   UNL     1       8.971   9.118  19.046  0.00  0.00    +0.000 A 
ATOM     23  O   UNL     1       8.675   7.794  19.051  0.00  0.00    +0.000 OA
ENDBRANCH  18  19
ENDBRANCH  17  18
TORSDOF 2
ENDMDL
MODEL 2
REMARK VINA RESULT:      -7.5      2.758      5.281
REMARK  Name = 
REMARK  2 active torsions:
REMARK  status: ('A' for Active; 'I' for Inactive)
REMARK    1  A    between atoms: N_17  and  C_18
REMARK    2  A    between atoms: C_18  and  C_19
REMARK                            x       y       z     vdW  Elec       q    Type
REMARK                         _______ _______ _______ _____ _____    ______ ____
ROOT
ATOM      1  O   UNL     1       4.652   6.507  17.968  0.00  0.00    +0.000 OA
ATOM      2  C   UNL     1       3.478   6.138  18.067  0.00  0.00    +0.000 A 
ATOM      3  C   UNL     1       2.564   6.999  18.853  0.00  0.00    +0.000 A 
ATOM      4  C   UNL     1       2.498   8.362  18.551  0.00  0.00    +0.000 A 
ATOM      5  C   UNL     1       1.595   9.168  19.238  0.00  0.00    +0.000 A 
ATOM      6  C   UNL     1       0.778   8.624  20.231  0.00  0.00    +0.000 A 
ATOM      7  C   UNL     1       0.903   7.274  20.577  0.00  0.00    +0.000 A 
ATOM      8  C   UNL     1       1.820   6.442  19.912  0.00  0.00    +0.000 A 
ATOM      9  C   UNL     1       1.903   5.009  20.227  0.00  0.00    +0.000 A 
ATOM     10  C   UNL     1       2.531   4.494  21.361  0.00  0.00    +0.000 A 
ATOM     11  C   UNL     1       2.575   3.107  21.568  0.00  0.00    +0.000 A 
ATOM     12  C   UNL     1       1.906   2.232  20.703  0.00  0.00    +0.000 A 
ATOM     13  C   UNL     1       1.329   2.723  19.540  0.00  0.00    +0.000 A 
ATOM     14  C   UNL     1       1.453   4.084  19.273  0.00  0.00    +0.000 A 
ATOM     15  C   UNL     1       1.670   4.491  17.866  0.00  0.00    +0.000 A 
ATOM     16  O   UNL     1       0.768   4.460  17.044  0.00  0.00    +0.000 OA
ATOM     17  N   UNL     1       2.996   4.892  17.622  0.00  0.00    +0.000 N 
ENDROOT
BRANCH  17  18
ATOM     18  C   UNL     1       3.988   3.822  17.650  0.00  0.00    +0.000 C 
BRANCH  18  19
ATOM     19  C   UNL     1       5.062   4.020  16.652  0.00  0.00    +0.000 A 
ATOM     20  C   UNL     1       5.065   4.204  15.285  0.00  0.00    +0.000 A 
ATOM     21  C   UNL     1       6.405   4.471  14.924  0.00  0.00    +0.000 A 
ATOM     22  C   UNL     1       7.133   4.426  16.088  0.00  0.00    +0.000 A 
ATOM     23  O   UNL     1       6.326   4.155  17.144  0.00  0.00    +0.000 OA
ENDBRANCH  18  19
ENDBRANCH  17  18
TORSDOF 2
ENDMDL
MODEL 3
REMARK VINA RESULT:      -7.0      2.519      5.697
REMARK  Name = 
REMARK  2 active torsions:
REMARK  status: ('A' for Active; 'I' for Inactive)
REMARK    1  A    between atoms: N_17  and  C_18
REMARK    2  A    between atoms: C_18  and  C_19
REMARK                            x       y       z     vdW  Elec       q    Type
REMARK                         _______ _______ _______ _____ _____    ______ ____
ROOT
ATOM      1  O   UNL     1       6.705   4.721  19.346  0.00  0.00    +0.000 OA
ATOM      2  C   UNL     1       5.790   4.515  18.543  0.00  0.00    +0.000 A 
ATOM      3  C   UNL     1       6.058   4.825  17.121  0.00  0.00    +0.000 A 
ATOM      4  C   UNL     1       7.201   4.293  16.519  0.00  0.00    +0.000 A 
ATOM      5  C   UNL     1       7.428   4.523  15.165  0.00  0.00    +0.000 A 
ATOM      6  C   UNL     1       6.534   5.294  14.422  0.00  0.00    +0.000 A 
ATOM      7  C   UNL     1       5.430   5.884  15.049  0.00  0.00    +0.000 A 
ATOM      8  C   UNL     1       5.188   5.683  16.418  0.00  0.00    +0.000 A 
ATOM      9  C   UNL     1       3.993   6.246  17.062  0.00  0.00    +0.000 A 
ATOM     10  C   UNL     1       3.855   7.587  17.417  0.00  0.00    +0.000 A 
ATOM     11  C   UNL     1       2.681   8.029  18.044  0.00  0.00    +0.000 A 
ATOM     12  C   UNL     1       1.598   7.161  18.229  0.00  0.00    +0.000 A 
ATOM     13  C   UNL     1       1.740   5.811  17.937  0.00  0.00    +0.000 A 
ATOM     14  C   UNL     1       2.979   5.370  17.477  0.00  0.00    +0.000 A 
ATOM     15  C   UNL     1       3.455   4.050  17.950  0.00  0.00    +0.000 A 
ATOM     16  O   UNL     1       2.980   3.008  17.526  0.00  0.00    +0.000 OA
ATOM     17  N   UNL     1       4.478   4.161  18.909  0.00  0.00    +0.000 N 
ENDROOT
BRANCH  17  18
ATOM     18  C   UNL     1       4.060   4.672  20.211  0.00  0.00    +0.000 C 
BRANCH  18  19
ATOM     19  C   UNL     1       2.975   3.867  20.812  0.00  0.00    +0.000 A 
ATOM     20  C   UNL     1       1.625   4.082  21.001  0.00  0.00    +0.000 A 
ATOM     21  C   UNL     1       1.099   2.874  21.514  0.00  0.00    +0.000 A 
ATOM     22  C   UNL     1       2.158   2.005  21.612  0.00  0.00    +0.000 A 
ATOM     23  O   UNL     1       3.301   2.597  21.186  0.00  0.00    +0.000 OA
ENDBRANCH  18  19
ENDBRANCH  17  18
TORSDOF 2
ENDMDL
MODEL 4
REMARK VINA RESULT:      -6.9      2.670      4.630
REMARK  Name = 
REMARK  2 active torsions:
REMARK  status: ('A' for Active; 'I' for Inactive)
REMARK    1  A    between atoms: N_17  and  C_18
REMARK    2  A    between atoms: C_18  and  C_19
REMARK                            x       y       z     vdW  Elec       q    Type
REMARK                         _______ _______ _______ _____ _____    ______ ____
ROOT
ATOM      1  O   UNL     1       5.470   6.372  17.681  0.00  0.00    +0.000 OA
ATOM      2  C   UNL     1       4.451   5.675  17.718  0.00  0.00    +0.000 A 
ATOM      3  C   UNL     1       3.426   6.030  18.725  0.00  0.00    +0.000 A 
ATOM      4  C   UNL     1       2.970   7.350  18.783  0.00  0.00    +0.000 A 
ATOM      5  C   UNL     1       1.958   7.682  19.680  0.00  0.00    +0.000 A 
ATOM      6  C   UNL     1       1.420   6.710  20.525  0.00  0.00    +0.000 A 
ATOM      7  C   UNL     1       1.933   5.409  20.511  0.00  0.00    +0.000 A 
ATOM      8  C   UNL     1       2.966   5.052  19.629  0.00  0.00    +0.000 A 
ATOM      9  C   UNL     1       3.459   3.669  19.565  0.00  0.00    +0.000 A 
ATOM     10  C   UNL     1       4.311   3.099  20.510  0.00  0.00    +0.000 A 
ATOM     11  C   UNL     1       4.743   1.773  20.356  0.00  0.00    +0.000 A 
ATOM     12  C   UNL     1       4.248   0.976  19.317  0.00  0.00    +0.000 A 
ATOM     13  C   UNL     1       3.447   1.544  18.335  0.00  0.00    +0.000 A 
ATOM     14  C   UNL     1       3.178   2.907  18.421  0.00  0.00    +0.000 A 
ATOM     15  C   UNL     1       3.137   3.680  17.158  0.00  0.00    +0.000 A 
ATOM     16  O   UNL     1       2.198   3.591  16.384  0.00  0.00    +0.000 OA
ATOM     17  N   UNL     1       4.277   4.485  16.985  0.00  0.00    +0.000 N 
ENDROOT
BRANCH  17  18
ATOM     18  C   UNL     1       5.515   3.764  16.709  0.00  0.00    +0.000 C 
BRANCH  18  19
ATOM     19  C   UNL     1       6.030   4.025  15.347  0.00  0.00    +0.000 A 
ATOM     20  C   UNL     1       5.531   3.792  14.082  0.00  0.00    +0.000 A 
ATOM     21  C   UNL     1       6.438   4.394  13.181  0.00  0.00    +0.000 A 
ATOM     22  C   UNL     1       7.433   4.948  13.949  0.00  0.00    +0.000 A 
ATOM     23  O   UNL     1       7.193   4.732  15.267  0.00  0.00    +0.000 OA
ENDBRANCH  18  19
ENDBRANCH  17  18
TORSDOF 2
ENDMDL
MODEL 5
REMARK VINA RESULT:      -6.8      2.340      4.361
REMARK  Name = 
REMARK  2 active torsions:
REMARK  status: ('A' for Active; 'I' for Inactive)
REMARK    1  A    between atoms: N_17  and  C_18
REMARK    2  A    between atoms: C_18  and  C_19
REMARK                            x       y       z     vdW  Elec       q    Type
REMARK                         _______ _______ _______ _____ _____    ______ ____
ROOT
ATOM      1  O   UNL     1       2.280   2.615  16.873  0.00  0.00    +0.000 OA
ATOM      2  C   UNL     1       3.062   3.213  17.617  0.00  0.00    +0.000 A 
ATOM      3  C   UNL     1       2.675   3.340  19.041  0.00  0.00    +0.000 A 
ATOM      4  C   UNL     1       2.307   2.189  19.743  0.00  0.00    +0.000 A 
ATOM      5  C   UNL     1       2.006   2.286  21.098  0.00  0.00    +0.000 A 
ATOM      6  C   UNL     1       2.052   3.522  21.744  0.00  0.00    +0.000 A 
ATOM      7  C   UNL     1       2.350   4.680  21.017  0.00  0.00    +0.000 A 
ATOM      8  C   UNL     1       2.639   4.613  19.644  0.00  0.00    +0.000 A 
ATOM      9  C   UNL     1       3.020   5.819  18.894  0.00  0.00    +0.000 A 
ATOM     10  C   UNL     1       2.116   6.794  18.474  0.00  0.00    +0.000 A 
ATOM     11  C   UNL     1       2.571   7.904  17.748  0.00  0.00    +0.000 A 
ATOM     12  C   UNL     1       3.940   8.102  17.524  0.00  0.00    +0.000 A 
ATOM     13  C   UNL     1       4.845   7.112  17.882  0.00  0.00    +0.000 A 
ATOM     14  C   UNL     1       4.343   5.942  18.446  0.00  0.00    +0.000 A 
ATOM     15  C   UNL     1       4.989   4.665  18.065  0.00  0.00    +0.000 A 
ATOM     16  O   UNL     1       6.085   4.348  18.497  0.00  0.00    +0.000 OA
ATOM     17  N   UNL     1       4.202   3.911  17.175  0.00  0.00    +0.000 N 
ENDROOT
BRANCH  17  18
ATOM     18  C   UNL     1       4.085   4.458  15.827  0.00  0.00    +0.000 C 
BRANCH  18  19
ATOM     19  C   UNL     1       5.367   4.419  15.089  0.00  0.00    +0.000 A 
ATOM     20  C   UNL     1       5.909   3.541  14.173  0.00  0.00    +0.000 A 
ATOM     21  C   UNL     1       7.116   4.128  13.729  0.00  0.00    +0.000 A 
ATOM     22  C   UNL     1       7.236   5.318  14.404  0.00  0.00    +0.000 A 
ATOM     23  O   UNL     1       6.177   5.506  15.230  0.00  0.00    +0.000 OA
ENDBRANCH  18  19
ENDBRANCH  17  18
TORSDOF 2
ENDMDL
MODEL 6
REMARK VINA RESULT:      -6.6     10.155     11.695
REMARK  Name = 
REMARK  2 active torsions:
REMARK  status: ('A' for Active; 'I' for Inactive)
REMARK    1  A    between atoms: N_17  and  C_18
REMARK    2  A    between atoms: C_18  and  C_19
REMARK                            x       y       z     vdW  Elec       q    Type
REMARK                         _______ _______ _______ _____ _____    ______ ____
ROOT
ATOM      1  O   UNL     1      -1.677  12.362  19.238  0.00  0.00    +0.000 OA
ATOM      2  C   UNL     1      -1.042  12.515  20.286  0.00  0.00    +0.000 A 
ATOM      3  C   UNL     1      -0.698  11.296  21.051  0.00  0.00    +0.000 A 
ATOM      4  C   UNL     1      -0.064  10.241  20.388  0.00  0.00    +0.000 A 
ATOM      5  C   UNL     1       0.323   9.117  21.111  0.00  0.00    +0.000 A 
ATOM      6  C   UNL     1       0.064   9.036  22.480  0.00  0.00    +0.000 A 
ATOM      7  C   UNL     1      -0.636  10.064  23.122  0.00  0.00    +0.000 A 
ATOM      8  C   UNL     1      -1.055  11.201  22.411  0.00  0.00    +0.000 A 
ATOM      9  C   UNL     1      -1.730  12.313  23.097  0.00  0.00    +0.000 A 
ATOM     10  C   UNL     1      -3.066  12.289  23.495  0.00  0.00    +0.000 A 
ATOM     11  C   UNL     1      -3.628  13.406  24.131  0.00  0.00    +0.000 A 
ATOM     12  C   UNL     1      -2.838  14.512  24.465  0.00  0.00    +0.000 A 
ATOM     13  C   UNL     1      -1.523  14.577  24.023  0.00  0.00    +0.000 A 
ATOM     14  C   UNL     1      -1.044  13.527  23.244  0.00  0.00    +0.000 A 
ATOM     15  C   UNL     1      -0.134  13.864  22.124  0.00  0.00    +0.000 A 
ATOM     16  O   UNL     1       1.026  14.188  22.318  0.00  0.00    +0.000 OA
ATOM     17  N   UNL     1      -0.767  13.766  20.872  0.00  0.00    +0.000 N 
ENDROOT
BRANCH  17  18
ATOM     18  C   UNL     1      -1.769  14.790  20.597  0.00  0.00    +0.000 C 
BRANCH  18  19
ATOM     19  C   UNL     1      -1.262  15.851  19.699  0.00  0.00    +0.000 A 
ATOM     20  C   UNL     1      -0.252  15.898  18.760  0.00  0.00    +0.000 A 
ATOM     21  C   UNL     1      -0.350  17.161  18.135  0.00  0.00    +0.000 A 
ATOM     22  C   UNL     1      -1.405  17.806  18.734  0.00  0.00    +0.000 A 
ATOM     23  O   UNL     1      -1.968  17.017  19.683  0.00  0.00    +0.000 OA
ENDBRANCH  18  19
ENDBRANCH  17  18
TORSDOF 2
ENDMDL
MODEL 7
REMARK VINA RESULT:      -6.6      2.548      5.220
REMARK  Name = 
REMARK  2 active torsions:
REMARK  status: ('A' for Active; 'I' for Inactive)
REMARK    1  A    between atoms: N_17  and  C_18
REMARK    2  A    between atoms: C_18  and  C_19
REMARK                            x       y       z     vdW  Elec       q    Type
REMARK                         _______ _______ _______ _____ _____    ______ ____
ROOT
ATOM      1  O   UNL     1       2.816   7.254  17.056  0.00  0.00    +0.000 OA
ATOM      2  C   UNL     1       3.590   6.453  17.588  0.00  0.00    +0.000 A 
ATOM      3  C   UNL     1       4.505   5.705  16.697  0.00  0.00    +0.000 A 
ATOM      4  C   UNL     1       5.287   6.417  15.784  0.00  0.00    +0.000 A 
ATOM      5  C   UNL     1       6.199   5.731  14.988  0.00  0.00    +0.000 A 
ATOM      6  C   UNL     1       6.318   4.344  15.087  0.00  0.00    +0.000 A 
ATOM      7  C   UNL     1       5.480   3.631  15.952  0.00  0.00    +0.000 A 
ATOM      8  C   UNL     1       4.538   4.296  16.753  0.00  0.00    +0.000 A 
ATOM      9  C   UNL     1       3.705   3.556  17.711  0.00  0.00    +0.000 A 
ATOM     10  C   UNL     1       2.596   2.791  17.354  0.00  0.00    +0.000 A 
ATOM     11  C   UNL     1       1.851   2.131  18.342  0.00  0.00    +0.000 A 
ATOM     12  C   UNL     1       2.266   2.146  19.680  0.00  0.00    +0.000 A 
ATOM     13  C   UNL     1       3.331   2.950  20.061  0.00  0.00    +0.000 A 
ATOM     14  C   UNL     1       3.943   3.729  19.083  0.00  0.00    +0.000 A 
ATOM     15  C   UNL     1       4.386   5.089  19.467  0.00  0.00    +0.000 A 
ATOM     16  O   UNL     1       5.374   5.269  20.161  0.00  0.00    +0.000 OA
ATOM     17  N   UNL     1       3.547   6.093  18.949  0.00  0.00    +0.000 N 
ENDROOT
BRANCH  17  18
ATOM     18  C   UNL     1       2.218   6.166  19.547  0.00  0.00    +0.000 C 
BRANCH  18  19
ATOM     19  C   UNL     1       1.890   7.524  20.033  0.00  0.00    +0.000 A 
ATOM     20  C   UNL     1       1.632   8.722  19.400  0.00  0.00    +0.000 A 
ATOM     21  C   UNL     1       1.251   9.632  20.412  0.00  0.00    +0.000 A 
ATOM     22  C   UNL     1       1.308   8.936  21.596  0.00  0.00    +0.000 A 
ATOM     23  O   UNL     1       1.692   7.653  21.375  0.00  0.00    +0.000 OA
ENDBRANCH  18  19
ENDBRANCH  17  18
TORSDOF 2
ENDMDL
MODEL 8
REMARK VINA RESULT:      -6.5      2.859      4.190
REMARK  Name = 
REMARK  2 active torsions:
REMARK  status: ('A' for Active; 'I' for Inactive)
REMARK    1  A    between atoms: N_17  and  C_18
REMARK    2  A    between atoms: C_18  and  C_19
REMARK                            x       y       z     vdW  Elec       q    Type
REMARK                         _______ _______ _______ _____ _____    ______ ____
ROOT
ATOM      1  O   UNL     1       2.421   6.879  20.399  0.00  0.00    +0.000 OA
ATOM      2  C   UNL     1       2.433   5.890  19.659  0.00  0.00    +0.000 A 
ATOM      3  C   UNL     1       2.649   4.572  20.298  0.00  0.00    +0.000 A 
ATOM      4  C   UNL     1       1.845   4.210  21.382  0.00  0.00    +0.000 A 
ATOM      5  C   UNL     1       1.993   2.947  21.947  0.00  0.00    +0.000 A 
ATOM      6  C   UNL     1       2.949   2.059  21.449  0.00  0.00    +0.000 A 
ATOM      7  C   UNL     1       3.799   2.457  20.412  0.00  0.00    +0.000 A 
ATOM      8  C   UNL     1       3.683   3.733  19.835  0.00  0.00    +0.000 A 
ATOM      9  C   UNL     1       4.529   4.127  18.699  0.00  0.00    +0.000 A 
ATOM     10  C   UNL     1       5.868   4.498  18.815  0.00  0.00    +0.000 A 
ATOM     11  C   UNL     1       6.592   4.875  17.675  0.00  0.00    +0.000 A 
ATOM     12  C   UNL     1       6.017   4.788  16.401  0.00  0.00    +0.000 A 
ATOM     13  C   UNL     1       4.669   4.479  16.274  0.00  0.00    +0.000 A 
ATOM     14  C   UNL     1       3.933   4.279  17.439  0.00  0.00    +0.000 A 
ATOM     15  C   UNL     1       2.543   4.790  17.468  0.00  0.00    +0.000 A 
ATOM     16  O   UNL     1       1.644   4.233  16.860  0.00  0.00    +0.000 OA
ATOM     17  N   UNL     1       2.415   5.951  18.253  0.00  0.00    +0.000 N 
ENDROOT
BRANCH  17  18
ATOM     18  C   UNL     1       3.031   7.152  17.697  0.00  0.00    +0.000 C 
BRANCH  18  19
ATOM     19  C   UNL     1       2.146   8.333  17.784  0.00  0.00    +0.000 A 
ATOM     20  C   UNL     1       0.778   8.500  17.745  0.00  0.00    +0.000 A 
ATOM     21  C   UNL     1       0.536   9.865  18.017  0.00  0.00    +0.000 A 
ATOM     22  C   UNL     1       1.768  10.445  18.198  0.00  0.00    +0.000 A 
ATOM     23  O   UNL     1       2.753   9.522  18.061  0.00  0.00    +0.000 OA
ENDBRANCH  18  19
ENDBRANCH  17  18
TORSDOF 2
ENDMDL
MODEL 9
REMARK VINA RESULT:      -6.5      8.954     10.146
REMARK  Name = 
REMARK  2 active torsions:
REMARK  status: ('A' for Active; 'I' for Inactive)
REMARK    1  A    between atoms: N_17  and  C_18
REMARK    2  A    between atoms: C_18  and  C_19
REMARK                            x       y       z     vdW  Elec       q    Type
REMARK                         _______ _______ _______ _____ _____    ______ ____
ROOT
ATOM      1  O   UNL     1       0.942  14.454  22.599  0.00  0.00    +0.000 OA
ATOM      2  C   UNL     1       0.079  13.805  22.000  0.00  0.00    +0.000 A 
ATOM      3  C   UNL     1      -1.209  13.592  22.698  0.00  0.00    +0.000 A 
ATOM      4  C   UNL     1      -1.881  14.699  23.224  0.00  0.00    +0.000 A 
ATOM      5  C   UNL     1      -3.124  14.519  23.823  0.00  0.00    +0.000 A 
ATOM      6  C   UNL     1      -3.685  13.244  23.914  0.00  0.00    +0.000 A 
ATOM      7  C   UNL     1      -2.973  12.133  23.450  0.00  0.00    +0.000 A 
ATOM      8  C   UNL     1      -1.708  12.284  22.859  0.00  0.00    +0.000 A 
ATOM      9  C   UNL     1      -0.990  11.125  22.309  0.00  0.00    +0.000 A 
ATOM     10  C   UNL     1      -0.316  10.184  23.086  0.00  0.00    +0.000 A 
ATOM     11  C   UNL     1       0.357   9.118  22.469  0.00  0.00    +0.000 A 
ATOM     12  C   UNL     1       0.277   8.927  21.084  0.00  0.00    +0.000 A 
ATOM     13  C   UNL     1      -0.338   9.886  20.291  0.00  0.00    +0.000 A 
ATOM     14  C   UNL     1      -0.846  11.022  20.917  0.00  0.00    +0.000 A 
ATOM     15  C   UNL     1      -0.701  12.317  20.212  0.00  0.00    +0.000 A 
ATOM     16  O   UNL     1      -1.389  12.599  19.245  0.00  0.00    +0.000 OA
ATOM     17  N   UNL     1       0.294  13.130  20.784  0.00  0.00    +0.000 N 
ENDROOT
BRANCH  17  18
ATOM     18  C   UNL     1       1.666  12.669  20.589  0.00  0.00    +0.000 C 
BRANCH  18  19
ATOM     19  C   UNL     1       2.403  13.491  19.604  0.00  0.00    +0.000 A 
ATOM     20  C   UNL     1       2.245  13.723  18.253  0.00  0.00    +0.000 A 
ATOM     21  C   UNL     1       3.191  14.714  17.908  0.00  0.00    +0.000 A 
ATOM     22  C   UNL     1       3.869  15.019  19.064  0.00  0.00    +0.000 A 
ATOM     23  O   UNL     1       3.395  14.283  20.101  0.00  0.00    +0.000 OA
ENDBRANCH  18  19
ENDBRANCH  17  18
TORSDOF 2
ENDMDL
