MODEL 1
REMARK VINA RESULT:      -7.9      0.000      0.000
REMARK  Name = 
REMARK  2 active torsions:
REMARK  status: ('A' for Active; 'I' for Inactive)
REMARK    1  A    between atoms: N_5  and  C_6
REMARK    2  A    between atoms: C_16  and  C_17
REMARK                            x       y       z     vdW  Elec       q    Type
REMARK                         _______ _______ _______ _____ _____    ______ ____
ROOT
ATOM      1  O   UNL     1       5.829   4.607  19.763  0.00  0.00    +0.000 OA
ATOM      2  C   UNL     1       6.321   5.324  18.899  0.00  0.00    +0.000 A 
ATOM      3  N   UNL     1       7.146   6.355  19.278  0.00  0.00    +0.000 N 
ATOM      4  C   UNL     1       7.839   7.147  18.418  0.00  0.00    +0.000 A 
ATOM      5  N   UNL     1       8.556   8.119  19.040  0.00  0.00    +0.000 N 
ATOM      6  N   UNL     1       7.779   6.962  17.142  0.00  0.00    +0.000 NA
ATOM      7  C   UNL     1       6.965   5.929  16.653  0.00  0.00    +0.000 A 
ATOM      8  N   UNL     1       7.036   5.795  15.310  0.00  0.00    +0.000 NA
ATOM      9  C   UNL     1       6.197   4.918  14.738  0.00  0.00    +0.000 A 
ATOM     10  C   UNL     1       5.237   4.201  15.438  0.00  0.00    +0.000 A 
ATOM     11  C   UNL     1       5.173   4.282  16.843  0.00  0.00    +0.000 A 
ATOM     12  C   UNL     1       6.112   5.152  17.449  0.00  0.00    +0.000 A 
ATOM     13  H   UNL     1       7.203   6.523  20.267  0.00  0.00    +0.000 HD
ATOM     14  H   UNL     1       8.941   7.897  19.946  0.00  0.00    +0.000 HD
ENDROOT
BRANCH  11  15
ATOM     15  C   UNL     1       4.105   3.527  17.576  0.00  0.00    +0.000 A 
ATOM     16  C   UNL     1       4.279   2.144  17.823  0.00  0.00    +0.000 A 
ATOM     17  C   UNL     1       3.287   1.354  18.417  0.00  0.00    +0.000 A 
ATOM     18  C   UNL     1       2.116   1.938  18.875  0.00  0.00    +0.000 A 
ATOM     19  C   UNL     1       1.941   3.309  18.732  0.00  0.00    +0.000 A 
ATOM     20  C   UNL     1       2.906   4.092  18.072  0.00  0.00    +0.000 A 
ATOM     21 CL   UNL     1       2.490   5.767  17.883  0.00  0.00    +0.000 Cl
ENDBRANCH  11  15
BRANCH   5  22
ATOM     22  C   UNL     1       9.127   9.281  18.389  0.00  0.00    +0.000 C 
ATOM     23  C   UNL     1       7.994  10.157  17.853  0.00  0.00    +0.000 C 
ATOM     24  C   UNL     1       8.617  11.528  17.691  0.00  0.00    +0.000 C 
ATOM     25  C   UNL     1       9.716  11.609  18.747  0.00  0.00    +0.000 C 
ATOM     26  C   UNL     1       9.855  10.211  19.350  0.00  0.00    +0.000 C 
ENDBRANCH   5  22
TORSDOF 2
ENDMDL
MODEL 2
REMARK VINA RESULT:      -7.8      4.224      6.367
REMARK  Name = 
REMARK  2 active torsions:
REMARK  status: ('A' for Active; 'I' for Inactive)
REMARK    1  A    between atoms: N_5  and  C_6
REMARK    2  A    between atoms: C_16  and  C_17
REMARK                            x       y       z     vdW  Elec       q    Type
REMARK                         _______ _______ _______ _____ _____    ______ ____
ROOT
ATOM      1  O   UNL     1       4.157   7.162  16.625  0.00  0.00    +0.000 OA
ATOM      2  C   UNL     1       3.553   6.724  17.599  0.00  0.00    +0.000 A 
ATOM      3  N   UNL     1       2.924   7.604  18.444  0.00  0.00    +0.000 N 
ATOM      4  C   UNL     1       2.133   7.242  19.488  0.00  0.00    +0.000 A 
ATOM      5  N   UNL     1       1.655   8.300  20.195  0.00  0.00    +0.000 N 
ATOM      6  N   UNL     1       1.897   6.000  19.750  0.00  0.00    +0.000 NA
ATOM      7  C   UNL     1       2.493   5.021  18.940  0.00  0.00    +0.000 A 
ATOM      8  N   UNL     1       2.120   3.765  19.273  0.00  0.00    +0.000 NA
ATOM      9  C   UNL     1       2.735   2.756  18.638  0.00  0.00    +0.000 A 
ATOM     10  C   UNL     1       3.758   2.935  17.718  0.00  0.00    +0.000 A 
ATOM     11  C   UNL     1       4.133   4.231  17.313  0.00  0.00    +0.000 A 
ATOM     12  C   UNL     1       3.427   5.293  17.931  0.00  0.00    +0.000 A 
ATOM     13  H   UNL     1       3.098   8.578  18.265  0.00  0.00    +0.000 HD
ATOM     14  H   UNL     1       1.458   9.145  19.679  0.00  0.00    +0.000 HD
ENDROOT
BRANCH  11  15
ATOM     15  C   UNL     1       5.264   4.402  16.345  0.00  0.00    +0.000 A 
ATOM     16  C   UNL     1       5.029   4.210  14.962  0.00  0.00    +0.000 A 
ATOM     17  C   UNL     1       6.054   4.259  14.009  0.00  0.00    +0.000 A 
ATOM     18  C   UNL     1       7.342   4.599  14.393  0.00  0.00    +0.000 A 
ATOM     19  C   UNL     1       7.600   4.882  15.728  0.00  0.00    +0.000 A 
ATOM     20  C   UNL     1       6.587   4.764  16.697  0.00  0.00    +0.000 A 
ATOM     21 CL   UNL     1       7.096   5.048  18.332  0.00  0.00    +0.000 Cl
ENDBRANCH  11  15
BRANCH   5  22
ATOM     22  C   UNL     1       1.059   8.222  21.514  0.00  0.00    +0.000 C 
ATOM     23  C   UNL     1       1.538   9.412  22.346  0.00  0.00    +0.000 C 
ATOM     24  C   UNL     1       0.504   9.549  23.445  0.00  0.00    +0.000 C 
ATOM     25  C   UNL     1      -0.801   9.026  22.850  0.00  0.00    +0.000 C 
ATOM     26  C   UNL     1      -0.454   8.397  21.501  0.00  0.00    +0.000 C 
ENDBRANCH   5  22
TORSDOF 2
ENDMDL
MODEL 3
REMARK VINA RESULT:      -7.7      4.648      6.484
REMARK  Name = 
REMARK  2 active torsions:
REMARK  status: ('A' for Active; 'I' for Inactive)
REMARK    1  A    between atoms: N_5  and  C_6
REMARK    2  A    between atoms: C_16  and  C_17
REMARK                            x       y       z     vdW  Elec       q    Type
REMARK                         _______ _______ _______ _____ _____    ______ ____
ROOT
ATOM      1  O   UNL     1       3.739   7.137  16.882  0.00  0.00    +0.000 OA
ATOM      2  C   UNL     1       3.268   7.006  18.007  0.00  0.00    +0.000 A 
ATOM      3  N   UNL     1       2.594   8.059  18.575  0.00  0.00    +0.000 N 
ATOM      4  C   UNL     1       1.934   8.005  19.761  0.00  0.00    +0.000 A 
ATOM      5  N   UNL     1       1.377   9.191  20.123  0.00  0.00    +0.000 N 
ATOM      6  N   UNL     1       1.878   6.913  20.447  0.00  0.00    +0.000 NA
ATOM      7  C   UNL     1       2.534   5.776  19.950  0.00  0.00    +0.000 A 
ATOM      8  N   UNL     1       2.351   4.683  20.722  0.00  0.00    +0.000 NA
ATOM      9  C   UNL     1       3.042   3.581  20.396  0.00  0.00    +0.000 A 
ATOM     10  C   UNL     1       3.964   3.528  19.361  0.00  0.00    +0.000 A 
ATOM     11  C   UNL     1       4.140   4.634  18.507  0.00  0.00    +0.000 A 
ATOM     12  C   UNL     1       3.351   5.772  18.810  0.00  0.00    +0.000 A 
ATOM     13  H   UNL     1       2.629   8.923  18.063  0.00  0.00    +0.000 HD
ATOM     14  H   UNL     1       1.037   9.783  19.380  0.00  0.00    +0.000 HD
ENDROOT
BRANCH  11  15
ATOM     15  C   UNL     1       5.167   4.569  17.418  0.00  0.00    +0.000 A 
ATOM     16  C   UNL     1       4.792   4.091  16.139  0.00  0.00    +0.000 A 
ATOM     17  C   UNL     1       5.714   3.913  15.101  0.00  0.00    +0.000 A 
ATOM     18  C   UNL     1       7.035   4.297  15.272  0.00  0.00    +0.000 A 
ATOM     19  C   UNL     1       7.428   4.852  16.484  0.00  0.00    +0.000 A 
ATOM     20  C   UNL     1       6.519   4.967  17.551  0.00  0.00    +0.000 A 
ATOM     21 CL   UNL     1       7.192   5.582  19.028  0.00  0.00    +0.000 Cl
ENDBRANCH  11  15
BRANCH   5  22
ATOM     22  C   UNL     1       0.893   9.515  21.449  0.00  0.00    +0.000 C 
ATOM     23  C   UNL     1       0.399  10.963  21.457  0.00  0.00    +0.000 C 
ATOM     24  C   UNL     1      -0.538  11.039  22.646  0.00  0.00    +0.000 C 
ATOM     25  C   UNL     1      -1.119   9.636  22.803  0.00  0.00    +0.000 C 
ATOM     26  C   UNL     1      -0.348   8.726  21.846  0.00  0.00    +0.000 C 
ENDBRANCH   5  22
TORSDOF 2
ENDMDL
MODEL 4
REMARK VINA RESULT:      -7.6      5.994      8.835
REMARK  Name = 
REMARK  2 active torsions:
REMARK  status: ('A' for Active; 'I' for Inactive)
REMARK    1  A    between atoms: N_5  and  C_6
REMARK    2  A    between atoms: C_16  and  C_17
REMARK                            x       y       z     vdW  Elec       q    Type
REMARK                         _______ _______ _______ _____ _____    ______ ____
ROOT
ATOM      1  O   UNL     1       2.120   9.985  17.530  0.00  0.00    +0.000 OA
ATOM      2  C   UNL     1       2.031   9.041  18.307  0.00  0.00    +0.000 A 
ATOM      3  N   UNL     1       2.482   7.806  17.911  0.00  0.00    +0.000 N 
ATOM      4  C   UNL     1       2.543   6.711  18.713  0.00  0.00    +0.000 A 
ATOM      5  N   UNL     1       2.992   5.599  18.075  0.00  0.00    +0.000 N 
ATOM      6  N   UNL     1       2.188   6.769  19.953  0.00  0.00    +0.000 NA
ATOM      7  C   UNL     1       1.715   7.991  20.457  0.00  0.00    +0.000 A 
ATOM      8  N   UNL     1       1.435   7.941  21.778  0.00  0.00    +0.000 NA
ATOM      9  C   UNL     1       0.858   9.024  22.322  0.00  0.00    +0.000 A 
ATOM     10  C   UNL     1       0.487  10.145  21.595  0.00  0.00    +0.000 A 
ATOM     11  C   UNL     1       0.810  10.247  20.228  0.00  0.00    +0.000 A 
ATOM     12  C   UNL     1       1.488   9.132  19.675  0.00  0.00    +0.000 A 
ATOM     13  H   UNL     1       2.757   7.734  16.947  0.00  0.00    +0.000 HD
ATOM     14  H   UNL     1       3.679   5.734  17.348  0.00  0.00    +0.000 HD
ENDROOT
BRANCH  11  15
ATOM     15  C   UNL     1       0.368  11.452  19.453  0.00  0.00    +0.000 A 
ATOM     16  C   UNL     1       1.134  12.640  19.522  0.00  0.00    +0.000 A 
ATOM     17  C   UNL     1       0.735  13.831  18.903  0.00  0.00    +0.000 A 
ATOM     18  C   UNL     1      -0.402  13.854  18.111  0.00  0.00    +0.000 A 
ATOM     19  C   UNL     1      -1.137  12.687  17.944  0.00  0.00    +0.000 A 
ATOM     20  C   UNL     1      -0.776  11.508  18.622  0.00  0.00    +0.000 A 
ATOM     21 CL   UNL     1      -1.856  10.168  18.392  0.00  0.00    +0.000 Cl
ENDBRANCH  11  15
BRANCH   5  22
ATOM     22  C   UNL     1       2.869   4.244  18.573  0.00  0.00    +0.000 C 
ATOM     23  C   UNL     1       1.482   3.708  18.216  0.00  0.00    +0.000 C 
ATOM     24  C   UNL     1       1.629   2.201  18.277  0.00  0.00    +0.000 C 
ATOM     25  C   UNL     1       3.086   1.914  17.924  0.00  0.00    +0.000 C 
ATOM     26  C   UNL     1       3.806   3.262  17.880  0.00  0.00    +0.000 C 
ENDBRANCH   5  22
TORSDOF 2
ENDMDL
MODEL 5
REMARK VINA RESULT:      -7.6      4.957      6.385
REMARK  Name = 
REMARK  2 active torsions:
REMARK  status: ('A' for Active; 'I' for Inactive)
REMARK    1  A    between atoms: N_5  and  C_6
REMARK    2  A    between atoms: C_16  and  C_17
REMARK                            x       y       z     vdW  Elec       q    Type
REMARK                         _______ _______ _______ _____ _____    ______ ____
ROOT
ATOM      1  O   UNL     1       3.848   7.352  16.657  0.00  0.00    +0.000 OA
ATOM      2  C   UNL     1       3.262   7.429  17.732  0.00  0.00    +0.000 A 
ATOM      3  N   UNL     1       2.618   8.598  18.057  0.00  0.00    +0.000 N 
ATOM      4  C   UNL     1       1.843   8.773  19.159  0.00  0.00    +0.000 A 
ATOM      5  N   UNL     1       1.346  10.032  19.275  0.00  0.00    +0.000 N 
ATOM      6  N   UNL     1       1.637   7.808  19.992  0.00  0.00    +0.000 NA
ATOM      7  C   UNL     1       2.249   6.570  19.747  0.00  0.00    +0.000 A 
ATOM      8  N   UNL     1       1.908   5.626  20.652  0.00  0.00    +0.000 NA
ATOM      9  C   UNL     1       2.542   4.446  20.573  0.00  0.00    +0.000 A 
ATOM     10  C   UNL     1       3.553   4.174  19.663  0.00  0.00    +0.000 A 
ATOM     11  C   UNL     1       3.896   5.118  18.676  0.00  0.00    +0.000 A 
ATOM     12  C   UNL     1       3.171   6.335  18.716  0.00  0.00    +0.000 A 
ATOM     13  H   UNL     1       2.769   9.366  17.427  0.00  0.00    +0.000 HD
ATOM     14  H   UNL     1       1.127  10.519  18.419  0.00  0.00    +0.000 HD
ENDROOT
BRANCH  11  15
ATOM     15  C   UNL     1       5.016   4.819  17.726  0.00  0.00    +0.000 A 
ATOM     16  C   UNL     1       4.717   4.313  16.438  0.00  0.00    +0.000 A 
ATOM     17  C   UNL     1       5.710   3.922  15.533  0.00  0.00    +0.000 A 
ATOM     18  C   UNL     1       7.048   4.111  15.845  0.00  0.00    +0.000 A 
ATOM     19  C   UNL     1       7.385   4.686  17.064  0.00  0.00    +0.000 A 
ATOM     20  C   UNL     1       6.390   5.014  18.004  0.00  0.00    +0.000 A 
ATOM     21 CL   UNL     1       6.981   5.625  19.517  0.00  0.00    +0.000 Cl
ENDBRANCH  11  15
BRANCH   5  22
ATOM     22  C   UNL     1       0.762  10.591  20.477  0.00  0.00    +0.000 C 
ATOM     23  C   UNL     1       1.109  12.079  20.552  0.00  0.00    +0.000 C 
ATOM     24  C   UNL     1       0.065  12.667  21.480  0.00  0.00    +0.000 C 
ATOM     25  C   UNL     1      -1.175  11.794  21.312  0.00  0.00    +0.000 C 
ATOM     26  C   UNL     1      -0.761  10.594  20.460  0.00  0.00    +0.000 C 
ENDBRANCH   5  22
TORSDOF 2
ENDMDL
MODEL 6
REMARK VINA RESULT:      -7.3      5.126      6.569
REMARK  Name = 
REMARK  2 active torsions:
REMARK  status: ('A' for Active; 'I' for Inactive)
REMARK    1  A    between atoms: N_5  and  C_6
REMARK    2  A    between atoms: C_16  and  C_17
REMARK                            x       y       z     vdW  Elec       q    Type
REMARK                         _______ _______ _______ _____ _____    ______ ____
ROOT
ATOM      1  O   UNL     1       3.884   7.439  17.035  0.00  0.00    +0.000 OA
ATOM      2  C   UNL     1       3.174   7.563  18.027  0.00  0.00    +0.000 A 
ATOM      3  N   UNL     1       2.450   8.718  18.190  0.00  0.00    +0.000 N 
ATOM      4  C   UNL     1       1.545   8.932  19.181  0.00  0.00    +0.000 A 
ATOM      5  N   UNL     1       0.988  10.170  19.145  0.00  0.00    +0.000 N 
ATOM      6  N   UNL     1       1.283   8.019  20.055  0.00  0.00    +0.000 NA
ATOM      7  C   UNL     1       1.969   6.797  19.974  0.00  0.00    +0.000 A 
ATOM      8  N   UNL     1       1.563   5.903  20.902  0.00  0.00    +0.000 NA
ATOM      9  C   UNL     1       2.248   4.752  20.983  0.00  0.00    +0.000 A 
ATOM     10  C   UNL     1       3.369   4.468  20.217  0.00  0.00    +0.000 A 
ATOM     11  C   UNL     1       3.786   5.357  19.207  0.00  0.00    +0.000 A 
ATOM     12  C   UNL     1       3.013   6.536  19.074  0.00  0.00    +0.000 A 
ATOM     13  H   UNL     1       2.642   9.448  17.525  0.00  0.00    +0.000 HD
ATOM     14  H   UNL     1       0.850  10.585  18.236  0.00  0.00    +0.000 HD
ENDROOT
BRANCH  11  15
ATOM     15  C   UNL     1       5.020   5.047  18.416  0.00  0.00    +0.000 A 
ATOM     16  C   UNL     1       6.275   5.516  18.875  0.00  0.00    +0.000 A 
ATOM     17  C   UNL     1       7.456   5.348  18.142  0.00  0.00    +0.000 A 
ATOM     18  C   UNL     1       7.444   4.618  16.964  0.00  0.00    +0.000 A 
ATOM     19  C   UNL     1       6.249   4.065  16.520  0.00  0.00    +0.000 A 
ATOM     20  C   UNL     1       5.049   4.293  17.218  0.00  0.00    +0.000 A 
ATOM     21 CL   UNL     1       3.630   3.622  16.478  0.00  0.00    +0.000 Cl
ENDBRANCH  11  15
BRANCH   5  22
ATOM     22  C   UNL     1       0.246  10.783  20.229  0.00  0.00    +0.000 C 
ATOM     23  C   UNL     1       1.024  11.996  20.739  0.00  0.00    +0.000 C 
ATOM     24  C   UNL     1      -0.015  12.845  21.444  0.00  0.00    +0.000 C 
ATOM     25  C   UNL     1      -1.335  12.555  20.735  0.00  0.00    +0.000 C 
ATOM     26  C   UNL     1      -1.080  11.387  19.782  0.00  0.00    +0.000 C 
ENDBRANCH   5  22
TORSDOF 2
ENDMDL
MODEL 7
REMARK VINA RESULT:      -7.2      5.675      6.756
REMARK  Name = 
REMARK  2 active torsions:
REMARK  status: ('A' for Active; 'I' for Inactive)
REMARK    1  A    between atoms: N_5  and  C_6
REMARK    2  A    between atoms: C_16  and  C_17
REMARK                            x       y       z     vdW  Elec       q    Type
REMARK                         _______ _______ _______ _____ _____    ______ ____
ROOT
ATOM      1  O   UNL     1       2.923   8.035  16.861  0.00  0.00    +0.000 OA
ATOM      2  C   UNL     1       2.418   8.677  17.776  0.00  0.00    +0.000 A 
ATOM      3  N   UNL     1       2.169  10.015  17.594  0.00  0.00    +0.000 N 
ATOM      4  C   UNL     1       1.514  10.808  18.483  0.00  0.00    +0.000 A 
ATOM      5  N   UNL     1       1.427  12.104  18.086  0.00  0.00    +0.000 N 
ATOM      6  N   UNL     1       1.048  10.331  19.588  0.00  0.00    +0.000 NA
ATOM      7  C   UNL     1       1.247   8.970  19.867  0.00  0.00    +0.000 A 
ATOM      8  N   UNL     1       0.661   8.578  21.019  0.00  0.00    +0.000 NA
ATOM      9  C   UNL     1       0.903   7.325  21.433  0.00  0.00    +0.000 A 
ATOM     10  C   UNL     1       1.758   6.450  20.779  0.00  0.00    +0.000 A 
ATOM     11  C   UNL     1       2.344   6.811  19.551  0.00  0.00    +0.000 A 
ATOM     12  C   UNL     1       2.025   8.109  19.079  0.00  0.00    +0.000 A 
ATOM     13  H   UNL     1       2.529  10.411  16.744  0.00  0.00    +0.000 HD
ATOM     14  H   UNL     1       1.343  12.276  17.095  0.00  0.00    +0.000 HD
ENDROOT
BRANCH  11  15
ATOM     15  C   UNL     1       3.294   5.865  18.880  0.00  0.00    +0.000 A 
ATOM     16  C   UNL     1       4.682   5.981  19.132  0.00  0.00    +0.000 A 
ATOM     17  C   UNL     1       5.636   5.197  18.472  0.00  0.00    +0.000 A 
ATOM     18  C   UNL     1       5.230   4.198  17.601  0.00  0.00    +0.000 A 
ATOM     19  C   UNL     1       3.873   3.991  17.390  0.00  0.00    +0.000 A 
ATOM     20  C   UNL     1       2.916   4.824  17.998  0.00  0.00    +0.000 A 
ATOM     21 CL   UNL     1       1.270   4.503  17.550  0.00  0.00    +0.000 Cl
ENDBRANCH  11  15
BRANCH   5  22
ATOM     22  C   UNL     1       1.074  13.217  18.944  0.00  0.00    +0.000 C 
ATOM     23  C   UNL     1       2.014  14.388  18.651  0.00  0.00    +0.000 C 
ATOM     24  C   UNL     1       1.272  15.608  19.157  0.00  0.00    +0.000 C 
ATOM     25  C   UNL     1      -0.211  15.276  19.017  0.00  0.00    +0.000 C 
ATOM     26  C   UNL     1      -0.301  13.797  18.641  0.00  0.00    +0.000 C 
ENDBRANCH   5  22
TORSDOF 2
ENDMDL
MODEL 8
REMARK VINA RESULT:      -7.2      6.073      8.861
REMARK  Name = 
REMARK  2 active torsions:
REMARK  status: ('A' for Active; 'I' for Inactive)
REMARK    1  A    between atoms: N_5  and  C_6
REMARK    2  A    between atoms: C_16  and  C_17
REMARK                            x       y       z     vdW  Elec       q    Type
REMARK                         _______ _______ _______ _____ _____    ______ ____
ROOT
ATOM      1  O   UNL     1       2.001   9.954  17.521  0.00  0.00    +0.000 OA
ATOM      2  C   UNL     1       1.954   9.012  18.304  0.00  0.00    +0.000 A 
ATOM      3  N   UNL     1       2.409   7.782  17.897  0.00  0.00    +0.000 N 
ATOM      4  C   UNL     1       2.514   6.691  18.701  0.00  0.00    +0.000 A 
ATOM      5  N   UNL     1       2.958   5.583  18.051  0.00  0.00    +0.000 N 
ATOM      6  N   UNL     1       2.201   6.749  19.952  0.00  0.00    +0.000 NA
ATOM      7  C   UNL     1       1.727   7.966  20.468  0.00  0.00    +0.000 A 
ATOM      8  N   UNL     1       1.494   7.917  21.797  0.00  0.00    +0.000 NA
ATOM      9  C   UNL     1       0.920   8.993  22.357  0.00  0.00    +0.000 A 
ATOM     10  C   UNL     1       0.507  10.106  21.639  0.00  0.00    +0.000 A 
ATOM     11  C   UNL     1       0.782  10.208  20.262  0.00  0.00    +0.000 A 
ATOM     12  C   UNL     1       1.456   9.101  19.690  0.00  0.00    +0.000 A 
ATOM     13  H   UNL     1       2.652   7.710  16.925  0.00  0.00    +0.000 HD
ATOM     14  H   UNL     1       3.616   5.725  17.300  0.00  0.00    +0.000 HD
ENDROOT
BRANCH  11  15
ATOM     15  C   UNL     1       0.295  11.402  19.498  0.00  0.00    +0.000 A 
ATOM     16  C   UNL     1      -0.899  11.305  18.745  0.00  0.00    +0.000 A 
ATOM     17  C   UNL     1      -1.365  12.345  17.933  0.00  0.00    +0.000 A 
ATOM     18  C   UNL     1      -0.703  13.563  17.917  0.00  0.00    +0.000 A 
ATOM     19  C   UNL     1       0.425  13.732  18.710  0.00  0.00    +0.000 A 
ATOM     20  C   UNL     1       0.935  12.665  19.472  0.00  0.00    +0.000 A 
ATOM     21 CL   UNL     1       2.408  13.007  20.324  0.00  0.00    +0.000 Cl
ENDBRANCH  11  15
BRANCH   5  22
ATOM     22  C   UNL     1       2.872   4.229  18.558  0.00  0.00    +0.000 C 
ATOM     23  C   UNL     1       1.470   3.684  18.284  0.00  0.00    +0.000 C 
ATOM     24  C   UNL     1       1.629   2.178  18.339  0.00  0.00    +0.000 C 
ATOM     25  C   UNL     1       3.065   1.899  17.902  0.00  0.00    +0.000 C 
ATOM     26  C   UNL     1       3.773   3.251  17.814  0.00  0.00    +0.000 C 
ENDBRANCH   5  22
TORSDOF 2
ENDMDL
MODEL 9
REMARK VINA RESULT:      -7.1      4.888      6.779
REMARK  Name = 
REMARK  2 active torsions:
REMARK  status: ('A' for Active; 'I' for Inactive)
REMARK    1  A    between atoms: N_5  and  C_6
REMARK    2  A    between atoms: C_16  and  C_17
REMARK                            x       y       z     vdW  Elec       q    Type
REMARK                         _______ _______ _______ _____ _____    ______ ____
ROOT
ATOM      1  O   UNL     1       3.943   7.316  17.686  0.00  0.00    +0.000 OA
ATOM      2  C   UNL     1       3.154   7.148  18.609  0.00  0.00    +0.000 A 
ATOM      3  N   UNL     1       2.288   8.161  18.939  0.00  0.00    +0.000 N 
ATOM      4  C   UNL     1       1.296   8.061  19.862  0.00  0.00    +0.000 A 
ATOM      5  N   UNL     1       0.599   9.215  20.032  0.00  0.00    +0.000 N 
ATOM      6  N   UNL     1       1.082   6.958  20.498  0.00  0.00    +0.000 NA
ATOM      7  C   UNL     1       1.914   5.859  20.229  0.00  0.00    +0.000 A 
ATOM      8  N   UNL     1       1.552   4.748  20.908  0.00  0.00    +0.000 NA
ATOM      9  C   UNL     1       2.362   3.683  20.813  0.00  0.00    +0.000 A 
ATOM     10  C   UNL     1       3.560   3.687  20.115  0.00  0.00    +0.000 A 
ATOM     11  C   UNL     1       3.939   4.812  19.357  0.00  0.00    +0.000 A 
ATOM     12  C   UNL     1       3.042   5.908  19.399  0.00  0.00    +0.000 A 
ATOM     13  H   UNL     1       2.439   9.033  18.463  0.00  0.00    +0.000 HD
ATOM     14  H   UNL     1       0.478   9.802  19.221  0.00  0.00    +0.000 HD
ENDROOT
BRANCH  11  15
ATOM     15  C   UNL     1       5.255   4.809  18.639  0.00  0.00    +0.000 A 
ATOM     16  C   UNL     1       6.407   5.302  19.299  0.00  0.00    +0.000 A 
ATOM     17  C   UNL     1       7.648   5.418  18.663  0.00  0.00    +0.000 A 
ATOM     18  C   UNL     1       7.810   4.955  17.366  0.00  0.00    +0.000 A 
ATOM     19  C   UNL     1       6.727   4.382  16.710  0.00  0.00    +0.000 A 
ATOM     20  C   UNL     1       5.461   4.330  17.323  0.00  0.00    +0.000 A 
ATOM     21 CL   UNL     1       4.192   3.682  16.333  0.00  0.00    +0.000 Cl
ENDBRANCH  11  15
BRANCH   5  22
ATOM     22  C   UNL     1      -0.287   9.499  21.144  0.00  0.00    +0.000 C 
ATOM     23  C   UNL     1       0.458   9.232  22.453  0.00  0.00    +0.000 C 
ATOM     24  C   UNL     1      -0.302  10.031  23.492  0.00  0.00    +0.000 C 
ATOM     25  C   UNL     1      -0.898  11.219  22.743  0.00  0.00    +0.000 C 
ATOM     26  C   UNL     1      -0.659  10.972  21.254  0.00  0.00    +0.000 C 
ENDBRANCH   5  22
TORSDOF 2
ENDMDL
