MODEL 1
REMARK VINA RESULT:      -8.9      0.000      0.000
REMARK  Name = 
REMARK  8 active torsions:
REMARK  status: ('A' for Active; 'I' for Inactive)
REMARK    1  A    between atoms: C_2  and  O_3
REMARK    2  A    between atoms: C_2  and  C_4
REMARK    3  A    between atoms: C_7  and  S_8
REMARK    4  A    between atoms: S_8  and  N_11
REMARK    5  A    between atoms: N_11  and  C_12
REMARK    6  A    between atoms: N_11  and  C_19
REMARK    7  A    between atoms: C_12  and  C_13
REMARK    8  A    between atoms: C_19  and  C_20
REMARK                            x       y       z     vdW  Elec       q    Type
REMARK                         _______ _______ _______ _____ _____    ______ ____
ROOT
ATOM      1  N   UNL     1       5.469   5.626  18.073  0.00  0.00    +0.000 NA
ENDROOT
BRANCH   1   2
ATOM      2  S   UNL     1       6.827   5.748  17.032  0.00  0.00    +0.000 S 
ATOM      3  O   UNL     1       7.831   4.810  17.489  0.00  0.00    +0.000 OA
ATOM      4  O   UNL     1       7.145   7.147  16.864  0.00  0.00    +0.000 OA
BRANCH   2   8
ATOM      5  C   UNL     1       6.069   3.682  13.029  0.00  0.00    +0.000 A 
ATOM      6  C   UNL     1       7.159   4.547  13.184  0.00  0.00    +0.000 A 
ATOM      7  C   UNL     1       7.283   5.316  14.351  0.00  0.00    +0.000 A 
ATOM      8  C   UNL     1       6.330   5.217  15.383  0.00  0.00    +0.000 A 
ATOM      9  C   UNL     1       5.235   4.367  15.223  0.00  0.00    +0.000 A 
ATOM     10  C   UNL     1       5.103   3.612  14.045  0.00  0.00    +0.000 A 
BRANCH   5  12
ATOM     11  O   UNL     1       4.894   2.528  11.312  0.00  0.00    +0.000 OA
ATOM     12  C   UNL     1       5.952   2.734  11.884  0.00  0.00    +0.000 C 
BRANCH  12  13
ATOM     13  O   UNL     1       7.102   2.132  11.516  0.00  0.00    +0.000 OA
ATOM     14  H   UNL     1       7.436   1.441  12.113  0.00  0.00    +0.000 HD
ENDBRANCH  12  13
ENDBRANCH   5  12
ENDBRANCH   2   8
ENDBRANCH   1   2
BRANCH   1  15
ATOM     15  C   UNL     1       4.158   5.896  17.402  0.00  0.00    +0.000 C 
BRANCH  15  16
ATOM     16  C   UNL     1       3.261   6.930  18.073  0.00  0.00    +0.000 A 
ATOM     17  C   UNL     1       2.889   8.107  17.411  0.00  0.00    +0.000 A 
ATOM     18  C   UNL     1       2.045   9.038  18.033  0.00  0.00    +0.000 A 
ATOM     19  C   UNL     1       1.584   8.818  19.332  0.00  0.00    +0.000 A 
ATOM     20  C   UNL     1       1.944   7.656  20.002  0.00  0.00    +0.000 A 
ATOM     21  C   UNL     1       2.752   6.708  19.367  0.00  0.00    +0.000 A 
ENDBRANCH  15  16
ENDBRANCH   1  15
BRANCH   1  22
ATOM     22  C   UNL     1       5.478   4.369  18.905  0.00  0.00    +0.000 C 
BRANCH  22  23
ATOM     23  C   UNL     1       4.198   3.547  18.958  0.00  0.00    +0.000 A 
ATOM     24  C   UNL     1       3.751   2.828  17.842  0.00  0.00    +0.000 A 
ATOM     25  C   UNL     1       2.614   2.016  17.907  0.00  0.00    +0.000 A 
ATOM     26  C   UNL     1       1.881   1.935  19.087  0.00  0.00    +0.000 A 
ATOM     27  C   UNL     1       2.276   2.687  20.188  0.00  0.00    +0.000 A 
ATOM     28 CL   UNL     1       1.351   2.630  21.637  0.00  0.00    +0.000 Cl
ATOM     29  C   UNL     1       3.414   3.494  20.123  0.00  0.00    +0.000 A 
ENDBRANCH  22  23
ENDBRANCH   1  22
TORSDOF 8
ENDMDL
MODEL 2
REMARK VINA RESULT:      -8.8      0.640      1.425
REMARK  Name = 
REMARK  8 active torsions:
REMARK  status: ('A' for Active; 'I' for Inactive)
REMARK    1  A    between atoms: C_2  and  O_3
REMARK    2  A    between atoms: C_2  and  C_4
REMARK    3  A    between atoms: C_7  and  S_8
REMARK    4  A    between atoms: S_8  and  N_11
REMARK    5  A    between atoms: N_11  and  C_12
REMARK    6  A    between atoms: N_11  and  C_19
REMARK    7  A    between atoms: C_12  and  C_13
REMARK    8  A    between atoms: C_19  and  C_20
REMARK                            x       y       z     vdW  Elec       q    Type
REMARK                         _______ _______ _______ _____ _____    ______ ____
ROOT
ATOM      1  N   UNL     1       5.153   5.781  18.385  0.00  0.00    +0.000 NA
ENDROOT
BRANCH   1   2
ATOM      2  S   UNL     1       6.575   6.193  17.519  0.00  0.00    +0.000 S 
ATOM      3  O   UNL     1       7.714   5.944  18.378  0.00  0.00    +0.000 OA
ATOM      4  O   UNL     1       6.377   7.489  16.911  0.00  0.00    +0.000 OA
BRANCH   2   8
ATOM      5  C   UNL     1       6.229   3.778  13.656  0.00  0.00    +0.000 A 
ATOM      6  C   UNL     1       5.580   3.349  14.821  0.00  0.00    +0.000 A 
ATOM      7  C   UNL     1       5.837   3.989  16.042  0.00  0.00    +0.000 A 
ATOM      8  C   UNL     1       6.729   5.076  16.112  0.00  0.00    +0.000 A 
ATOM      9  C   UNL     1       7.388   5.496  14.955  0.00  0.00    +0.000 A 
ATOM     10  C   UNL     1       7.144   4.840  13.737  0.00  0.00    +0.000 A 
BRANCH   5  12
ATOM     11  O   UNL     1       4.805   3.404  11.787  0.00  0.00    +0.000 OA
ATOM     12  C   UNL     1       5.897   3.240  12.306  0.00  0.00    +0.000 C 
BRANCH  12  13
ATOM     13  O   UNL     1       6.896   2.573  11.692  0.00  0.00    +0.000 OA
ATOM     14  H   UNL     1       7.706   2.436  12.213  0.00  0.00    +0.000 HD
ENDBRANCH  12  13
ENDBRANCH   5  12
ENDBRANCH   2   8
ENDBRANCH   1   2
BRANCH   1  15
ATOM     15  C   UNL     1       3.883   6.092  17.657  0.00  0.00    +0.000 C 
BRANCH  15  16
ATOM     16  C   UNL     1       2.974   7.130  18.305  0.00  0.00    +0.000 A 
ATOM     17  C   UNL     1       2.494   6.961  19.610  0.00  0.00    +0.000 A 
ATOM     18  C   UNL     1       1.677   7.934  20.201  0.00  0.00    +0.000 A 
ATOM     19  C   UNL     1       1.307   9.075  19.488  0.00  0.00    +0.000 A 
ATOM     20  C   UNL     1       1.773   9.258  18.192  0.00  0.00    +0.000 A 
ATOM     21  C   UNL     1       2.622   8.307  17.617  0.00  0.00    +0.000 A 
ENDBRANCH  15  16
ENDBRANCH   1  15
BRANCH   1  22
ATOM     22  C   UNL     1       5.199   4.388  18.960  0.00  0.00    +0.000 C 
BRANCH  22  23
ATOM     23  C   UNL     1       3.891   3.615  19.044  0.00  0.00    +0.000 A 
ATOM     24  C   UNL     1       3.345   2.990  17.916  0.00  0.00    +0.000 A 
ATOM     25  C   UNL     1       2.180   2.219  18.002  0.00  0.00    +0.000 A 
ATOM     26  C   UNL     1       1.520   2.088  19.219  0.00  0.00    +0.000 A 
ATOM     27  C   UNL     1       2.014   2.749  20.338  0.00  0.00    +0.000 A 
ATOM     28 CL   UNL     1       1.180   2.631  21.838  0.00  0.00    +0.000 Cl
ATOM     29  C   UNL     1       3.180   3.514  20.251  0.00  0.00    +0.000 A 
ENDBRANCH  22  23
ENDBRANCH   1  22
TORSDOF 8
ENDMDL
MODEL 3
REMARK VINA RESULT:      -8.7      0.639      1.235
REMARK  Name = 
REMARK  8 active torsions:
REMARK  status: ('A' for Active; 'I' for Inactive)
REMARK    1  A    between atoms: C_2  and  O_3
REMARK    2  A    between atoms: C_2  and  C_4
REMARK    3  A    between atoms: C_7  and  S_8
REMARK    4  A    between atoms: S_8  and  N_11
REMARK    5  A    between atoms: N_11  and  C_12
REMARK    6  A    between atoms: N_11  and  C_19
REMARK    7  A    between atoms: C_12  and  C_13
REMARK    8  A    between atoms: C_19  and  C_20
REMARK                            x       y       z     vdW  Elec       q    Type
REMARK                         _______ _______ _______ _____ _____    ______ ____
ROOT
ATOM      1  N   UNL     1       5.205   5.746  18.361  0.00  0.00    +0.000 NA
ENDROOT
BRANCH   1   2
ATOM      2  S   UNL     1       6.639   6.170  17.520  0.00  0.00    +0.000 S 
ATOM      3  O   UNL     1       7.767   5.892  18.384  0.00  0.00    +0.000 OA
ATOM      4  O   UNL     1       6.455   7.482  16.944  0.00  0.00    +0.000 OA
BRANCH   2   8
ATOM      5  C   UNL     1       6.276   3.806  13.628  0.00  0.00    +0.000 A 
ATOM      6  C   UNL     1       5.703   3.319  14.809  0.00  0.00    +0.000 A 
ATOM      7  C   UNL     1       5.971   3.952  16.032  0.00  0.00    +0.000 A 
ATOM      8  C   UNL     1       6.800   5.089  16.087  0.00  0.00    +0.000 A 
ATOM      9  C   UNL     1       7.384   5.567  14.913  0.00  0.00    +0.000 A 
ATOM     10  C   UNL     1       7.129   4.919  13.692  0.00  0.00    +0.000 A 
BRANCH   5  12
ATOM     11  O   UNL     1       6.725   2.677  11.582  0.00  0.00    +0.000 OA
ATOM     12  C   UNL     1       5.921   3.272  12.282  0.00  0.00    +0.000 C 
BRANCH  12  13
ATOM     13  O   UNL     1       4.644   3.481  11.899  0.00  0.00    +0.000 OA
ATOM     14  H   UNL     1       4.507   4.147  11.205  0.00  0.00    +0.000 HD
ENDBRANCH  12  13
ENDBRANCH   5  12
ENDBRANCH   2   8
ENDBRANCH   1   2
BRANCH   1  15
ATOM     15  C   UNL     1       3.944   6.073  17.623  0.00  0.00    +0.000 C 
BRANCH  15  16
ATOM     16  C   UNL     1       3.036   7.111  18.274  0.00  0.00    +0.000 A 
ATOM     17  C   UNL     1       2.642   8.265  17.584  0.00  0.00    +0.000 A 
ATOM     18  C   UNL     1       1.789   9.199  18.188  0.00  0.00    +0.000 A 
ATOM     19  C   UNL     1       1.340   9.007  19.495  0.00  0.00    +0.000 A 
ATOM     20  C   UNL     1       1.722   7.868  20.193  0.00  0.00    +0.000 A 
ATOM     21  C   UNL     1       2.539   6.915  19.577  0.00  0.00    +0.000 A 
ENDBRANCH  15  16
ENDBRANCH   1  15
BRANCH   1  22
ATOM     22  C   UNL     1       5.240   4.342  18.910  0.00  0.00    +0.000 C 
BRANCH  22  23
ATOM     23  C   UNL     1       3.924   3.583  18.997  0.00  0.00    +0.000 A 
ATOM     24  C   UNL     1       3.364   2.969  17.869  0.00  0.00    +0.000 A 
ATOM     25  C   UNL     1       2.191   2.212  17.959  0.00  0.00    +0.000 A 
ATOM     26  C   UNL     1       1.535   2.085  19.179  0.00  0.00    +0.000 A 
ATOM     27  C   UNL     1       2.043   2.736  20.298  0.00  0.00    +0.000 A 
ATOM     28 CL   UNL     1       1.215   2.623  21.802  0.00  0.00    +0.000 Cl
ATOM     29  C   UNL     1       3.217   3.487  20.208  0.00  0.00    +0.000 A 
ENDBRANCH  22  23
ENDBRANCH   1  22
TORSDOF 8
ENDMDL
MODEL 4
REMARK VINA RESULT:      -8.5      3.148      7.111
REMARK  Name = 
REMARK  8 active torsions:
REMARK  status: ('A' for Active; 'I' for Inactive)
REMARK    1  A    between atoms: C_2  and  O_3
REMARK    2  A    between atoms: C_2  and  C_4
REMARK    3  A    between atoms: C_7  and  S_8
REMARK    4  A    between atoms: S_8  and  N_11
REMARK    5  A    between atoms: N_11  and  C_12
REMARK    6  A    between atoms: N_11  and  C_19
REMARK    7  A    between atoms: C_12  and  C_13
REMARK    8  A    between atoms: C_19  and  C_20
REMARK                            x       y       z     vdW  Elec       q    Type
REMARK                         _______ _______ _______ _____ _____    ______ ____
ROOT
ATOM      1  N   UNL     1       5.319   4.898  16.898  0.00  0.00    +0.000 NA
ENDROOT
BRANCH   1   2
ATOM      2  S   UNL     1       5.075   6.588  16.735  0.00  0.00    +0.000 S 
ATOM      3  O   UNL     1       4.828   6.875  15.338  0.00  0.00    +0.000 OA
ATOM      4  O   UNL     1       6.127   7.269  17.455  0.00  0.00    +0.000 OA
BRANCH   2   8
ATOM      5  C   UNL     1       1.839   8.189  19.535  0.00  0.00    +0.000 A 
ATOM      6  C   UNL     1       2.489   6.982  19.820  0.00  0.00    +0.000 A 
ATOM      7  C   UNL     1       3.346   6.406  18.871  0.00  0.00    +0.000 A 
ATOM      8  C   UNL     1       3.578   7.037  17.633  0.00  0.00    +0.000 A 
ATOM      9  C   UNL     1       2.920   8.232  17.341  0.00  0.00    +0.000 A 
ATOM     10  C   UNL     1       2.047   8.798  18.287  0.00  0.00    +0.000 A 
BRANCH   5  12
ATOM     11  O   UNL     1       0.338   9.888  20.257  0.00  0.00    +0.000 OA
ATOM     12  C   UNL     1       1.032   8.927  20.548  0.00  0.00    +0.000 C 
BRANCH  12  13
ATOM     13  O   UNL     1       1.112   8.448  21.807  0.00  0.00    +0.000 OA
ATOM     14  H   UNL     1       1.219   9.107  22.512  0.00  0.00    +0.000 HD
ENDBRANCH  12  13
ENDBRANCH   5  12
ENDBRANCH   2   8
ENDBRANCH   1   2
BRANCH   1  15
ATOM     15  C   UNL     1       4.146   4.068  16.476  0.00  0.00    +0.000 C 
BRANCH  15  16
ATOM     16  C   UNL     1       3.354   3.405  17.598  0.00  0.00    +0.000 A 
ATOM     17  C   UNL     1       3.999   2.844  18.708  0.00  0.00    +0.000 A 
ATOM     18  C   UNL     1       3.256   2.258  19.742  0.00  0.00    +0.000 A 
ATOM     19  C   UNL     1       1.863   2.201  19.669  0.00  0.00    +0.000 A 
ATOM     20  C   UNL     1       1.209   2.752  18.575  0.00  0.00    +0.000 A 
ATOM     21  C   UNL     1       1.947   3.374  17.563  0.00  0.00    +0.000 A 
ENDBRANCH  15  16
ENDBRANCH   1  15
BRANCH   1  22
ATOM     22  C   UNL     1       6.631   4.435  16.318  0.00  0.00    +0.000 C 
BRANCH  22  23
ATOM     23  C   UNL     1       6.778   4.444  14.804  0.00  0.00    +0.000 A 
ATOM     24  C   UNL     1       7.692   5.295  14.169  0.00  0.00    +0.000 A 
ATOM     25  C   UNL     1       7.881   5.257  12.783  0.00  0.00    +0.000 A 
ATOM     26  C   UNL     1       7.129   4.387  12.000  0.00  0.00    +0.000 A 
ATOM     27  C   UNL     1       6.174   3.577  12.606  0.00  0.00    +0.000 A 
ATOM     28 CL   UNL     1       5.207   2.531  11.642  0.00  0.00    +0.000 Cl
ATOM     29  C   UNL     1       5.991   3.612  13.990  0.00  0.00    +0.000 A 
ENDBRANCH  22  23
ENDBRANCH   1  22
TORSDOF 8
ENDMDL
MODEL 5
REMARK VINA RESULT:      -8.4      2.004      4.415
REMARK  Name = 
REMARK  8 active torsions:
REMARK  status: ('A' for Active; 'I' for Inactive)
REMARK    1  A    between atoms: C_2  and  O_3
REMARK    2  A    between atoms: C_2  and  C_4
REMARK    3  A    between atoms: C_7  and  S_8
REMARK    4  A    between atoms: S_8  and  N_11
REMARK    5  A    between atoms: N_11  and  C_12
REMARK    6  A    between atoms: N_11  and  C_19
REMARK    7  A    between atoms: C_12  and  C_13
REMARK    8  A    between atoms: C_19  and  C_20
REMARK                            x       y       z     vdW  Elec       q    Type
REMARK                         _______ _______ _______ _____ _____    ______ ____
ROOT
ATOM      1  N   UNL     1       3.619   5.803  18.115  0.00  0.00    +0.000 NA
ENDROOT
BRANCH   1   2
ATOM      2  S   UNL     1       5.302   5.986  17.842  0.00  0.00    +0.000 S 
ATOM      3  O   UNL     1       6.005   5.484  19.003  0.00  0.00    +0.000 OA
ATOM      4  O   UNL     1       5.539   7.326  17.356  0.00  0.00    +0.000 OA
BRANCH   2   8
ATOM      5  C   UNL     1       6.371   4.065  13.837  0.00  0.00    +0.000 A 
ATOM      6  C   UNL     1       5.044   4.081  14.283  0.00  0.00    +0.000 A 
ATOM      7  C   UNL     1       4.748   4.505  15.587  0.00  0.00    +0.000 A 
ATOM      8  C   UNL     1       5.771   4.935  16.454  0.00  0.00    +0.000 A 
ATOM      9  C   UNL     1       7.096   4.907  16.015  0.00  0.00    +0.000 A 
ATOM     10  C   UNL     1       7.391   4.464  14.715  0.00  0.00    +0.000 A 
BRANCH   5  12
ATOM     11  O   UNL     1       7.358   4.555  11.728  0.00  0.00    +0.000 OA
ATOM     12  C   UNL     1       6.741   3.765  12.424  0.00  0.00    +0.000 C 
BRANCH  12  13
ATOM     13  O   UNL     1       6.357   2.552  11.975  0.00  0.00    +0.000 OA
ATOM     14  H   UNL     1       6.993   1.827  12.099  0.00  0.00    +0.000 HD
ENDBRANCH  12  13
ENDBRANCH   5  12
ENDBRANCH   2   8
ENDBRANCH   1   2
BRANCH   1  15
ATOM     15  C   UNL     1       3.126   4.396  17.972  0.00  0.00    +0.000 C 
BRANCH  15  16
ATOM     16  C   UNL     1       2.570   3.748  19.234  0.00  0.00    +0.000 A 
ATOM     17  C   UNL     1       1.194   3.729  19.496  0.00  0.00    +0.000 A 
ATOM     18  C   UNL     1       0.696   3.109  20.650  0.00  0.00    +0.000 A 
ATOM     19  C   UNL     1       1.567   2.524  21.571  0.00  0.00    +0.000 A 
ATOM     20  C   UNL     1       2.934   2.534  21.327  0.00  0.00    +0.000 A 
ATOM     21  C   UNL     1       3.428   3.116  20.155  0.00  0.00    +0.000 A 
ENDBRANCH  15  16
ENDBRANCH   1  15
BRANCH   1  22
ATOM     22  C   UNL     1       3.150   6.485  19.375  0.00  0.00    +0.000 C 
BRANCH  22  23
ATOM     23  C   UNL     1       2.263   7.712  19.228  0.00  0.00    +0.000 A 
ATOM     24  C   UNL     1       2.113   8.355  17.992  0.00  0.00    +0.000 A 
ATOM     25  C   UNL     1       1.244   9.440  17.835  0.00  0.00    +0.000 A 
ATOM     26  C   UNL     1       0.532   9.926  18.928  0.00  0.00    +0.000 A 
ATOM     27  C   UNL     1       0.713   9.339  20.176  0.00  0.00    +0.000 A 
ATOM     28 CL   UNL     1      -0.127   9.962  21.542  0.00  0.00    +0.000 Cl
ATOM     29  C   UNL     1       1.577   8.252  20.329  0.00  0.00    +0.000 A 
ENDBRANCH  22  23
ENDBRANCH   1  22
TORSDOF 8
ENDMDL
MODEL 6
REMARK VINA RESULT:      -8.4      1.908      4.331
REMARK  Name = 
REMARK  8 active torsions:
REMARK  status: ('A' for Active; 'I' for Inactive)
REMARK    1  A    between atoms: C_2  and  O_3
REMARK    2  A    between atoms: C_2  and  C_4
REMARK    3  A    between atoms: C_7  and  S_8
REMARK    4  A    between atoms: S_8  and  N_11
REMARK    5  A    between atoms: N_11  and  C_12
REMARK    6  A    between atoms: N_11  and  C_19
REMARK    7  A    between atoms: C_12  and  C_13
REMARK    8  A    between atoms: C_19  and  C_20
REMARK                            x       y       z     vdW  Elec       q    Type
REMARK                         _______ _______ _______ _____ _____    ______ ____
ROOT
ATOM      1  N   UNL     1       4.028   5.576  18.211  0.00  0.00    +0.000 NA
ENDROOT
BRANCH   1   2
ATOM      2  S   UNL     1       5.739   5.558  18.107  0.00  0.00    +0.000 S 
ATOM      3  O   UNL     1       6.249   4.759  19.202  0.00  0.00    +0.000 OA
ATOM      4  O   UNL     1       6.195   6.914  17.907  0.00  0.00    +0.000 OA
BRANCH   2   8
ATOM      5  C   UNL     1       6.334   3.974  13.864  0.00  0.00    +0.000 A 
ATOM      6  C   UNL     1       5.360   3.413  14.699  0.00  0.00    +0.000 A 
ATOM      7  C   UNL     1       5.305   3.776  16.053  0.00  0.00    +0.000 A 
ATOM      8  C   UNL     1       6.209   4.716  16.584  0.00  0.00    +0.000 A 
ATOM      9  C   UNL     1       7.190   5.264  15.756  0.00  0.00    +0.000 A 
ATOM     10  C   UNL     1       7.255   4.884  14.405  0.00  0.00    +0.000 A 
BRANCH   5  12
ATOM     11  O   UNL     1       7.261   4.157  11.680  0.00  0.00    +0.000 OA
ATOM     12  C   UNL     1       6.360   3.743  12.391  0.00  0.00    +0.000 C 
BRANCH  12  13
ATOM     13  O   UNL     1       5.323   3.031  11.903  0.00  0.00    +0.000 OA
ATOM     14  H   UNL     1       5.173   2.159  12.306  0.00  0.00    +0.000 HD
ENDBRANCH  12  13
ENDBRANCH   5  12
ENDBRANCH   2   8
ENDBRANCH   1   2
BRANCH   1  15
ATOM     15  C   UNL     1       3.390   4.234  18.023  0.00  0.00    +0.000 C 
BRANCH  15  16
ATOM     16  C   UNL     1       2.689   3.647  19.243  0.00  0.00    +0.000 A 
ATOM     17  C   UNL     1       3.414   3.016  20.262  0.00  0.00    +0.000 A 
ATOM     18  C   UNL     1       2.758   2.500  21.389  0.00  0.00    +0.000 A 
ATOM     19  C   UNL     1       1.369   2.584  21.499  0.00  0.00    +0.000 A 
ATOM     20  C   UNL     1       0.636   3.207  20.497  0.00  0.00    +0.000 A 
ATOM     21  C   UNL     1       1.293   3.758  19.393  0.00  0.00    +0.000 A 
ENDBRANCH  15  16
ENDBRANCH   1  15
BRANCH   1  22
ATOM     22  C   UNL     1       3.519   6.327  19.415  0.00  0.00    +0.000 C 
BRANCH  22  23
ATOM     23  C   UNL     1       2.612   7.523  19.172  0.00  0.00    +0.000 A 
ATOM     24  C   UNL     1       2.585   8.173  17.932  0.00  0.00    +0.000 A 
ATOM     25  C   UNL     1       1.702   9.229  17.681  0.00  0.00    +0.000 A 
ATOM     26  C   UNL     1       0.849   9.678  18.685  0.00  0.00    +0.000 A 
ATOM     27  C   UNL     1       0.904   9.085  19.942  0.00  0.00    +0.000 A 
ATOM     28 CL   UNL     1      -0.113   9.663  21.203  0.00  0.00    +0.000 Cl
ATOM     29  C   UNL     1       1.782   8.027  20.188  0.00  0.00    +0.000 A 
ENDBRANCH  22  23
ENDBRANCH   1  22
TORSDOF 8
ENDMDL
MODEL 7
REMARK VINA RESULT:      -8.3      1.111      1.962
REMARK  Name = 
REMARK  8 active torsions:
REMARK  status: ('A' for Active; 'I' for Inactive)
REMARK    1  A    between atoms: C_2  and  O_3
REMARK    2  A    between atoms: C_2  and  C_4
REMARK    3  A    between atoms: C_7  and  S_8
REMARK    4  A    between atoms: S_8  and  N_11
REMARK    5  A    between atoms: N_11  and  C_12
REMARK    6  A    between atoms: N_11  and  C_19
REMARK    7  A    between atoms: C_12  and  C_13
REMARK    8  A    between atoms: C_19  and  C_20
REMARK                            x       y       z     vdW  Elec       q    Type
REMARK                         _______ _______ _______ _____ _____    ______ ____
ROOT
ATOM      1  N   UNL     1       4.945   5.819  18.430  0.00  0.00    +0.000 NA
ENDROOT
BRANCH   1   2
ATOM      2  S   UNL     1       6.404   6.189  17.608  0.00  0.00    +0.000 S 
ATOM      3  O   UNL     1       7.508   5.910  18.502  0.00  0.00    +0.000 OA
ATOM      4  O   UNL     1       6.260   7.488  16.993  0.00  0.00    +0.000 OA
BRANCH   2   8
ATOM      5  C   UNL     1       6.120   3.788  13.732  0.00  0.00    +0.000 A 
ATOM      6  C   UNL     1       5.404   3.388  14.867  0.00  0.00    +0.000 A 
ATOM      7  C   UNL     1       5.634   4.018  16.099  0.00  0.00    +0.000 A 
ATOM      8  C   UNL     1       6.569   5.065  16.208  0.00  0.00    +0.000 A 
ATOM      9  C   UNL     1       7.295   5.454  15.082  0.00  0.00    +0.000 A 
ATOM     10  C   UNL     1       7.076   4.809  13.853  0.00  0.00    +0.000 A 
BRANCH   5  12
ATOM     11  O   UNL     1       4.787   3.522  11.779  0.00  0.00    +0.000 OA
ATOM     12  C   UNL     1       5.824   3.263  12.368  0.00  0.00    +0.000 C 
BRANCH  12  13
ATOM     13  O   UNL     1       6.792   2.495  11.825  0.00  0.00    +0.000 OA
ATOM     14  H   UNL     1       7.464   2.959  11.298  0.00  0.00    +0.000 HD
ENDBRANCH  12  13
ENDBRANCH   5  12
ENDBRANCH   2   8
ENDBRANCH   1   2
BRANCH   1  15
ATOM     15  C   UNL     1       3.706   6.194  17.677  0.00  0.00    +0.000 C 
BRANCH  15  16
ATOM     16  C   UNL     1       2.837   7.274  18.310  0.00  0.00    +0.000 A 
ATOM     17  C   UNL     1       2.354   7.143  19.619  0.00  0.00    +0.000 A 
ATOM     18  C   UNL     1       1.573   8.155  20.195  0.00  0.00    +0.000 A 
ATOM     19  C   UNL     1       1.244   9.297  19.465  0.00  0.00    +0.000 A 
ATOM     20  C   UNL     1       1.714   9.443  18.166  0.00  0.00    +0.000 A 
ATOM     21  C   UNL     1       2.527   8.453  17.604  0.00  0.00    +0.000 A 
ENDBRANCH  15  16
ENDBRANCH   1  15
BRANCH   1  22
ATOM     22  C   UNL     1       4.919   4.414  18.979  0.00  0.00    +0.000 C 
BRANCH  22  23
ATOM     23  C   UNL     1       3.622   3.922  19.604  0.00  0.00    +0.000 A 
ATOM     24  C   UNL     1       3.317   4.188  20.946  0.00  0.00    +0.000 A 
ATOM     25  C   UNL     1       2.096   3.798  21.506  0.00  0.00    +0.000 A 
ATOM     26  C   UNL     1       1.168   3.102  20.738  0.00  0.00    +0.000 A 
ATOM     27  C   UNL     1       1.477   2.777  19.422  0.00  0.00    +0.000 A 
ATOM     28 CL   UNL     1       0.355   1.877  18.479  0.00  0.00    +0.000 Cl
ATOM     29  C   UNL     1       2.695   3.171  18.863  0.00  0.00    +0.000 A 
ENDBRANCH  22  23
ENDBRANCH   1  22
TORSDOF 8
ENDMDL
MODEL 8
REMARK VINA RESULT:      -8.3      2.379      6.324
REMARK  Name = 
REMARK  8 active torsions:
REMARK  status: ('A' for Active; 'I' for Inactive)
REMARK    1  A    between atoms: C_2  and  O_3
REMARK    2  A    between atoms: C_2  and  C_4
REMARK    3  A    between atoms: C_7  and  S_8
REMARK    4  A    between atoms: S_8  and  N_11
REMARK    5  A    between atoms: N_11  and  C_12
REMARK    6  A    between atoms: N_11  and  C_19
REMARK    7  A    between atoms: C_12  and  C_13
REMARK    8  A    between atoms: C_19  and  C_20
REMARK                            x       y       z     vdW  Elec       q    Type
REMARK                         _______ _______ _______ _____ _____    ______ ____
ROOT
ATOM      1  N   UNL     1       5.571   4.611  17.197  0.00  0.00    +0.000 NA
ENDROOT
BRANCH   1   2
ATOM      2  S   UNL     1       5.593   5.966  18.248  0.00  0.00    +0.000 S 
ATOM      3  O   UNL     1       6.471   6.966  17.677  0.00  0.00    +0.000 OA
ATOM      4  O   UNL     1       5.794   5.490  19.597  0.00  0.00    +0.000 OA
BRANCH   2   8
ATOM      5  C   UNL     1       1.787   8.422  18.846  0.00  0.00    +0.000 A 
ATOM      6  C   UNL     1       2.133   7.417  19.759  0.00  0.00    +0.000 A 
ATOM      7  C   UNL     1       3.198   6.548  19.475  0.00  0.00    +0.000 A 
ATOM      8  C   UNL     1       3.940   6.684  18.286  0.00  0.00    +0.000 A 
ATOM      9  C   UNL     1       3.587   7.676  17.369  0.00  0.00    +0.000 A 
ATOM     10  C   UNL     1       2.509   8.532  17.647  0.00  0.00    +0.000 A 
BRANCH   5  12
ATOM     11  O   UNL     1       0.209  10.107  18.272  0.00  0.00    +0.000 OA
ATOM     12  C   UNL     1       0.766   9.465  19.148  0.00  0.00    +0.000 C 
BRANCH  12  13
ATOM     13  O   UNL     1       0.489   9.637  20.457  0.00  0.00    +0.000 OA
ATOM     14  H   UNL     1      -0.232  10.254  20.667  0.00  0.00    +0.000 HD
ENDBRANCH  12  13
ENDBRANCH   5  12
ENDBRANCH   2   8
ENDBRANCH   1   2
BRANCH   1  15
ATOM     15  C   UNL     1       6.833   4.425  16.412  0.00  0.00    +0.000 C 
BRANCH  15  16
ATOM     16  C   UNL     1       6.676   4.344  14.898  0.00  0.00    +0.000 A 
ATOM     17  C   UNL     1       7.572   4.993  14.039  0.00  0.00    +0.000 A 
ATOM     18  C   UNL     1       7.428   4.891  12.649  0.00  0.00    +0.000 A 
ATOM     19  C   UNL     1       6.373   4.163  12.098  0.00  0.00    +0.000 A 
ATOM     20  C   UNL     1       5.475   3.514  12.935  0.00  0.00    +0.000 A 
ATOM     21  C   UNL     1       5.642   3.581  14.322  0.00  0.00    +0.000 A 
ENDBRANCH  15  16
ENDBRANCH   1  15
BRANCH   1  22
ATOM     22  C   UNL     1       5.084   3.353  17.870  0.00  0.00    +0.000 C 
BRANCH  22  23
ATOM     23  C   UNL     1       3.637   3.317  18.340  0.00  0.00    +0.000 A 
ATOM     24  C   UNL     1       2.584   3.628  17.471  0.00  0.00    +0.000 A 
ATOM     25  C   UNL     1       1.249   3.529  17.878  0.00  0.00    +0.000 A 
ATOM     26  C   UNL     1       0.945   3.147  19.181  0.00  0.00    +0.000 A 
ATOM     27  C   UNL     1       1.978   2.892  20.076  0.00  0.00    +0.000 A 
ATOM     28 CL   UNL     1       1.614   2.464  21.702  0.00  0.00    +0.000 Cl
ATOM     29  C   UNL     1       3.310   2.986  19.666  0.00  0.00    +0.000 A 
ENDBRANCH  22  23
ENDBRANCH   1  22
TORSDOF 8
ENDMDL
MODEL 9
REMARK VINA RESULT:      -8.2      3.117      6.816
REMARK  Name = 
REMARK  8 active torsions:
REMARK  status: ('A' for Active; 'I' for Inactive)
REMARK    1  A    between atoms: C_2  and  O_3
REMARK    2  A    between atoms: C_2  and  C_4
REMARK    3  A    between atoms: C_7  and  S_8
REMARK    4  A    between atoms: S_8  and  N_11
REMARK    5  A    between atoms: N_11  and  C_12
REMARK    6  A    between atoms: N_11  and  C_19
REMARK    7  A    between atoms: C_12  and  C_13
REMARK    8  A    between atoms: C_19  and  C_20
REMARK                            x       y       z     vdW  Elec       q    Type
REMARK                         _______ _______ _______ _____ _____    ______ ____
ROOT
ATOM      1  N   UNL     1       5.397   4.213  17.423  0.00  0.00    +0.000 NA
ENDROOT
BRANCH   1   2
ATOM      2  S   UNL     1       5.503   5.614  18.406  0.00  0.00    +0.000 S 
ATOM      3  O   UNL     1       6.471   6.511  17.812  0.00  0.00    +0.000 OA
ATOM      4  O   UNL     1       5.632   5.193  19.782  0.00  0.00    +0.000 OA
BRANCH   2   8
ATOM      5  C   UNL     1       1.885   8.377  18.798  0.00  0.00    +0.000 A 
ATOM      6  C   UNL     1       2.116   7.373  19.746  0.00  0.00    +0.000 A 
ATOM      7  C   UNL     1       3.117   6.416  19.525  0.00  0.00    +0.000 A 
ATOM      8  C   UNL     1       3.911   6.461  18.363  0.00  0.00    +0.000 A 
ATOM      9  C   UNL     1       3.673   7.452  17.410  0.00  0.00    +0.000 A 
ATOM     10  C   UNL     1       2.657   8.398  17.625  0.00  0.00    +0.000 A 
BRANCH   5  12
ATOM     11  O   UNL     1       0.255   9.584  20.041  0.00  0.00    +0.000 OA
ATOM     12  C   UNL     1       0.940   9.506  19.034  0.00  0.00    +0.000 C 
BRANCH  12  13
ATOM     13  O   UNL     1       0.907  10.441  18.063  0.00  0.00    +0.000 OA
ATOM     14  H   UNL     1       0.062  10.548  17.596  0.00  0.00    +0.000 HD
ENDBRANCH  12  13
ENDBRANCH   5  12
ENDBRANCH   2   8
ENDBRANCH   1   2
BRANCH   1  15
ATOM     15  C   UNL     1       4.921   2.992  18.146  0.00  0.00    +0.000 C 
BRANCH  15  16
ATOM     16  C   UNL     1       3.492   3.038  18.674  0.00  0.00    +0.000 A 
ATOM     17  C   UNL     1       3.214   2.863  20.036  0.00  0.00    +0.000 A 
ATOM     18  C   UNL     1       1.897   2.930  20.510  0.00  0.00    +0.000 A 
ATOM     19  C   UNL     1       0.838   3.147  19.627  0.00  0.00    +0.000 A 
ATOM     20  C   UNL     1       1.095   3.321  18.273  0.00  0.00    +0.000 A 
ATOM     21  C   UNL     1       2.413   3.296  17.806  0.00  0.00    +0.000 A 
ENDBRANCH  15  16
ENDBRANCH   1  15
BRANCH   1  22
ATOM     22  C   UNL     1       4.683   4.463  16.119  0.00  0.00    +0.000 C 
BRANCH  22  23
ATOM     23  C   UNL     1       5.495   4.363  14.836  0.00  0.00    +0.000 A 
ATOM     24  C   UNL     1       6.674   5.100  14.664  0.00  0.00    +0.000 A 
ATOM     25  C   UNL     1       7.461   4.958  13.517  0.00  0.00    +0.000 A 
ATOM     26  C   UNL     1       7.062   4.097  12.499  0.00  0.00    +0.000 A 
ATOM     27  C   UNL     1       5.864   3.401  12.625  0.00  0.00    +0.000 A 
ATOM     28 CL   UNL     1       5.338   2.369  11.353  0.00  0.00    +0.000 Cl
ATOM     29  C   UNL     1       5.082   3.540  13.774  0.00  0.00    +0.000 A 
ENDBRANCH  22  23
ENDBRANCH   1  22
TORSDOF 8
ENDMDL
