MODEL 1
REMARK VINA RESULT:      -8.7      0.000      0.000
REMARK  Name = 
REMARK  5 active torsions:
REMARK  status: ('A' for Active; 'I' for Inactive)
REMARK    1  A    between atoms: C_2  and  C_3
REMARK    2  A    between atoms: C_2  and  C_15
REMARK    3  A    between atoms: C_3  and  C_5
REMARK    4  A    between atoms: C_11  and  O_12
REMARK    5  A    between atoms: C_21  and  O_22
REMARK                            x       y       z     vdW  Elec       q    Type
REMARK                         _______ _______ _______ _____ _____    ______ ____
ROOT
ATOM      1  O   UNL     1       4.522   2.768  17.073  0.00  0.00    +0.000 OA
ATOM      2  C   UNL     1       4.127   3.926  17.205  0.00  0.00    +0.000 C 
ENDROOT
BRANCH   2   3
ATOM      3  C   UNL     1       4.976   5.087  16.945  0.00  0.00    +0.000 A 
ATOM      4  C   UNL     1       4.905   5.958  15.871  0.00  0.00    +0.000 A 
ATOM      5  N   UNL     1       5.896   6.901  16.011  0.00  0.00    +0.000 N 
ATOM      6  C   UNL     1       6.610   6.672  17.163  0.00  0.00    +0.000 A 
ATOM      7  C   UNL     1       7.703   7.363  17.707  0.00  0.00    +0.000 A 
ATOM      8  C   UNL     1       8.230   6.895  18.919  0.00  0.00    +0.000 A 
ATOM      9  C   UNL     1       7.676   5.787  19.547  0.00  0.00    +0.000 A 
ATOM     10  C   UNL     1       6.592   5.109  18.998  0.00  0.00    +0.000 A 
ATOM     11  C   UNL     1       6.049   5.551  17.775  0.00  0.00    +0.000 A 
ATOM     12  H   UNL     1       6.078   7.655  15.363  0.00  0.00    +0.000 HD
BRANCH   9  13
ATOM     13  O   UNL     1       8.171   5.315  20.728  0.00  0.00    +0.000 OA
ATOM     14  H   UNL     1       9.136   5.266  20.663  0.00  0.00    +0.000 HD
ENDBRANCH   9  13
ENDBRANCH   2   3
BRANCH   2  15
ATOM     15  C   UNL     1       2.706   4.095  17.693  0.00  0.00    +0.000 C 
ATOM     16  O   UNL     1       1.830   3.458  17.108  0.00  0.00    +0.000 OA
BRANCH  15  17
ATOM     17  C   UNL     1       2.417   4.971  18.827  0.00  0.00    +0.000 A 
ATOM     18  C   UNL     1       2.327   4.525  20.135  0.00  0.00    +0.000 A 
ATOM     19  N   UNL     1       2.055   5.591  20.943  0.00  0.00    +0.000 N 
ATOM     20  C   UNL     1       1.955   6.739  20.193  0.00  0.00    +0.000 A 
ATOM     21  C   UNL     1       1.686   8.054  20.600  0.00  0.00    +0.000 A 
ATOM     22  C   UNL     1       1.647   9.047  19.619  0.00  0.00    +0.000 A 
ATOM     23  C   UNL     1       1.873   8.724  18.290  0.00  0.00    +0.000 A 
ATOM     24  C   UNL     1       2.140   7.414  17.891  0.00  0.00    +0.000 A 
ATOM     25  C   UNL     1       2.183   6.387  18.859  0.00  0.00    +0.000 A 
ATOM     26  H   UNL     1       1.948   5.551  21.947  0.00  0.00    +0.000 HD
BRANCH  23  27
ATOM     27  O   UNL     1       1.845   9.676  17.311  0.00  0.00    +0.000 OA
ATOM     28  H   UNL     1       2.692  10.149  17.309  0.00  0.00    +0.000 HD
ENDBRANCH  23  27
ENDBRANCH  15  17
ENDBRANCH   2  15
TORSDOF 5
ENDMDL
MODEL 2
REMARK VINA RESULT:      -8.7      0.259      5.601
REMARK  Name = 
REMARK  5 active torsions:
REMARK  status: ('A' for Active; 'I' for Inactive)
REMARK    1  A    between atoms: C_2  and  C_3
REMARK    2  A    between atoms: C_2  and  C_15
REMARK    3  A    between atoms: C_3  and  C_5
REMARK    4  A    between atoms: C_11  and  O_12
REMARK    5  A    between atoms: C_21  and  O_22
REMARK                            x       y       z     vdW  Elec       q    Type
REMARK                         _______ _______ _______ _____ _____    ______ ____
ROOT
ATOM      1  O   UNL     1       1.559   3.907  17.135  0.00  0.00    +0.000 OA
ATOM      2  C   UNL     1       2.480   4.356  17.817  0.00  0.00    +0.000 C 
ENDROOT
BRANCH   2   3
ATOM      3  C   UNL     1       2.258   5.185  19.000  0.00  0.00    +0.000 A 
ATOM      4  C   UNL     1       2.212   4.772  20.321  0.00  0.00    +0.000 A 
ATOM      5  N   UNL     1       1.970   5.871  21.111  0.00  0.00    +0.000 N 
ATOM      6  C   UNL     1       1.868   7.001  20.334  0.00  0.00    +0.000 A 
ATOM      7  C   UNL     1       1.623   8.333  20.697  0.00  0.00    +0.000 A 
ATOM      8  C   UNL     1       1.579   9.289  19.672  0.00  0.00    +0.000 A 
ATOM      9  C   UNL     1       1.777   8.913  18.350  0.00  0.00    +0.000 A 
ATOM     10  C   UNL     1       2.018   7.588  18.001  0.00  0.00    +0.000 A 
ATOM     11  C   UNL     1       2.058   6.605  19.010  0.00  0.00    +0.000 A 
ATOM     12  H   UNL     1       1.879   5.856  22.117  0.00  0.00    +0.000 HD
BRANCH   9  13
ATOM     13  O   UNL     1       1.740   9.825  17.335  0.00  0.00    +0.000 OA
ATOM     14  H   UNL     1       1.154   9.492  16.639  0.00  0.00    +0.000 HD
ENDBRANCH   9  13
ENDBRANCH   2   3
BRANCH   2  15
ATOM     15  C   UNL     1       3.879   4.033  17.344  0.00  0.00    +0.000 C 
ATOM     16  O   UNL     1       4.160   2.845  17.187  0.00  0.00    +0.000 OA
BRANCH  15  17
ATOM     17  C   UNL     1       4.831   5.109  17.073  0.00  0.00    +0.000 A 
ATOM     18  C   UNL     1       4.773   5.917  15.951  0.00  0.00    +0.000 A 
ATOM     19  N   UNL     1       5.796   6.819  16.008  0.00  0.00    +0.000 N 
ATOM     20  C   UNL     1       6.539   6.620  17.148  0.00  0.00    +0.000 A 
ATOM     21  C   UNL     1       7.673   7.305  17.609  0.00  0.00    +0.000 A 
ATOM     22  C   UNL     1       8.236   6.897  18.820  0.00  0.00    +0.000 A 
ATOM     23  C   UNL     1       7.674   5.847  19.532  0.00  0.00    +0.000 A 
ATOM     24  C   UNL     1       6.546   5.169  19.067  0.00  0.00    +0.000 A 
ATOM     25  C   UNL     1       5.956   5.556  17.844  0.00  0.00    +0.000 A 
ATOM     26  H   UNL     1       5.983   7.536  15.320  0.00  0.00    +0.000 HD
BRANCH  23  27
ATOM     27  O   UNL     1       8.202   5.430  20.720  0.00  0.00    +0.000 OA
ATOM     28  H   UNL     1       7.534   5.540  21.415  0.00  0.00    +0.000 HD
ENDBRANCH  23  27
ENDBRANCH  15  17
ENDBRANCH   2  15
TORSDOF 5
ENDMDL
MODEL 3
REMARK VINA RESULT:      -7.6      1.895      6.216
REMARK  Name = 
REMARK  5 active torsions:
REMARK  status: ('A' for Active; 'I' for Inactive)
REMARK    1  A    between atoms: C_2  and  C_3
REMARK    2  A    between atoms: C_2  and  C_15
REMARK    3  A    between atoms: C_3  and  C_5
REMARK    4  A    between atoms: C_11  and  O_12
REMARK    5  A    between atoms: C_21  and  O_22
REMARK                            x       y       z     vdW  Elec       q    Type
REMARK                         _______ _______ _______ _____ _____    ______ ____
ROOT
ATOM      1  O   UNL     1       2.907   4.050  17.162  0.00  0.00    +0.000 OA
ATOM      2  C   UNL     1       3.528   4.482  18.132  0.00  0.00    +0.000 C 
ENDROOT
BRANCH   2   3
ATOM      3  C   UNL     1       2.893   5.259  19.196  0.00  0.00    +0.000 A 
ATOM      4  C   UNL     1       2.607   4.844  20.485  0.00  0.00    +0.000 A 
ATOM      5  N   UNL     1       2.000   5.882  21.151  0.00  0.00    +0.000 N 
ATOM      6  C   UNL     1       1.891   6.976  20.326  0.00  0.00    +0.000 A 
ATOM      7  C   UNL     1       1.342   8.244  20.567  0.00  0.00    +0.000 A 
ATOM      8  C   UNL     1       1.378   9.177  19.520  0.00  0.00    +0.000 A 
ATOM      9  C   UNL     1       1.945   8.843  18.297  0.00  0.00    +0.000 A 
ATOM     10  C   UNL     1       2.486   7.581  18.070  0.00  0.00    +0.000 A 
ATOM     11  C   UNL     1       2.454   6.620  19.100  0.00  0.00    +0.000 A 
ATOM     12  H   UNL     1       1.677   5.851  22.108  0.00  0.00    +0.000 HD
BRANCH   9  13
ATOM     13  O   UNL     1       1.993   9.734  17.265  0.00  0.00    +0.000 OA
ATOM     14  H   UNL     1       2.213   9.256  16.452  0.00  0.00    +0.000 HD
ENDBRANCH   9  13
ENDBRANCH   2   3
BRANCH   2  15
ATOM     15  C   UNL     1       5.012   4.197  18.157  0.00  0.00    +0.000 C 
ATOM     16  O   UNL     1       5.415   3.376  18.980  0.00  0.00    +0.000 OA
BRANCH  15  17
ATOM     17  C   UNL     1       5.906   4.871  17.215  0.00  0.00    +0.000 A 
ATOM     18  C   UNL     1       6.697   5.955  17.554  0.00  0.00    +0.000 A 
ATOM     19  N   UNL     1       7.410   6.337  16.454  0.00  0.00    +0.000 N 
ATOM     20  C   UNL     1       7.101   5.528  15.386  0.00  0.00    +0.000 A 
ATOM     21  C   UNL     1       7.587   5.557  14.071  0.00  0.00    +0.000 A 
ATOM     22  C   UNL     1       7.103   4.601  13.174  0.00  0.00    +0.000 A 
ATOM     23  C   UNL     1       6.174   3.659  13.592  0.00  0.00    +0.000 A 
ATOM     24  C   UNL     1       5.695   3.636  14.902  0.00  0.00    +0.000 A 
ATOM     25  C   UNL     1       6.162   4.591  15.831  0.00  0.00    +0.000 A 
ATOM     26  H   UNL     1       8.075   7.097  16.424  0.00  0.00    +0.000 HD
BRANCH  23  27
ATOM     27  O   UNL     1       5.688   2.712  12.737  0.00  0.00    +0.000 OA
ATOM     28  H   UNL     1       6.285   1.946  12.746  0.00  0.00    +0.000 HD
ENDBRANCH  23  27
ENDBRANCH  15  17
ENDBRANCH   2  15
TORSDOF 5
ENDMDL
MODEL 4
REMARK VINA RESULT:      -7.5      1.912      3.076
REMARK  Name = 
REMARK  5 active torsions:
REMARK  status: ('A' for Active; 'I' for Inactive)
REMARK    1  A    between atoms: C_2  and  C_3
REMARK    2  A    between atoms: C_2  and  C_15
REMARK    3  A    between atoms: C_3  and  C_5
REMARK    4  A    between atoms: C_11  and  O_12
REMARK    5  A    between atoms: C_21  and  O_22
REMARK                            x       y       z     vdW  Elec       q    Type
REMARK                         _______ _______ _______ _____ _____    ______ ____
ROOT
ATOM      1  O   UNL     1       5.496   3.414  18.894  0.00  0.00    +0.000 OA
ATOM      2  C   UNL     1       5.108   4.222  18.051  0.00  0.00    +0.000 C 
ENDROOT
BRANCH   2   3
ATOM      3  C   UNL     1       6.021   4.938  17.162  0.00  0.00    +0.000 A 
ATOM      4  C   UNL     1       6.828   6.019  17.475  0.00  0.00    +0.000 A 
ATOM      5  N   UNL     1       7.516   6.389  16.345  0.00  0.00    +0.000 N 
ATOM      6  C   UNL     1       7.185   5.564  15.295  0.00  0.00    +0.000 A 
ATOM      7  C   UNL     1       7.627   5.566  13.964  0.00  0.00    +0.000 A 
ATOM      8  C   UNL     1       7.111   4.583  13.107  0.00  0.00    +0.000 A 
ATOM      9  C   UNL     1       6.200   3.647  13.577  0.00  0.00    +0.000 A 
ATOM     10  C   UNL     1       5.769   3.655  14.900  0.00  0.00    +0.000 A 
ATOM     11  C   UNL     1       6.262   4.638  15.781  0.00  0.00    +0.000 A 
ATOM     12  H   UNL     1       8.171   7.156  16.286  0.00  0.00    +0.000 HD
BRANCH   9  13
ATOM     13  O   UNL     1       5.686   2.680  12.762  0.00  0.00    +0.000 OA
ATOM     14  H   UNL     1       4.913   3.040  12.302  0.00  0.00    +0.000 HD
ENDBRANCH   9  13
ENDBRANCH   2   3
BRANCH   2  15
ATOM     15  C   UNL     1       3.618   4.471  18.001  0.00  0.00    +0.000 C 
ATOM     16  O   UNL     1       2.993   3.960  17.073  0.00  0.00    +0.000 OA
BRANCH  15  17
ATOM     17  C   UNL     1       2.971   5.274  19.038  0.00  0.00    +0.000 A 
ATOM     18  C   UNL     1       2.703   4.805  20.313  0.00  0.00    +0.000 A 
ATOM     19  N   UNL     1       2.105   5.801  21.029  0.00  0.00    +0.000 N 
ATOM     20  C   UNL     1       1.962   6.924  20.249  0.00  0.00    +0.000 A 
ATOM     21  C   UNL     1       1.403   8.170  20.566  0.00  0.00    +0.000 A 
ATOM     22  C   UNL     1       1.391   9.154  19.575  0.00  0.00    +0.000 A 
ATOM     23  C   UNL     1       1.923   8.888  18.321  0.00  0.00    +0.000 A 
ATOM     24  C   UNL     1       2.478   7.645  18.011  0.00  0.00    +0.000 A 
ATOM     25  C   UNL     1       2.502   6.630  18.992  0.00  0.00    +0.000 A 
ATOM     26  H   UNL     1       1.812   5.732  21.994  0.00  0.00    +0.000 HD
BRANCH  23  27
ATOM     27  O   UNL     1       1.927   9.831  17.335  0.00  0.00    +0.000 OA
ATOM     28  H   UNL     1       2.071   9.392  16.481  0.00  0.00    +0.000 HD
ENDBRANCH  23  27
ENDBRANCH  15  17
ENDBRANCH   2  15
TORSDOF 5
ENDMDL
MODEL 5
REMARK VINA RESULT:      -7.5      2.315      3.658
REMARK  Name = 
REMARK  5 active torsions:
REMARK  status: ('A' for Active; 'I' for Inactive)
REMARK    1  A    between atoms: C_2  and  C_3
REMARK    2  A    between atoms: C_2  and  C_15
REMARK    3  A    between atoms: C_3  and  C_5
REMARK    4  A    between atoms: C_11  and  O_12
REMARK    5  A    between atoms: C_21  and  O_22
REMARK                            x       y       z     vdW  Elec       q    Type
REMARK                         _______ _______ _______ _____ _____    ______ ____
ROOT
ATOM      1  O   UNL     1       3.526   3.787  16.478  0.00  0.00    +0.000 OA
ATOM      2  C   UNL     1       4.559   4.215  16.991  0.00  0.00    +0.000 C 
ENDROOT
BRANCH   2   3
ATOM      3  C   UNL     1       5.675   4.740  16.205  0.00  0.00    +0.000 A 
ATOM      4  C   UNL     1       6.646   5.637  16.617  0.00  0.00    +0.000 A 
ATOM      5  N   UNL     1       7.496   5.871  15.563  0.00  0.00    +0.000 N 
ATOM      6  C   UNL     1       7.110   5.134  14.468  0.00  0.00    +0.000 A 
ATOM      7  C   UNL     1       7.666   5.056  13.183  0.00  0.00    +0.000 A 
ATOM      8  C   UNL     1       7.049   4.201  12.259  0.00  0.00    +0.000 A 
ATOM      9  C   UNL     1       5.931   3.461  12.621  0.00  0.00    +0.000 A 
ATOM     10  C   UNL     1       5.388   3.546  13.899  0.00  0.00    +0.000 A 
ATOM     11  C   UNL     1       5.981   4.406  14.845  0.00  0.00    +0.000 A 
ATOM     12  H   UNL     1       8.292   6.493  15.583  0.00  0.00    +0.000 HD
BRANCH   9  13
ATOM     13  O   UNL     1       5.316   2.620  11.739  0.00  0.00    +0.000 OA
ATOM     14  H   UNL     1       5.954   1.949  11.453  0.00  0.00    +0.000 HD
ENDBRANCH   9  13
ENDBRANCH   2   3
BRANCH   2  15
ATOM     15  C   UNL     1       4.638   4.137  18.499  0.00  0.00    +0.000 C 
ATOM     16  O   UNL     1       5.539   3.453  18.981  0.00  0.00    +0.000 OA
BRANCH  15  17
ATOM     17  C   UNL     1       3.679   4.871  19.323  0.00  0.00    +0.000 A 
ATOM     18  C   UNL     1       3.185   4.397  20.527  0.00  0.00    +0.000 A 
ATOM     19  N   UNL     1       2.323   5.323  21.040  0.00  0.00    +0.000 N 
ATOM     20  C   UNL     1       2.230   6.403  20.195  0.00  0.00    +0.000 A 
ATOM     21  C   UNL     1       1.468   7.574  20.318  0.00  0.00    +0.000 A 
ATOM     22  C   UNL     1       1.566   8.528  19.302  0.00  0.00    +0.000 A 
ATOM     23  C   UNL     1       2.399   8.307  18.216  0.00  0.00    +0.000 A 
ATOM     24  C   UNL     1       3.155   7.140  18.099  0.00  0.00    +0.000 A 
ATOM     25  C   UNL     1       3.075   6.155  19.107  0.00  0.00    +0.000 A 
ATOM     26  H   UNL     1       1.827   5.237  21.917  0.00  0.00    +0.000 HD
BRANCH  23  27
ATOM     27  O   UNL     1       2.517   9.224  17.211  0.00  0.00    +0.000 OA
ATOM     28  H   UNL     1       3.220   9.853  17.441  0.00  0.00    +0.000 HD
ENDBRANCH  23  27
ENDBRANCH  15  17
ENDBRANCH   2  15
TORSDOF 5
ENDMDL
MODEL 6
REMARK VINA RESULT:      -7.3      2.808      4.878
REMARK  Name = 
REMARK  5 active torsions:
REMARK  status: ('A' for Active; 'I' for Inactive)
REMARK    1  A    between atoms: C_2  and  C_3
REMARK    2  A    between atoms: C_2  and  C_15
REMARK    3  A    between atoms: C_3  and  C_5
REMARK    4  A    between atoms: C_11  and  O_12
REMARK    5  A    between atoms: C_21  and  O_22
REMARK                            x       y       z     vdW  Elec       q    Type
REMARK                         _______ _______ _______ _____ _____    ______ ____
ROOT
ATOM      1  O   UNL     1       4.506   3.389  16.834  0.00  0.00    +0.000 OA
ATOM      2  C   UNL     1       4.855   4.533  16.542  0.00  0.00    +0.000 C 
ENDROOT
BRANCH   2   3
ATOM      3  C   UNL     1       5.958   4.814  15.625  0.00  0.00    +0.000 A 
ATOM      4  C   UNL     1       7.099   5.554  15.884  0.00  0.00    +0.000 A 
ATOM      5  N   UNL     1       7.868   5.578  14.745  0.00  0.00    +0.000 N 
ATOM      6  C   UNL     1       7.258   4.858  13.744  0.00  0.00    +0.000 A 
ATOM      7  C   UNL     1       7.664   4.614  12.424  0.00  0.00    +0.000 A 
ATOM      8  C   UNL     1       6.825   3.825  11.623  0.00  0.00    +0.000 A 
ATOM      9  C   UNL     1       5.642   3.309  12.134  0.00  0.00    +0.000 A 
ATOM     10  C   UNL     1       5.250   3.559  13.446  0.00  0.00    +0.000 A 
ATOM     11  C   UNL     1       6.068   4.357  14.271  0.00  0.00    +0.000 A 
ATOM     12  H   UNL     1       8.754   6.055  14.649  0.00  0.00    +0.000 HD
BRANCH   9  13
ATOM     13  O   UNL     1       4.812   2.538  11.374  0.00  0.00    +0.000 OA
ATOM     14  H   UNL     1       4.514   1.785  11.906  0.00  0.00    +0.000 HD
ENDBRANCH   9  13
ENDBRANCH   2   3
BRANCH   2  15
ATOM     15  C   UNL     1       4.097   5.654  17.216  0.00  0.00    +0.000 C 
ATOM     16  O   UNL     1       4.074   6.742  16.642  0.00  0.00    +0.000 OA
BRANCH  15  17
ATOM     17  C   UNL     1       3.415   5.420  18.488  0.00  0.00    +0.000 A 
ATOM     18  C   UNL     1       3.629   6.183  19.623  0.00  0.00    +0.000 A 
ATOM     19  N   UNL     1       2.835   5.708  20.626  0.00  0.00    +0.000 N 
ATOM     20  C   UNL     1       2.100   4.635  20.180  0.00  0.00    +0.000 A 
ATOM     21  C   UNL     1       1.166   3.843  20.863  0.00  0.00    +0.000 A 
ATOM     22  C   UNL     1       0.550   2.805  20.159  0.00  0.00    +0.000 A 
ATOM     23  C   UNL     1       0.863   2.583  18.826  0.00  0.00    +0.000 A 
ATOM     24  C   UNL     1       1.794   3.376  18.152  0.00  0.00    +0.000 A 
ATOM     25  C   UNL     1       2.435   4.430  18.837  0.00  0.00    +0.000 A 
ATOM     26  H   UNL     1       2.784   6.088  21.562  0.00  0.00    +0.000 HD
BRANCH  23  27
ATOM     27  O   UNL     1       0.274   1.579  18.114  0.00  0.00    +0.000 OA
ATOM     28  H   UNL     1      -0.574   1.898  17.766  0.00  0.00    +0.000 HD
ENDBRANCH  23  27
ENDBRANCH  15  17
ENDBRANCH   2  15
TORSDOF 5
ENDMDL
MODEL 7
REMARK VINA RESULT:      -7.2      2.276      6.214
REMARK  Name = 
REMARK  5 active torsions:
REMARK  status: ('A' for Active; 'I' for Inactive)
REMARK    1  A    between atoms: C_2  and  C_3
REMARK    2  A    between atoms: C_2  and  C_15
REMARK    3  A    between atoms: C_3  and  C_5
REMARK    4  A    between atoms: C_11  and  O_12
REMARK    5  A    between atoms: C_21  and  O_22
REMARK                            x       y       z     vdW  Elec       q    Type
REMARK                         _______ _______ _______ _____ _____    ______ ____
ROOT
ATOM      1  O   UNL     1       5.241   3.065  19.006  0.00  0.00    +0.000 OA
ATOM      2  C   UNL     1       4.400   3.859  18.587  0.00  0.00    +0.000 C 
ENDROOT
BRANCH   2   3
ATOM      3  C   UNL     1       3.513   4.613  19.472  0.00  0.00    +0.000 A 
ATOM      4  C   UNL     1       3.014   4.216  20.701  0.00  0.00    +0.000 A 
ATOM      5  N   UNL     1       2.212   5.220  21.188  0.00  0.00    +0.000 N 
ATOM      6  C   UNL     1       2.184   6.276  20.307  0.00  0.00    +0.000 A 
ATOM      7  C   UNL     1       1.504   7.500  20.378  0.00  0.00    +0.000 A 
ATOM      8  C   UNL     1       1.672   8.399  19.315  0.00  0.00    +0.000 A 
ATOM      9  C   UNL     1       2.490   8.075  18.240  0.00  0.00    +0.000 A 
ATOM     10  C   UNL     1       3.159   6.857  18.181  0.00  0.00    +0.000 A 
ATOM     11  C   UNL     1       3.000   5.929  19.230  0.00  0.00    +0.000 A 
ATOM     12  H   UNL     1       1.712   5.193  22.066  0.00  0.00    +0.000 HD
BRANCH   9  13
ATOM     13  O   UNL     1       2.671   8.935  17.196  0.00  0.00    +0.000 OA
ATOM     14  H   UNL     1       2.472   8.466  16.371  0.00  0.00    +0.000 HD
ENDBRANCH   9  13
ENDBRANCH   2   3
BRANCH   2  15
ATOM     15  C   UNL     1       4.301   3.995  17.085  0.00  0.00    +0.000 C 
ATOM     16  O   UNL     1       3.238   3.666  16.559  0.00  0.00    +0.000 OA
BRANCH  15  17
ATOM     17  C   UNL     1       5.430   4.518  16.317  0.00  0.00    +0.000 A 
ATOM     18  C   UNL     1       6.375   5.384  16.841  0.00  0.00    +0.000 A 
ATOM     19  N   UNL     1       7.291   5.670  15.870  0.00  0.00    +0.000 N 
ATOM     20  C   UNL     1       6.967   5.015  14.705  0.00  0.00    +0.000 A 
ATOM     21  C   UNL     1       7.618   5.020  13.464  0.00  0.00    +0.000 A 
ATOM     22  C   UNL     1       7.072   4.249  12.435  0.00  0.00    +0.000 A 
ATOM     23  C   UNL     1       5.922   3.505  12.656  0.00  0.00    +0.000 A 
ATOM     24  C   UNL     1       5.279   3.503  13.895  0.00  0.00    +0.000 A 
ATOM     25  C   UNL     1       5.805   4.276  14.953  0.00  0.00    +0.000 A 
ATOM     26  H   UNL     1       8.096   6.271  15.985  0.00  0.00    +0.000 HD
BRANCH  23  27
ATOM     27  O   UNL     1       5.369   2.739  11.671  0.00  0.00    +0.000 OA
ATOM     28  H   UNL     1       5.913   2.819  10.870  0.00  0.00    +0.000 HD
ENDBRANCH  23  27
ENDBRANCH  15  17
ENDBRANCH   2  15
TORSDOF 5
ENDMDL
MODEL 8
REMARK VINA RESULT:      -7.2      2.551      6.029
REMARK  Name = 
REMARK  5 active torsions:
REMARK  status: ('A' for Active; 'I' for Inactive)
REMARK    1  A    between atoms: C_2  and  C_3
REMARK    2  A    between atoms: C_2  and  C_15
REMARK    3  A    between atoms: C_3  and  C_5
REMARK    4  A    between atoms: C_11  and  O_12
REMARK    5  A    between atoms: C_21  and  O_22
REMARK                            x       y       z     vdW  Elec       q    Type
REMARK                         _______ _______ _______ _____ _____    ______ ____
ROOT
ATOM      1  O   UNL     1       2.016   5.702  20.790  0.00  0.00    +0.000 OA
ATOM      2  C   UNL     1       2.245   6.144  19.665  0.00  0.00    +0.000 C 
ENDROOT
BRANCH   2   3
ATOM      3  C   UNL     1       1.956   7.526  19.283  0.00  0.00    +0.000 A 
ATOM      4  C   UNL     1       2.097   8.100  18.032  0.00  0.00    +0.000 A 
ATOM      5  N   UNL     1       1.726   9.421  18.116  0.00  0.00    +0.000 N 
ATOM      6  C   UNL     1       1.332   9.723  19.398  0.00  0.00    +0.000 A 
ATOM      7  C   UNL     1       0.884  10.932  19.950  0.00  0.00    +0.000 A 
ATOM      8  C   UNL     1       0.541  10.938  21.310  0.00  0.00    +0.000 A 
ATOM      9  C   UNL     1       0.645   9.779  22.068  0.00  0.00    +0.000 A 
ATOM     10  C   UNL     1       1.091   8.585  21.510  0.00  0.00    +0.000 A 
ATOM     11  C   UNL     1       1.453   8.552  20.148  0.00  0.00    +0.000 A 
ATOM     12  H   UNL     1       1.739  10.080  17.350  0.00  0.00    +0.000 HD
BRANCH   9  13
ATOM     13  O   UNL     1       0.315   9.760  23.392  0.00  0.00    +0.000 OA
ATOM     14  H   UNL     1       0.660   8.945  23.786  0.00  0.00    +0.000 HD
ENDBRANCH   9  13
ENDBRANCH   2   3
BRANCH   2  15
ATOM     15  C   UNL     1       2.817   5.164  18.666  0.00  0.00    +0.000 C 
ATOM     16  O   UNL     1       2.017   4.495  18.012  0.00  0.00    +0.000 OA
BRANCH  15  17
ATOM     17  C   UNL     1       4.264   5.051  18.493  0.00  0.00    +0.000 A 
ATOM     18  C   UNL     1       5.171   5.182  19.531  0.00  0.00    +0.000 A 
ATOM     19  N   UNL     1       6.431   5.015  19.034  0.00  0.00    +0.000 N 
ATOM     20  C   UNL     1       6.379   4.782  17.680  0.00  0.00    +0.000 A 
ATOM     21  C   UNL     1       7.421   4.560  16.769  0.00  0.00    +0.000 A 
ATOM     22  C   UNL     1       7.084   4.340  15.431  0.00  0.00    +0.000 A 
ATOM     23  C   UNL     1       5.754   4.341  15.037  0.00  0.00    +0.000 A 
ATOM     24  C   UNL     1       4.721   4.563  15.949  0.00  0.00    +0.000 A 
ATOM     25  C   UNL     1       5.030   4.792  17.308  0.00  0.00    +0.000 A 
ATOM     26  H   UNL     1       7.283   5.050  19.577  0.00  0.00    +0.000 HD
BRANCH  23  27
ATOM     27  O   UNL     1       5.397   4.125  13.737  0.00  0.00    +0.000 OA
ATOM     28  H   UNL     1       4.691   4.747  13.499  0.00  0.00    +0.000 HD
ENDBRANCH  23  27
ENDBRANCH  15  17
ENDBRANCH   2  15
TORSDOF 5
ENDMDL
MODEL 9
REMARK VINA RESULT:      -7.2      2.226      5.975
REMARK  Name = 
REMARK  5 active torsions:
REMARK  status: ('A' for Active; 'I' for Inactive)
REMARK    1  A    between atoms: C_2  and  C_3
REMARK    2  A    between atoms: C_2  and  C_15
REMARK    3  A    between atoms: C_3  and  C_5
REMARK    4  A    between atoms: C_11  and  O_12
REMARK    5  A    between atoms: C_21  and  O_22
REMARK                            x       y       z     vdW  Elec       q    Type
REMARK                         _______ _______ _______ _____ _____    ______ ____
ROOT
ATOM      1  O   UNL     1       2.515   5.310  21.074  0.00  0.00    +0.000 OA
ATOM      2  C   UNL     1       2.401   5.629  19.891  0.00  0.00    +0.000 C 
ENDROOT
BRANCH   2   3
ATOM      3  C   UNL     1       2.154   7.005  19.462  0.00  0.00    +0.000 A 
ATOM      4  C   UNL     1       2.566   7.606  18.285  0.00  0.00    +0.000 A 
ATOM      5  N   UNL     1       2.131   8.909  18.287  0.00  0.00    +0.000 N 
ATOM      6  C   UNL     1       1.430   9.174  19.440  0.00  0.00    +0.000 A 
ATOM      7  C   UNL     1       0.812  10.354  19.877  0.00  0.00    +0.000 A 
ATOM      8  C   UNL     1       0.154  10.324  21.115  0.00  0.00    +0.000 A 
ATOM      9  C   UNL     1       0.122   9.157  21.867  0.00  0.00    +0.000 A 
ATOM     10  C   UNL     1       0.739   7.991  21.424  0.00  0.00    +0.000 A 
ATOM     11  C   UNL     1       1.416   7.996  20.188  0.00  0.00    +0.000 A 
ATOM     12  H   UNL     1       2.299   9.581  17.552  0.00  0.00    +0.000 HD
BRANCH   9  13
ATOM     13  O   UNL     1      -0.514   9.102  23.074  0.00  0.00    +0.000 OA
ATOM     14  H   UNL     1      -0.890   9.975  23.266  0.00  0.00    +0.000 HD
ENDBRANCH   9  13
ENDBRANCH   2   3
BRANCH   2  15
ATOM     15  C   UNL     1       2.494   4.504  18.885  0.00  0.00    +0.000 C 
ATOM     16  O   UNL     1       1.558   3.707  18.844  0.00  0.00    +0.000 OA
BRANCH  15  17
ATOM     17  C   UNL     1       3.652   4.405  17.998  0.00  0.00    +0.000 A 
ATOM     18  C   UNL     1       3.569   4.013  16.672  0.00  0.00    +0.000 A 
ATOM     19  N   UNL     1       4.822   4.034  16.131  0.00  0.00    +0.000 N 
ATOM     20  C   UNL     1       5.740   4.427  17.077  0.00  0.00    +0.000 A 
ATOM     21  C   UNL     1       7.128   4.584  16.966  0.00  0.00    +0.000 A 
ATOM     22  C   UNL     1       7.831   5.007  18.096  0.00  0.00    +0.000 A 
ATOM     23  C   UNL     1       7.158   5.262  19.282  0.00  0.00    +0.000 A 
ATOM     24  C   UNL     1       5.775   5.104  19.386  0.00  0.00    +0.000 A 
ATOM     25  C   UNL     1       5.037   4.674  18.261  0.00  0.00    +0.000 A 
ATOM     26  H   UNL     1       5.049   3.802  15.174  0.00  0.00    +0.000 HD
BRANCH  23  27
ATOM     27  O   UNL     1       7.819   5.681  20.400  0.00  0.00    +0.000 OA
ATOM     28  H   UNL     1       7.290   6.367  20.839  0.00  0.00    +0.000 HD
ENDBRANCH  23  27
ENDBRANCH  15  17
ENDBRANCH   2  15
TORSDOF 5
ENDMDL
