MODEL 1
REMARK VINA RESULT:      -7.2      0.000      0.000
REMARK  Name = 
REMARK  6 active torsions:
REMARK  status: ('A' for Active; 'I' for Inactive)
REMARK    1  A    between atoms: N_1  and  C_2
REMARK    2  A    between atoms: C_2  and  C_3
REMARK    3  A    between atoms: C_5  and  C_6
REMARK    4  A    between atoms: N_14  and  O_15
REMARK    5  A    between atoms: O_15  and  S_16
REMARK    6  A    between atoms: S_16  and  O_19
REMARK                            x       y       z     vdW  Elec       q    Type
REMARK                         _______ _______ _______ _____ _____    ______ ____
ROOT
ATOM      1  C   UNL     1       5.309   5.283  17.994  0.00  0.00    +0.000 C 
ATOM      2  C   UNL     1       4.714   6.506  17.227  0.00  0.00    +0.000 C 
ATOM      3  C   UNL     1       5.204   6.586  15.769  0.00  0.00    +0.000 C 
ATOM      4  C   UNL     1       5.188   5.191  15.062  0.00  0.00    +0.000 C 
ATOM      5  C   UNL     1       4.582   4.135  15.983  0.00  0.00    +0.000 C 
ATOM      6  N   UNL     1       5.567   4.190  17.040  0.00  0.00    +0.000 N 
ATOM      7  C   UNL     1       6.844   4.290  16.348  0.00  0.00    +0.000 C 
ATOM      8  O   UNL     1       7.949   4.357  16.865  0.00  0.00    +0.000 OA
ATOM      9  N   UNL     1       6.563   4.705  14.978  0.00  0.00    +0.000 N 
ENDROOT
BRANCH   1  12
ATOM     10  C   UNL     1       3.151   3.524  20.540  0.00  0.00    +0.000 C 
ATOM     11  C   UNL     1       4.225   3.405  19.474  0.00  0.00    +0.000 C 
ATOM     12  C   UNL     1       4.309   4.819  19.047  0.00  0.00    +0.000 C 
ATOM     13  N   UNL     1       3.478   5.628  19.625  0.00  0.00    +0.000 NA
ATOM     14  O   UNL     1       2.730   4.896  20.562  0.00  0.00    +0.000 OA
BRANCH  10  15
ATOM     15  C   UNL     1       1.911   2.661  20.287  0.00  0.00    +0.000 C 
BRANCH  15  16
ATOM     16  N   UNL     1       0.665   3.424  20.332  0.00  0.00    +0.000 NA
ATOM     17  H   UNL     1       0.637   3.954  21.204  0.00  0.00    +0.000 HD
ATOM     18  H   UNL     1      -0.128   2.784  20.374  0.00  0.00    +0.000 HD
ENDBRANCH  15  16
ENDBRANCH  10  15
ENDBRANCH   1  12
BRANCH   9  19
ATOM     19  O   UNL     1       6.450   3.502  14.179  0.00  0.00    +0.000 OA
BRANCH  19  20
ATOM     20  S   UNL     1       6.369   3.659  12.555  0.00  0.00    +0.000 S 
ATOM     21  O   UNL     1       4.973   3.713  12.180  0.00  0.00    +0.000 OA
ATOM     22  O   UNL     1       7.286   4.691  12.157  0.00  0.00    +0.000 OA
BRANCH  20  23
ATOM     23  O   UNL     1       6.912   2.262  11.957  0.00  0.00    +0.000 OA
ATOM     24  H   UNL     1       6.709   1.577  12.630  0.00  0.00    +0.000 HD
ENDBRANCH  20  23
ENDBRANCH  19  20
ENDBRANCH   9  19
TORSDOF 6
ENDMDL
MODEL 2
REMARK VINA RESULT:      -7.1      3.116      6.551
REMARK  Name = 
REMARK  6 active torsions:
REMARK  status: ('A' for Active; 'I' for Inactive)
REMARK    1  A    between atoms: N_1  and  C_2
REMARK    2  A    between atoms: C_2  and  C_3
REMARK    3  A    between atoms: C_5  and  C_6
REMARK    4  A    between atoms: N_14  and  O_15
REMARK    5  A    between atoms: O_15  and  S_16
REMARK    6  A    between atoms: S_16  and  O_19
REMARK                            x       y       z     vdW  Elec       q    Type
REMARK                         _______ _______ _______ _____ _____    ______ ____
ROOT
ATOM      1  C   UNL     1       5.020   4.894  15.333  0.00  0.00    +0.000 C 
ATOM      2  C   UNL     1       5.293   6.344  15.845  0.00  0.00    +0.000 C 
ATOM      3  C   UNL     1       5.103   6.480  17.368  0.00  0.00    +0.000 C 
ATOM      4  C   UNL     1       5.740   5.287  18.152  0.00  0.00    +0.000 C 
ATOM      5  C   UNL     1       6.482   4.357  17.195  0.00  0.00    +0.000 C 
ATOM      6  N   UNL     1       5.351   3.933  16.400  0.00  0.00    +0.000 N 
ATOM      7  C   UNL     1       4.282   3.719  17.364  0.00  0.00    +0.000 C 
ATOM      8  O   UNL     1       3.144   3.349  17.119  0.00  0.00    +0.000 OA
ATOM      9  N   UNL     1       4.665   4.403  18.594  0.00  0.00    +0.000 N 
ENDROOT
BRANCH   1  12
ATOM     10  C   UNL     1       6.617   3.905  12.061  0.00  0.00    +0.000 C 
ATOM     11  C   UNL     1       5.423   3.781  12.990  0.00  0.00    +0.000 C 
ATOM     12  C   UNL     1       5.891   4.625  14.111  0.00  0.00    +0.000 C 
ATOM     13  N   UNL     1       7.084   5.113  13.983  0.00  0.00    +0.000 NA
ATOM     14  O   UNL     1       7.594   4.709  12.738  0.00  0.00    +0.000 OA
BRANCH  10  15
ATOM     15  C   UNL     1       7.280   2.571  11.703  0.00  0.00    +0.000 C 
BRANCH  15  16
ATOM     16  N   UNL     1       6.315   1.497  11.472  0.00  0.00    +0.000 NA
ATOM     17  H   UNL     1       5.619   1.821  10.799  0.00  0.00    +0.000 HD
ATOM     18  H   UNL     1       5.799   1.311  12.332  0.00  0.00    +0.000 HD
ENDBRANCH  15  16
ENDBRANCH  10  15
ENDBRANCH   1  12
BRANCH   9  19
ATOM     19  O   UNL     1       5.343   3.434  19.431  0.00  0.00    +0.000 OA
BRANCH  19  20
ATOM     20  S   UNL     1       4.451   2.254  20.124  0.00  0.00    +0.000 S 
ATOM     21  O   UNL     1       5.266   1.609  21.130  0.00  0.00    +0.000 OA
ATOM     22  O   UNL     1       3.162   2.799  20.451  0.00  0.00    +0.000 OA
BRANCH  20  23
ATOM     23  O   UNL     1       4.237   1.141  18.976  0.00  0.00    +0.000 OA
ATOM     24  H   UNL     1       4.594   0.301  19.338  0.00  0.00    +0.000 HD
ENDBRANCH  20  23
ENDBRANCH  19  20
ENDBRANCH   9  19
TORSDOF 6
ENDMDL
MODEL 3
REMARK VINA RESULT:      -7.0      2.992      6.781
REMARK  Name = 
REMARK  6 active torsions:
REMARK  status: ('A' for Active; 'I' for Inactive)
REMARK    1  A    between atoms: N_1  and  C_2
REMARK    2  A    between atoms: C_2  and  C_3
REMARK    3  A    between atoms: C_5  and  C_6
REMARK    4  A    between atoms: N_14  and  O_15
REMARK    5  A    between atoms: O_15  and  S_16
REMARK    6  A    between atoms: S_16  and  O_19
REMARK                            x       y       z     vdW  Elec       q    Type
REMARK                         _______ _______ _______ _____ _____    ______ ____
ROOT
ATOM      1  C   UNL     1       5.808   5.959  17.055  0.00  0.00    +0.000 C 
ATOM      2  C   UNL     1       6.922   5.695  18.117  0.00  0.00    +0.000 C 
ATOM      3  C   UNL     1       6.347   5.352  19.505  0.00  0.00    +0.000 C 
ATOM      4  C   UNL     1       5.155   4.345  19.419  0.00  0.00    +0.000 C 
ATOM      5  C   UNL     1       4.950   3.884  17.978  0.00  0.00    +0.000 C 
ATOM      6  N   UNL     1       4.614   5.164  17.396  0.00  0.00    +0.000 N 
ATOM      7  C   UNL     1       3.736   5.793  18.371  0.00  0.00    +0.000 C 
ATOM      8  O   UNL     1       3.214   6.894  18.277  0.00  0.00    +0.000 OA
ATOM      9  N   UNL     1       3.914   5.085  19.634  0.00  0.00    +0.000 N 
ENDROOT
BRANCH   1  12
ATOM     10  C   UNL     1       6.412   4.866  13.495  0.00  0.00    +0.000 C 
ATOM     11  C   UNL     1       5.413   5.060  14.620  0.00  0.00    +0.000 C 
ATOM     12  C   UNL     1       6.323   5.547  15.680  0.00  0.00    +0.000 C 
ATOM     13  N   UNL     1       7.577   5.599  15.360  0.00  0.00    +0.000 NA
ATOM     14  O   UNL     1       7.707   5.192  14.022  0.00  0.00    +0.000 OA
BRANCH  10  15
ATOM     15  C   UNL     1       6.479   3.437  12.947  0.00  0.00    +0.000 C 
BRANCH  15  16
ATOM     16  N   UNL     1       5.466   3.168  11.928  0.00  0.00    +0.000 NA
ATOM     17  H   UNL     1       5.840   3.433  11.016  0.00  0.00    +0.000 HD
ATOM     18  H   UNL     1       4.658   3.771  12.080  0.00  0.00    +0.000 HD
ENDBRANCH  15  16
ENDBRANCH  10  15
ENDBRANCH   1  12
BRANCH   9  19
ATOM     19  O   UNL     1       2.904   4.048  19.690  0.00  0.00    +0.000 OA
BRANCH  19  20
ATOM     20  S   UNL     1       1.737   4.167  20.828  0.00  0.00    +0.000 S 
ATOM     21  O   UNL     1       2.182   3.449  22.002  0.00  0.00    +0.000 OA
ATOM     22  O   UNL     1       1.329   5.543  20.910  0.00  0.00    +0.000 OA
BRANCH  20  23
ATOM     23  O   UNL     1       0.489   3.317  20.260  0.00  0.00    +0.000 OA
ATOM     24  H   UNL     1       0.074   2.886  21.038  0.00  0.00    +0.000 HD
ENDBRANCH  20  23
ENDBRANCH  19  20
ENDBRANCH   9  19
TORSDOF 6
ENDMDL
MODEL 4
REMARK VINA RESULT:      -6.9      3.024      6.785
REMARK  Name = 
REMARK  6 active torsions:
REMARK  status: ('A' for Active; 'I' for Inactive)
REMARK    1  A    between atoms: N_1  and  C_2
REMARK    2  A    between atoms: C_2  and  C_3
REMARK    3  A    between atoms: C_5  and  C_6
REMARK    4  A    between atoms: N_14  and  O_15
REMARK    5  A    between atoms: O_15  and  S_16
REMARK    6  A    between atoms: S_16  and  O_19
REMARK                            x       y       z     vdW  Elec       q    Type
REMARK                         _______ _______ _______ _____ _____    ______ ____
ROOT
ATOM      1  C   UNL     1       5.892   5.999  16.976  0.00  0.00    +0.000 C 
ATOM      2  C   UNL     1       7.050   5.794  18.004  0.00  0.00    +0.000 C 
ATOM      3  C   UNL     1       6.535   5.473  19.420  0.00  0.00    +0.000 C 
ATOM      4  C   UNL     1       5.369   4.431  19.403  0.00  0.00    +0.000 C 
ATOM      5  C   UNL     1       5.126   3.926  17.983  0.00  0.00    +0.000 C 
ATOM      6  N   UNL     1       4.734   5.181  17.381  0.00  0.00    +0.000 N 
ATOM      7  C   UNL     1       3.874   5.812  18.371  0.00  0.00    +0.000 C 
ATOM      8  O   UNL     1       3.318   6.895  18.268  0.00  0.00    +0.000 OA
ATOM      9  N   UNL     1       4.117   5.143  19.644  0.00  0.00    +0.000 N 
ENDROOT
BRANCH   1  12
ATOM     10  C   UNL     1       6.398   4.846  13.420  0.00  0.00    +0.000 C 
ATOM     11  C   UNL     1       5.430   5.058  14.569  0.00  0.00    +0.000 C 
ATOM     12  C   UNL     1       6.369   5.564  15.594  0.00  0.00    +0.000 C 
ATOM     13  N   UNL     1       7.614   5.612  15.238  0.00  0.00    +0.000 NA
ATOM     14  O   UNL     1       7.707   5.182  13.904  0.00  0.00    +0.000 OA
BRANCH  10  15
ATOM     15  C   UNL     1       6.452   3.408  12.895  0.00  0.00    +0.000 C 
BRANCH  15  16
ATOM     16  N   UNL     1       5.375   3.102  11.954  0.00  0.00    +0.000 NA
ATOM     17  H   UNL     1       5.189   2.099  11.984  0.00  0.00    +0.000 HD
ATOM     18  H   UNL     1       5.686   3.296  11.003  0.00  0.00    +0.000 HD
ENDBRANCH  15  16
ENDBRANCH  10  15
ENDBRANCH   1  12
BRANCH   9  19
ATOM     19  O   UNL     1       3.139   4.081  19.764  0.00  0.00    +0.000 OA
BRANCH  19  20
ATOM     20  S   UNL     1       1.933   4.261  20.852  0.00  0.00    +0.000 S 
ATOM     21  O   UNL     1       0.677   4.050  20.166  0.00  0.00    +0.000 OA
ATOM     22  O   UNL     1       2.272   3.509  22.028  0.00  0.00    +0.000 OA
BRANCH  20  23
ATOM     23  O   UNL     1       1.938   5.825  21.249  0.00  0.00    +0.000 OA
ATOM     24  H   UNL     1       1.413   6.286  20.560  0.00  0.00    +0.000 HD
ENDBRANCH  20  23
ENDBRANCH  19  20
ENDBRANCH   9  19
TORSDOF 6
ENDMDL
MODEL 5
REMARK VINA RESULT:      -6.9      2.917      6.662
REMARK  Name = 
REMARK  6 active torsions:
REMARK  status: ('A' for Active; 'I' for Inactive)
REMARK    1  A    between atoms: N_1  and  C_2
REMARK    2  A    between atoms: C_2  and  C_3
REMARK    3  A    between atoms: C_5  and  C_6
REMARK    4  A    between atoms: N_14  and  O_15
REMARK    5  A    between atoms: O_15  and  S_16
REMARK    6  A    between atoms: S_16  and  O_19
REMARK                            x       y       z     vdW  Elec       q    Type
REMARK                         _______ _______ _______ _____ _____    ______ ____
ROOT
ATOM      1  C   UNL     1       5.360   5.668  17.009  0.00  0.00    +0.000 C 
ATOM      2  C   UNL     1       6.368   5.602  18.199  0.00  0.00    +0.000 C 
ATOM      3  C   UNL     1       5.720   5.085  19.497  0.00  0.00    +0.000 C 
ATOM      4  C   UNL     1       4.793   3.852  19.245  0.00  0.00    +0.000 C 
ATOM      5  C   UNL     1       4.868   3.420  17.782  0.00  0.00    +0.000 C 
ATOM      6  N   UNL     1       4.335   4.624  17.183  0.00  0.00    +0.000 N 
ATOM      7  C   UNL     1       3.231   5.008  18.050  0.00  0.00    +0.000 C 
ATOM      8  O   UNL     1       2.497   5.975  17.909  0.00  0.00    +0.000 OA
ATOM      9  N   UNL     1       3.405   4.300  19.313  0.00  0.00    +0.000 N 
ENDROOT
BRANCH   1  12
ATOM     10  C   UNL     1       6.599   4.933  13.523  0.00  0.00    +0.000 C 
ATOM     11  C   UNL     1       5.440   4.897  14.501  0.00  0.00    +0.000 C 
ATOM     12  C   UNL     1       6.112   5.436  15.703  0.00  0.00    +0.000 C 
ATOM     13  N   UNL     1       7.375   5.694  15.570  0.00  0.00    +0.000 NA
ATOM     14  O   UNL     1       7.745   5.406  14.246  0.00  0.00    +0.000 OA
BRANCH  10  15
ATOM     15  C   UNL     1       6.960   3.571  12.920  0.00  0.00    +0.000 C 
BRANCH  15  16
ATOM     16  N   UNL     1       5.820   2.903  12.295  0.00  0.00    +0.000 NA
ATOM     17  H   UNL     1       6.139   2.436  11.445  0.00  0.00    +0.000 HD
ATOM     18  H   UNL     1       5.141   3.599  11.988  0.00  0.00    +0.000 HD
ENDBRANCH  15  16
ENDBRANCH  10  15
ENDBRANCH   1  12
BRANCH   9  19
ATOM     19  O   UNL     1       2.645   3.070  19.224  0.00  0.00    +0.000 OA
BRANCH  19  20
ATOM     20  S   UNL     1       1.234   2.974  20.043  0.00  0.00    +0.000 S 
ATOM     21  O   UNL     1       0.236   2.425  19.152  0.00  0.00    +0.000 OA
ATOM     22  O   UNL     1       1.496   2.375  21.323  0.00  0.00    +0.000 OA
BRANCH  20  23
ATOM     23  O   UNL     1       0.776   4.500  20.299  0.00  0.00    +0.000 OA
ATOM     24  H   UNL     1       1.108   5.019  19.534  0.00  0.00    +0.000 HD
ENDBRANCH  20  23
ENDBRANCH  19  20
ENDBRANCH   9  19
TORSDOF 6
ENDMDL
MODEL 6
REMARK VINA RESULT:      -6.8      2.866      6.950
REMARK  Name = 
REMARK  6 active torsions:
REMARK  status: ('A' for Active; 'I' for Inactive)
REMARK    1  A    between atoms: N_1  and  C_2
REMARK    2  A    between atoms: C_2  and  C_3
REMARK    3  A    between atoms: C_5  and  C_6
REMARK    4  A    between atoms: N_14  and  O_15
REMARK    5  A    between atoms: O_15  and  S_16
REMARK    6  A    between atoms: S_16  and  O_19
REMARK                            x       y       z     vdW  Elec       q    Type
REMARK                         _______ _______ _______ _____ _____    ______ ____
ROOT
ATOM      1  C   UNL     1       5.167   5.472  16.766  0.00  0.00    +0.000 C 
ATOM      2  C   UNL     1       6.367   5.618  17.755  0.00  0.00    +0.000 C 
ATOM      3  C   UNL     1       5.951   5.414  19.224  0.00  0.00    +0.000 C 
ATOM      4  C   UNL     1       4.990   4.193  19.403  0.00  0.00    +0.000 C 
ATOM      5  C   UNL     1       4.809   3.460  18.076  0.00  0.00    +0.000 C 
ATOM      6  N   UNL     1       4.184   4.530  17.331  0.00  0.00    +0.000 N 
ATOM      7  C   UNL     1       3.248   5.134  18.268  0.00  0.00    +0.000 C 
ATOM      8  O   UNL     1       2.505   6.078  18.048  0.00  0.00    +0.000 OA
ATOM      9  N   UNL     1       3.637   4.702  19.606  0.00  0.00    +0.000 N 
ENDROOT
BRANCH   1  12
ATOM     10  C   UNL     1       7.066   4.230  13.752  0.00  0.00    +0.000 C 
ATOM     11  C   UNL     1       7.127   4.875  15.124  0.00  0.00    +0.000 C 
ATOM     12  C   UNL     1       5.682   4.938  15.433  0.00  0.00    +0.000 C 
ATOM     13  N   UNL     1       4.891   4.513  14.500  0.00  0.00    +0.000 NA
ATOM     14  O   UNL     1       5.678   4.059  13.429  0.00  0.00    +0.000 OA
BRANCH  10  15
ATOM     15  C   UNL     1       7.705   5.060  12.634  0.00  0.00    +0.000 C 
BRANCH  15  16
ATOM     16  N   UNL     1       8.752   5.960  13.118  0.00  0.00    +0.000 NA
ATOM     17  H   UNL     1       8.608   6.882  12.703  0.00  0.00    +0.000 HD
ATOM     18  H   UNL     1       9.659   5.644  12.777  0.00  0.00    +0.000 HD
ENDBRANCH  15  16
ENDBRANCH  10  15
ENDBRANCH   1  12
BRANCH   9  19
ATOM     19  O   UNL     1       2.868   3.513  19.913  0.00  0.00    +0.000 OA
BRANCH  19  20
ATOM     20  S   UNL     1       1.536   3.675  20.845  0.00  0.00    +0.000 S 
ATOM     21  O   UNL     1       1.755   2.939  22.071  0.00  0.00    +0.000 OA
ATOM     22  O   UNL     1       1.169   5.064  20.868  0.00  0.00    +0.000 OA
BRANCH  20  23
ATOM     23  O   UNL     1       0.368   2.871  20.075  0.00  0.00    +0.000 OA
ATOM     24  H   UNL     1      -0.327   3.531  19.863  0.00  0.00    +0.000 HD
ENDBRANCH  20  23
ENDBRANCH  19  20
ENDBRANCH   9  19
TORSDOF 6
ENDMDL
MODEL 7
REMARK VINA RESULT:      -6.7      1.178      1.327
REMARK  Name = 
REMARK  6 active torsions:
REMARK  status: ('A' for Active; 'I' for Inactive)
REMARK    1  A    between atoms: N_1  and  C_2
REMARK    2  A    between atoms: C_2  and  C_3
REMARK    3  A    between atoms: C_5  and  C_6
REMARK    4  A    between atoms: N_14  and  O_15
REMARK    5  A    between atoms: O_15  and  S_16
REMARK    6  A    between atoms: S_16  and  O_19
REMARK                            x       y       z     vdW  Elec       q    Type
REMARK                         _______ _______ _______ _____ _____    ______ ____
ROOT
ATOM      1  C   UNL     1       5.257   5.261  17.679  0.00  0.00    +0.000 C 
ATOM      2  C   UNL     1       4.724   6.485  16.870  0.00  0.00    +0.000 C 
ATOM      3  C   UNL     1       5.306   6.553  15.445  0.00  0.00    +0.000 C 
ATOM      4  C   UNL     1       5.321   5.155  14.746  0.00  0.00    +0.000 C 
ATOM      5  C   UNL     1       4.647   4.109  15.631  0.00  0.00    +0.000 C 
ATOM      6  N   UNL     1       5.564   4.161  16.748  0.00  0.00    +0.000 N 
ATOM      7  C   UNL     1       6.883   4.244  16.138  0.00  0.00    +0.000 C 
ATOM      8  O   UNL     1       7.953   4.304  16.724  0.00  0.00    +0.000 OA
ATOM      9  N   UNL     1       6.694   4.655  14.752  0.00  0.00    +0.000 N 
ENDROOT
BRANCH   1  12
ATOM     10  C   UNL     1       2.183   4.538  19.742  0.00  0.00    +0.000 C 
ATOM     11  C   UNL     1       2.806   5.342  18.617  0.00  0.00    +0.000 C 
ATOM     12  C   UNL     1       4.187   4.813  18.668  0.00  0.00    +0.000 C 
ATOM     13  N   UNL     1       4.420   3.949  19.605  0.00  0.00    +0.000 NA
ATOM     14  O   UNL     1       3.225   3.730  20.310  0.00  0.00    +0.000 OA
BRANCH  10  15
ATOM     15  C   UNL     1       1.585   5.385  20.870  0.00  0.00    +0.000 C 
BRANCH  15  16
ATOM     16  N   UNL     1       1.997   6.787  20.811  0.00  0.00    +0.000 NA
ATOM     17  H   UNL     1       2.756   6.876  20.135  0.00  0.00    +0.000 HD
ATOM     18  H   UNL     1       2.394   7.064  21.709  0.00  0.00    +0.000 HD
ENDBRANCH  15  16
ENDBRANCH  10  15
ENDBRANCH   1  12
BRANCH   9  19
ATOM     19  O   UNL     1       6.620   3.448  13.953  0.00  0.00    +0.000 OA
BRANCH  19  20
ATOM     20  S   UNL     1       6.500   3.603  12.331  0.00  0.00    +0.000 S 
ATOM     21  O   UNL     1       5.096   3.605  11.984  0.00  0.00    +0.000 OA
ATOM     22  O   UNL     1       7.369   4.669  11.915  0.00  0.00    +0.000 OA
BRANCH  20  23
ATOM     23  O   UNL     1       7.083   2.228  11.720  0.00  0.00    +0.000 OA
ATOM     24  H   UNL     1       8.060   2.285  11.795  0.00  0.00    +0.000 HD
ENDBRANCH  20  23
ENDBRANCH  19  20
ENDBRANCH   9  19
TORSDOF 6
ENDMDL
MODEL 8
REMARK VINA RESULT:      -6.6      3.443      4.368
REMARK  Name = 
REMARK  6 active torsions:
REMARK  status: ('A' for Active; 'I' for Inactive)
REMARK    1  A    between atoms: N_1  and  C_2
REMARK    2  A    between atoms: C_2  and  C_3
REMARK    3  A    between atoms: C_5  and  C_6
REMARK    4  A    between atoms: N_14  and  O_15
REMARK    5  A    between atoms: O_15  and  S_16
REMARK    6  A    between atoms: S_16  and  O_19
REMARK                            x       y       z     vdW  Elec       q    Type
REMARK                         _______ _______ _______ _____ _____    ______ ____
ROOT
ATOM      1  C   UNL     1       2.970   4.638  17.526  0.00  0.00    +0.000 C 
ATOM      2  C   UNL     1       3.922   3.799  16.616  0.00  0.00    +0.000 C 
ATOM      3  C   UNL     1       5.136   4.608  16.123  0.00  0.00    +0.000 C 
ATOM      4  C   UNL     1       5.773   5.472  17.260  0.00  0.00    +0.000 C 
ATOM      5  C   UNL     1       5.079   5.193  18.592  0.00  0.00    +0.000 C 
ATOM      6  N   UNL     1       3.757   5.660  18.239  0.00  0.00    +0.000 N 
ATOM      7  C   UNL     1       3.988   6.878  17.475  0.00  0.00    +0.000 C 
ATOM      8  O   UNL     1       3.135   7.601  16.984  0.00  0.00    +0.000 OA
ATOM      9  N   UNL     1       5.383   6.864  17.051  0.00  0.00    +0.000 N 
ENDROOT
BRANCH   1  12
ATOM     10  C   UNL     1       1.004   2.924  20.251  0.00  0.00    +0.000 C 
ATOM     11  C   UNL     1       1.439   4.233  19.620  0.00  0.00    +0.000 C 
ATOM     12  C   UNL     1       2.298   3.712  18.534  0.00  0.00    +0.000 C 
ATOM     13  N   UNL     1       2.438   2.425  18.500  0.00  0.00    +0.000 NA
ATOM     14  O   UNL     1       1.665   1.871  19.534  0.00  0.00    +0.000 OA
BRANCH  10  15
ATOM     15  C   UNL     1       1.373   2.781  21.731  0.00  0.00    +0.000 C 
BRANCH  15  16
ATOM     16  N   UNL     1       2.788   2.476  21.940  0.00  0.00    +0.000 NA
ATOM     17  H   UNL     1       2.911   1.463  21.912  0.00  0.00    +0.000 HD
ATOM     18  H   UNL     1       3.064   2.760  22.879  0.00  0.00    +0.000 HD
ENDBRANCH  15  16
ENDBRANCH  10  15
ENDBRANCH   1  12
BRANCH   9  19
ATOM     19  O   UNL     1       6.143   7.585  18.051  0.00  0.00    +0.000 OA
BRANCH  19  20
ATOM     20  S   UNL     1       7.727   7.866  17.763  0.00  0.00    +0.000 S 
ATOM     21  O   UNL     1       8.084   7.192  16.534  0.00  0.00    +0.000 OA
ATOM     22  O   UNL     1       7.974   9.271  17.937  0.00  0.00    +0.000 OA
BRANCH  20  23
ATOM     23  O   UNL     1       8.525   7.078  18.923  0.00  0.00    +0.000 OA
ATOM     24  H   UNL     1       9.066   6.396  18.470  0.00  0.00    +0.000 HD
ENDBRANCH  20  23
ENDBRANCH  19  20
ENDBRANCH   9  19
TORSDOF 6
ENDMDL
MODEL 9
REMARK VINA RESULT:      -6.5      0.598      1.101
REMARK  Name = 
REMARK  6 active torsions:
REMARK  status: ('A' for Active; 'I' for Inactive)
REMARK    1  A    between atoms: N_1  and  C_2
REMARK    2  A    between atoms: C_2  and  C_3
REMARK    3  A    between atoms: C_5  and  C_6
REMARK    4  A    between atoms: N_14  and  O_15
REMARK    5  A    between atoms: O_15  and  S_16
REMARK    6  A    between atoms: S_16  and  O_19
REMARK                            x       y       z     vdW  Elec       q    Type
REMARK                         _______ _______ _______ _____ _____    ______ ____
ROOT
ATOM      1  C   UNL     1       5.356   5.198  17.886  0.00  0.00    +0.000 C 
ATOM      2  C   UNL     1       4.739   6.427  17.147  0.00  0.00    +0.000 C 
ATOM      3  C   UNL     1       5.219   6.543  15.687  0.00  0.00    +0.000 C 
ATOM      4  C   UNL     1       5.219   5.162  14.954  0.00  0.00    +0.000 C 
ATOM      5  C   UNL     1       4.633   4.079  15.857  0.00  0.00    +0.000 C 
ATOM      6  N   UNL     1       5.624   4.128  16.909  0.00  0.00    +0.000 N 
ATOM      7  C   UNL     1       6.895   4.259  16.212  0.00  0.00    +0.000 C 
ATOM      8  O   UNL     1       8.001   4.333  16.725  0.00  0.00    +0.000 OA
ATOM      9  N   UNL     1       6.600   4.697  14.853  0.00  0.00    +0.000 N 
ENDROOT
BRANCH   1  12
ATOM     10  C   UNL     1       3.193   3.345  20.360  0.00  0.00    +0.000 C 
ATOM     11  C   UNL     1       4.221   3.261  19.246  0.00  0.00    +0.000 C 
ATOM     12  C   UNL     1       4.368   4.700  18.935  0.00  0.00    +0.000 C 
ATOM     13  N   UNL     1       3.605   5.499  19.611  0.00  0.00    +0.000 NA
ATOM     14  O   UNL     1       2.850   4.730  20.512  0.00  0.00    +0.000 OA
BRANCH  10  15
ATOM     15  C   UNL     1       1.899   2.573  20.085  0.00  0.00    +0.000 C 
BRANCH  15  16
ATOM     16  N   UNL     1       1.987   1.709  18.908  0.00  0.00    +0.000 NA
ATOM     17  H   UNL     1       2.664   0.968  19.096  0.00  0.00    +0.000 HD
ATOM     18  H   UNL     1       2.368   2.237  18.124  0.00  0.00    +0.000 HD
ENDBRANCH  15  16
ENDBRANCH  10  15
ENDBRANCH   1  12
BRANCH   9  19
ATOM     19  O   UNL     1       6.500   3.508  14.031  0.00  0.00    +0.000 OA
BRANCH  19  20
ATOM     20  S   UNL     1       6.583   3.682  12.408  0.00  0.00    +0.000 S 
ATOM     21  O   UNL     1       7.273   4.922  12.126  0.00  0.00    +0.000 OA
ATOM     22  O   UNL     1       7.032   2.438  11.845  0.00  0.00    +0.000 OA
BRANCH  20  23
ATOM     23  O   UNL     1       5.065   3.924  11.920  0.00  0.00    +0.000 OA
ATOM     24  H   UNL     1       4.974   3.457  11.061  0.00  0.00    +0.000 HD
ENDBRANCH  20  23
ENDBRANCH  19  20
ENDBRANCH   9  19
TORSDOF 6
ENDMDL
