MODEL 1
REMARK VINA RESULT:      -7.8      0.000      0.000
REMARK  Name = 
REMARK  6 active torsions:
REMARK  status: ('A' for Active; 'I' for Inactive)
REMARK    1  A    between atoms: N_11  and  C_12
REMARK    2  A    between atoms: C_12  and  C_13
REMARK    3  A    between atoms: C_13  and  O_14
REMARK    4  A    between atoms: O_14  and  C_15
REMARK    5  A    between atoms: C_15  and  C_16
REMARK    6  A    between atoms: C_16  and  N_17
REMARK                            x       y       z     vdW  Elec       q    Type
REMARK                         _______ _______ _______ _____ _____    ______ ____
ROOT
ATOM      1  O   UNL     1       5.682   6.169  17.103  0.00  0.00    +0.000 OA
ENDROOT
BRANCH   1   2
ATOM      2  C   UNL     1       4.932   5.369  16.178  0.00  0.00    +0.000 C 
BRANCH   2   3
ATOM      3  C   UNL     1       5.015   3.887  16.548  0.00  0.00    +0.000 C 
BRANCH   3  14
ATOM      4  O   UNL     1       2.080   3.467  16.569  0.00  0.00    +0.000 OA
ATOM      5  C   UNL     1       2.788   3.381  17.553  0.00  0.00    +0.000 C 
ATOM      6  C   UNL     1       2.294   3.087  18.899  0.00  0.00    +0.000 A 
ATOM      7  C   UNL     1       1.020   2.788  19.345  0.00  0.00    +0.000 A 
ATOM      8  C   UNL     1       0.861   2.542  20.713  0.00  0.00    +0.000 A 
ATOM      9  C   UNL     1       1.962   2.606  21.592  0.00  0.00    +0.000 A 
ATOM     10  C   UNL     1       3.241   2.917  21.117  0.00  0.00    +0.000 A 
ATOM     11  C   UNL     1       3.374   3.148  19.761  0.00  0.00    +0.000 A 
ATOM     12  C   UNL     1       4.556   3.477  18.964  0.00  0.00    +0.000 C 
ATOM     13  O   UNL     1       5.664   3.660  19.429  0.00  0.00    +0.000 OA
ATOM     14  N   UNL     1       4.141   3.553  17.662  0.00  0.00    +0.000 N 
ENDBRANCH   3  14
ENDBRANCH   2   3
ENDBRANCH   1   2
BRANCH   1  15
ATOM     15  C   UNL     1       4.867   7.228  17.624  0.00  0.00    +0.000 C 
BRANCH  15  16
ATOM     16  C   UNL     1       3.387   6.837  17.605  0.00  0.00    +0.000 C 
BRANCH  16  17
ATOM     17  N   UNL     1       2.602   7.645  18.526  0.00  0.00    +0.000 N 
ATOM     18  C   UNL     1       2.207   7.227  19.768  0.00  0.00    +0.000 C 
ATOM     19  O   UNL     1       2.422   6.168  20.326  0.00  0.00    +0.000 OA
ATOM     20  C   UNL     1       1.404   8.310  20.337  0.00  0.00    +0.000 A 
ATOM     21  C   UNL     1       0.795   8.422  21.573  0.00  0.00    +0.000 A 
ATOM     22  C   UNL     1       0.084   9.599  21.831  0.00  0.00    +0.000 A 
ATOM     23  C   UNL     1      -0.006  10.617  20.860  0.00  0.00    +0.000 A 
ATOM     24  C   UNL     1       0.612  10.477  19.613  0.00  0.00    +0.000 A 
ATOM     25  C   UNL     1       1.315   9.309  19.385  0.00  0.00    +0.000 A 
ATOM     26  C   UNL     1       2.064   8.863  18.207  0.00  0.00    +0.000 C 
ATOM     27  O   UNL     1       2.134   9.484  17.165  0.00  0.00    +0.000 OA
ENDBRANCH  16  17
ENDBRANCH  15  16
ENDBRANCH   1  15
TORSDOF 6
ENDMDL
MODEL 2
REMARK VINA RESULT:      -7.7      0.458      5.896
REMARK  Name = 
REMARK  6 active torsions:
REMARK  status: ('A' for Active; 'I' for Inactive)
REMARK    1  A    between atoms: N_11  and  C_12
REMARK    2  A    between atoms: C_12  and  C_13
REMARK    3  A    between atoms: C_13  and  O_14
REMARK    4  A    between atoms: O_14  and  C_15
REMARK    5  A    between atoms: C_15  and  C_16
REMARK    6  A    between atoms: C_16  and  N_17
REMARK                            x       y       z     vdW  Elec       q    Type
REMARK                         _______ _______ _______ _____ _____    ______ ____
ROOT
ATOM      1  O   UNL     1       4.950   6.084  17.658  0.00  0.00    +0.000 OA
ENDROOT
BRANCH   1   2
ATOM      2  C   UNL     1       4.101   7.220  17.442  0.00  0.00    +0.000 C 
BRANCH   2   3
ATOM      3  C   UNL     1       2.639   6.871  17.725  0.00  0.00    +0.000 C 
BRANCH   3  14
ATOM      4  O   UNL     1       1.949   9.739  17.429  0.00  0.00    +0.000 OA
ATOM      5  C   UNL     1       1.762   9.093  18.442  0.00  0.00    +0.000 C 
ATOM      6  C   UNL     1       1.196   9.643  19.674  0.00  0.00    +0.000 A 
ATOM      7  C   UNL     1       0.707  10.906  19.956  0.00  0.00    +0.000 A 
ATOM      8  C   UNL     1       0.215  11.129  21.246  0.00  0.00    +0.000 A 
ATOM      9  C   UNL     1       0.230  10.103  22.214  0.00  0.00    +0.000 A 
ATOM     10  C   UNL     1       0.737   8.836  21.907  0.00  0.00    +0.000 A 
ATOM     11  C   UNL     1       1.209   8.636  20.623  0.00  0.00    +0.000 A 
ATOM     12  C   UNL     1       1.779   7.446  19.994  0.00  0.00    +0.000 C 
ATOM     13  O   UNL     1       1.981   6.396  20.574  0.00  0.00    +0.000 OA
ATOM     14  N   UNL     1       2.038   7.777  18.691  0.00  0.00    +0.000 N 
ENDBRANCH   3  14
ENDBRANCH   2   3
ENDBRANCH   1   2
BRANCH   1  15
ATOM     15  C   UNL     1       5.163   5.378  16.429  0.00  0.00    +0.000 C 
BRANCH  15  16
ATOM     16  C   UNL     1       5.006   3.868  16.633  0.00  0.00    +0.000 C 
BRANCH  16  17
ATOM     17  N   UNL     1       4.105   3.561  17.733  0.00  0.00    +0.000 N 
ATOM     18  C   UNL     1       2.747   3.453  17.605  0.00  0.00    +0.000 C 
ATOM     19  O   UNL     1       2.058   3.571  16.610  0.00  0.00    +0.000 OA
ATOM     20  C   UNL     1       2.220   3.190  18.944  0.00  0.00    +0.000 A 
ATOM     21  C   UNL     1       0.926   2.963  19.373  0.00  0.00    +0.000 A 
ATOM     22  C   UNL     1       0.734   2.738  20.739  0.00  0.00    +0.000 A 
ATOM     23  C   UNL     1       1.823   2.752  21.635  0.00  0.00    +0.000 A 
ATOM     24  C   UNL     1       3.123   2.992  21.179  0.00  0.00    +0.000 A 
ATOM     25  C   UNL     1       3.288   3.203  19.823  0.00  0.00    +0.000 A 
ATOM     26  C   UNL     1       4.499   3.473  19.042  0.00  0.00    +0.000 C 
ATOM     27  O   UNL     1       5.606   3.613  19.521  0.00  0.00    +0.000 OA
ENDBRANCH  16  17
ENDBRANCH  15  16
ENDBRANCH   1  15
TORSDOF 6
ENDMDL
MODEL 3
REMARK VINA RESULT:      -7.6      0.533      1.762
REMARK  Name = 
REMARK  6 active torsions:
REMARK  status: ('A' for Active; 'I' for Inactive)
REMARK    1  A    between atoms: N_11  and  C_12
REMARK    2  A    between atoms: C_12  and  C_13
REMARK    3  A    between atoms: C_13  and  O_14
REMARK    4  A    between atoms: O_14  and  C_15
REMARK    5  A    between atoms: C_15  and  C_16
REMARK    6  A    between atoms: C_16  and  N_17
REMARK                            x       y       z     vdW  Elec       q    Type
REMARK                         _______ _______ _______ _____ _____    ______ ____
ROOT
ATOM      1  O   UNL     1       4.871   6.085  17.841  0.00  0.00    +0.000 OA
ENDROOT
BRANCH   1   2
ATOM      2  C   UNL     1       5.213   5.425  16.614  0.00  0.00    +0.000 C 
BRANCH   2   3
ATOM      3  C   UNL     1       4.798   3.953  16.653  0.00  0.00    +0.000 C 
BRANCH   3  14
ATOM      4  O   UNL     1       5.527   3.416  19.477  0.00  0.00    +0.000 OA
ATOM      5  C   UNL     1       4.386   3.427  19.057  0.00  0.00    +0.000 C 
ATOM      6  C   UNL     1       3.206   3.147  19.876  0.00  0.00    +0.000 A 
ATOM      7  C   UNL     1       3.089   2.892  21.230  0.00  0.00    +0.000 A 
ATOM      8  C   UNL     1       1.803   2.666  21.730  0.00  0.00    +0.000 A 
ATOM      9  C   UNL     1       0.679   2.693  20.878  0.00  0.00    +0.000 A 
ATOM     10  C   UNL     1       0.824   2.946  19.509  0.00  0.00    +0.000 A 
ATOM     11  C   UNL     1       2.104   3.175  19.039  0.00  0.00    +0.000 A 
ATOM     12  C   UNL     1       2.582   3.476  17.690  0.00  0.00    +0.000 C 
ATOM     13  O   UNL     1       1.869   3.519  16.707  0.00  0.00    +0.000 OA
ATOM     14  N   UNL     1       3.935   3.659  17.786  0.00  0.00    +0.000 N 
ENDBRANCH   3  14
ENDBRANCH   2   3
ENDBRANCH   1   2
BRANCH   1  15
ATOM     15  C   UNL     1       4.190   7.318  17.573  0.00  0.00    +0.000 C 
BRANCH  15  16
ATOM     16  C   UNL     1       2.672   7.135  17.663  0.00  0.00    +0.000 C 
BRANCH  16  17
ATOM     17  N   UNL     1       2.092   7.946  18.723  0.00  0.00    +0.000 N 
ATOM     18  C   UNL     1       1.825   7.484  19.983  0.00  0.00    +0.000 C 
ATOM     19  O   UNL     1       2.012   6.378  20.451  0.00  0.00    +0.000 OA
ATOM     20  C   UNL     1       1.206   8.592  20.712  0.00  0.00    +0.000 A 
ATOM     21  C   UNL     1       0.776   8.677  22.022  0.00  0.00    +0.000 A 
ATOM     22  C   UNL     1       0.216   9.890  22.435  0.00  0.00    +0.000 A 
ATOM     23  C   UNL     1       0.095  10.972  21.539  0.00  0.00    +0.000 A 
ATOM     24  C   UNL     1       0.529  10.860  20.215  0.00  0.00    +0.000 A 
ATOM     25  C   UNL     1       1.086   9.654  19.834  0.00  0.00    +0.000 A 
ATOM     26  C   UNL     1       1.632   9.223  18.543  0.00  0.00    +0.000 C 
ATOM     27  O   UNL     1       1.622   9.901  17.535  0.00  0.00    +0.000 OA
ENDBRANCH  16  17
ENDBRANCH  15  16
ENDBRANCH   1  15
TORSDOF 6
ENDMDL
MODEL 4
REMARK VINA RESULT:      -7.6      0.615      5.813
REMARK  Name = 
REMARK  6 active torsions:
REMARK  status: ('A' for Active; 'I' for Inactive)
REMARK    1  A    between atoms: N_11  and  C_12
REMARK    2  A    between atoms: C_12  and  C_13
REMARK    3  A    between atoms: C_13  and  O_14
REMARK    4  A    between atoms: O_14  and  C_15
REMARK    5  A    between atoms: C_15  and  C_16
REMARK    6  A    between atoms: C_16  and  N_17
REMARK                            x       y       z     vdW  Elec       q    Type
REMARK                         _______ _______ _______ _____ _____    ______ ____
ROOT
ATOM      1  O   UNL     1       4.830   6.311  17.751  0.00  0.00    +0.000 OA
ENDROOT
BRANCH   1   2
ATOM      2  C   UNL     1       4.041   7.503  17.631  0.00  0.00    +0.000 C 
BRANCH   2   3
ATOM      3  C   UNL     1       2.551   7.186  17.768  0.00  0.00    +0.000 C 
BRANCH   3  14
ATOM      4  O   UNL     1       1.677  10.020  17.709  0.00  0.00    +0.000 OA
ATOM      5  C   UNL     1       1.555   9.287  18.672  0.00  0.00    +0.000 C 
ATOM      6  C   UNL     1       0.986   9.704  19.954  0.00  0.00    +0.000 A 
ATOM      7  C   UNL     1       0.427  10.908  20.343  0.00  0.00    +0.000 A 
ATOM      8  C   UNL     1      -0.045  11.000  21.656  0.00  0.00    +0.000 A 
ATOM      9  C   UNL     1       0.057   9.906  22.541  0.00  0.00    +0.000 A 
ATOM     10  C   UNL     1       0.633   8.701  22.126  0.00  0.00    +0.000 A 
ATOM     11  C   UNL     1       1.085   8.631  20.821  0.00  0.00    +0.000 A 
ATOM     12  C   UNL     1       1.713   7.530  20.090  0.00  0.00    +0.000 C 
ATOM     13  O   UNL     1       1.994   6.455  20.583  0.00  0.00    +0.000 OA
ATOM     14  N   UNL     1       1.919   7.976  18.813  0.00  0.00    +0.000 N 
ENDBRANCH   3  14
ENDBRANCH   2   3
ENDBRANCH   1   2
BRANCH   1  15
ATOM     15  C   UNL     1       4.881   5.615  16.499  0.00  0.00    +0.000 C 
BRANCH  15  16
ATOM     16  C   UNL     1       4.763   4.102  16.709  0.00  0.00    +0.000 C 
BRANCH  16  17
ATOM     17  N   UNL     1       3.914   3.779  17.845  0.00  0.00    +0.000 N 
ATOM     18  C   UNL     1       4.386   3.507  19.101  0.00  0.00    +0.000 C 
ATOM     19  O   UNL     1       5.532   3.491  19.504  0.00  0.00    +0.000 OA
ATOM     20  C   UNL     1       3.219   3.186  19.925  0.00  0.00    +0.000 A 
ATOM     21  C   UNL     1       3.126   2.873  21.268  0.00  0.00    +0.000 A 
ATOM     22  C   UNL     1       1.850   2.610  21.777  0.00  0.00    +0.000 A 
ATOM     23  C   UNL     1       0.715   2.657  20.942  0.00  0.00    +0.000 A 
ATOM     24  C   UNL     1       0.835   2.967  19.584  0.00  0.00    +0.000 A 
ATOM     25  C   UNL     1       2.105   3.232  19.106  0.00  0.00    +0.000 A 
ATOM     26  C   UNL     1       2.561   3.585  17.759  0.00  0.00    +0.000 C 
ATOM     27  O   UNL     1       1.837   3.649  16.786  0.00  0.00    +0.000 OA
ENDBRANCH  16  17
ENDBRANCH  15  16
ENDBRANCH   1  15
TORSDOF 6
ENDMDL
MODEL 5
REMARK VINA RESULT:      -7.5      0.478      5.842
REMARK  Name = 
REMARK  6 active torsions:
REMARK  status: ('A' for Active; 'I' for Inactive)
REMARK    1  A    between atoms: N_11  and  C_12
REMARK    2  A    between atoms: C_12  and  C_13
REMARK    3  A    between atoms: C_13  and  O_14
REMARK    4  A    between atoms: O_14  and  C_15
REMARK    5  A    between atoms: C_15  and  C_16
REMARK    6  A    between atoms: C_16  and  N_17
REMARK                            x       y       z     vdW  Elec       q    Type
REMARK                         _______ _______ _______ _____ _____    ______ ____
ROOT
ATOM      1  O   UNL     1       5.019   6.093  17.937  0.00  0.00    +0.000 OA
ENDROOT
BRANCH   1   2
ATOM      2  C   UNL     1       4.257   7.200  17.433  0.00  0.00    +0.000 C 
BRANCH   2   3
ATOM      3  C   UNL     1       2.758   6.954  17.607  0.00  0.00    +0.000 C 
BRANCH   3  14
ATOM      4  O   UNL     1       2.055   6.291  20.410  0.00  0.00    +0.000 OA
ATOM      5  C   UNL     1       1.897   7.387  19.908  0.00  0.00    +0.000 C 
ATOM      6  C   UNL     1       1.310   8.533  20.603  0.00  0.00    +0.000 A 
ATOM      7  C   UNL     1       0.887   8.673  21.912  0.00  0.00    +0.000 A 
ATOM      8  C   UNL     1       0.369   9.916  22.289  0.00  0.00    +0.000 A 
ATOM      9  C   UNL     1       0.278  10.974  21.361  0.00  0.00    +0.000 A 
ATOM     10  C   UNL     1       0.706  10.806  20.040  0.00  0.00    +0.000 A 
ATOM     11  C   UNL     1       1.223   9.571  19.693  0.00  0.00    +0.000 A 
ATOM     12  C   UNL     1       1.758   9.088  18.420  0.00  0.00    +0.000 C 
ATOM     13  O   UNL     1       1.777   9.740  17.395  0.00  0.00    +0.000 OA
ATOM     14  N   UNL     1       2.181   7.804  18.636  0.00  0.00    +0.000 N 
ENDBRANCH   3  14
ENDBRANCH   2   3
ENDBRANCH   1   2
BRANCH   1  15
ATOM     15  C   UNL     1       5.633   5.375  16.859  0.00  0.00    +0.000 C 
BRANCH  15  16
ATOM     16  C   UNL     1       5.127   3.930  16.808  0.00  0.00    +0.000 C 
BRANCH  16  17
ATOM     17  N   UNL     1       4.159   3.658  17.860  0.00  0.00    +0.000 N 
ATOM     18  C   UNL     1       4.492   3.429  19.167  0.00  0.00    +0.000 C 
ATOM     19  O   UNL     1       5.590   3.415  19.689  0.00  0.00    +0.000 OA
ATOM     20  C   UNL     1       3.241   3.151  19.874  0.00  0.00    +0.000 A 
ATOM     21  C   UNL     1       3.003   2.890  21.210  0.00  0.00    +0.000 A 
ATOM     22  C   UNL     1       1.677   2.660  21.591  0.00  0.00    +0.000 A 
ATOM     23  C   UNL     1       0.636   2.687  20.639  0.00  0.00    +0.000 A 
ATOM     24  C   UNL     1       0.903   2.945  19.291  0.00  0.00    +0.000 A 
ATOM     25  C   UNL     1       2.220   3.178  18.942  0.00  0.00    +0.000 A 
ATOM     26  C   UNL     1       2.820   3.476  17.638  0.00  0.00    +0.000 C 
ATOM     27  O   UNL     1       2.204   3.510  16.592  0.00  0.00    +0.000 OA
ENDBRANCH  16  17
ENDBRANCH  15  16
ENDBRANCH   1  15
TORSDOF 6
ENDMDL
MODEL 6
REMARK VINA RESULT:      -7.2      5.564      6.914
REMARK  Name = 
REMARK  6 active torsions:
REMARK  status: ('A' for Active; 'I' for Inactive)
REMARK    1  A    between atoms: N_11  and  C_12
REMARK    2  A    between atoms: C_12  and  C_13
REMARK    3  A    between atoms: C_13  and  O_14
REMARK    4  A    between atoms: O_14  and  C_15
REMARK    5  A    between atoms: C_15  and  C_16
REMARK    6  A    between atoms: C_16  and  N_17
REMARK                            x       y       z     vdW  Elec       q    Type
REMARK                         _______ _______ _______ _____ _____    ______ ____
ROOT
ATOM      1  O   UNL     1       8.047   8.085  17.203  0.00  0.00    +0.000 OA
ENDROOT
BRANCH   1   2
ATOM      2  C   UNL     1       7.045   7.190  17.708  0.00  0.00    +0.000 C 
BRANCH   2   3
ATOM      3  C   UNL     1       5.900   7.032  16.706  0.00  0.00    +0.000 C 
BRANCH   3  14
ATOM      4  O   UNL     1       6.119   4.087  16.437  0.00  0.00    +0.000 OA
ATOM      5  C   UNL     1       5.168   4.658  16.936  0.00  0.00    +0.000 C 
ATOM      6  C   UNL     1       3.979   3.979  17.450  0.00  0.00    +0.000 A 
ATOM      7  C   UNL     1       3.686   2.631  17.556  0.00  0.00    +0.000 A 
ATOM      8  C   UNL     1       2.448   2.286  18.108  0.00  0.00    +0.000 A 
ATOM      9  C   UNL     1       1.540   3.281  18.527  0.00  0.00    +0.000 A 
ATOM     10  C   UNL     1       1.856   4.638  18.403  0.00  0.00    +0.000 A 
ATOM     11  C   UNL     1       3.089   4.954  17.863  0.00  0.00    +0.000 A 
ATOM     12  C   UNL     1       3.714   6.253  17.615  0.00  0.00    +0.000 C 
ATOM     13  O   UNL     1       3.171   7.322  17.818  0.00  0.00    +0.000 OA
ATOM     14  N   UNL     1       4.960   5.999  17.111  0.00  0.00    +0.000 N 
ENDBRANCH   3  14
ENDBRANCH   2   3
ENDBRANCH   1   2
BRANCH   1  15
ATOM     15  C   UNL     1       8.019   9.325  17.922  0.00  0.00    +0.000 C 
BRANCH  15  16
ATOM     16  C   UNL     1       9.105   9.355  19.001  0.00  0.00    +0.000 C 
BRANCH  16  17
ATOM     17  N   UNL     1       9.491  10.715  19.342  0.00  0.00    +0.000 N 
ATOM     18  C   UNL     1      10.230  11.529  18.527  0.00  0.00    +0.000 C 
ATOM     19  O   UNL     1      10.679  11.304  17.420  0.00  0.00    +0.000 OA
ATOM     20  C   UNL     1      10.437  12.779  19.260  0.00  0.00    +0.000 A 
ATOM     21  C   UNL     1      11.082  13.943  18.888  0.00  0.00    +0.000 A 
ATOM     22  C   UNL     1      11.115  14.983  19.822  0.00  0.00    +0.000 A 
ATOM     23  C   UNL     1      10.518  14.834  21.091  0.00  0.00    +0.000 A 
ATOM     24  C   UNL     1       9.879  13.644  21.448  0.00  0.00    +0.000 A 
ATOM     25  C   UNL     1       9.852  12.634  20.505  0.00  0.00    +0.000 A 
ATOM     26  C   UNL     1       9.269  11.290  20.565  0.00  0.00    +0.000 C 
ATOM     27  O   UNL     1       8.732  10.820  21.547  0.00  0.00    +0.000 OA
ENDBRANCH  16  17
ENDBRANCH  15  16
ENDBRANCH   1  15
TORSDOF 6
ENDMDL
MODEL 7
REMARK VINA RESULT:      -7.2      1.025      5.881
REMARK  Name = 
REMARK  6 active torsions:
REMARK  status: ('A' for Active; 'I' for Inactive)
REMARK    1  A    between atoms: N_11  and  C_12
REMARK    2  A    between atoms: C_12  and  C_13
REMARK    3  A    between atoms: C_13  and  O_14
REMARK    4  A    between atoms: O_14  and  C_15
REMARK    5  A    between atoms: C_15  and  C_16
REMARK    6  A    between atoms: C_16  and  N_17
REMARK                            x       y       z     vdW  Elec       q    Type
REMARK                         _______ _______ _______ _____ _____    ______ ____
ROOT
ATOM      1  O   UNL     1       5.234   6.820  16.447  0.00  0.00    +0.000 OA
ENDROOT
BRANCH   1   2
ATOM      2  C   UNL     1       4.516   7.547  17.454  0.00  0.00    +0.000 C 
BRANCH   2   3
ATOM      3  C   UNL     1       3.111   6.972  17.644  0.00  0.00    +0.000 C 
BRANCH   3  14
ATOM      4  O   UNL     1       1.988   9.700  17.345  0.00  0.00    +0.000 OA
ATOM      5  C   UNL     1       1.855   9.012  18.339  0.00  0.00    +0.000 C 
ATOM      6  C   UNL     1       1.146   9.440  19.546  0.00  0.00    +0.000 A 
ATOM      7  C   UNL     1       0.449  10.603  19.816  0.00  0.00    +0.000 A 
ATOM      8  C   UNL     1      -0.137  10.719  21.081  0.00  0.00    +0.000 A 
ATOM      9  C   UNL     1      -0.008   9.689  22.036  0.00  0.00    +0.000 A 
ATOM     10  C   UNL     1       0.710   8.525  21.741  0.00  0.00    +0.000 A 
ATOM     11  C   UNL     1       1.272   8.429  20.482  0.00  0.00    +0.000 A 
ATOM     12  C   UNL     1       2.057   7.357  19.869  0.00  0.00    +0.000 C 
ATOM     13  O   UNL     1       2.394   6.342  20.447  0.00  0.00    +0.000 OA
ATOM     14  N   UNL     1       2.325   7.752  18.587  0.00  0.00    +0.000 N 
ENDBRANCH   3  14
ENDBRANCH   2   3
ENDBRANCH   1   2
BRANCH   1  15
ATOM     15  C   UNL     1       6.573   6.552  16.882  0.00  0.00    +0.000 C 
BRANCH  15  16
ATOM     16  C   UNL     1       6.792   5.049  17.081  0.00  0.00    +0.000 C 
BRANCH  16  17
ATOM     17  N   UNL     1       5.606   4.396  17.614  0.00  0.00    +0.000 N 
ATOM     18  C   UNL     1       5.357   4.231  18.950  0.00  0.00    +0.000 C 
ATOM     19  O   UNL     1       6.024   4.580  19.904  0.00  0.00    +0.000 OA
ATOM     20  C   UNL     1       4.099   3.490  19.051  0.00  0.00    +0.000 A 
ATOM     21  C   UNL     1       3.379   3.091  20.161  0.00  0.00    +0.000 A 
ATOM     22  C   UNL     1       2.193   2.385  19.935  0.00  0.00    +0.000 A 
ATOM     23  C   UNL     1       1.765   2.092  18.623  0.00  0.00    +0.000 A 
ATOM     24  C   UNL     1       2.516   2.498  17.516  0.00  0.00    +0.000 A 
ATOM     25  C   UNL     1       3.679   3.202  17.766  0.00  0.00    +0.000 A 
ATOM     26  C   UNL     1       4.670   3.762  16.842  0.00  0.00    +0.000 C 
ATOM     27  O   UNL     1       4.631   3.631  15.635  0.00  0.00    +0.000 OA
ENDBRANCH  16  17
ENDBRANCH  15  16
ENDBRANCH   1  15
TORSDOF 6
ENDMDL
MODEL 8
REMARK VINA RESULT:      -7.2      0.700      6.252
REMARK  Name = 
REMARK  6 active torsions:
REMARK  status: ('A' for Active; 'I' for Inactive)
REMARK    1  A    between atoms: N_11  and  C_12
REMARK    2  A    between atoms: C_12  and  C_13
REMARK    3  A    between atoms: C_13  and  O_14
REMARK    4  A    between atoms: O_14  and  C_15
REMARK    5  A    between atoms: C_15  and  C_16
REMARK    6  A    between atoms: C_16  and  N_17
REMARK                            x       y       z     vdW  Elec       q    Type
REMARK                         _______ _______ _______ _____ _____    ______ ____
ROOT
ATOM      1  O   UNL     1       4.913   6.326  17.450  0.00  0.00    +0.000 OA
ENDROOT
BRANCH   1   2
ATOM      2  C   UNL     1       3.802   7.230  17.527  0.00  0.00    +0.000 C 
BRANCH   2   3
ATOM      3  C   UNL     1       2.867   6.849  18.676  0.00  0.00    +0.000 C 
BRANCH   3  14
ATOM      4  O   UNL     1       1.455   7.236  21.254  0.00  0.00    +0.000 OA
ATOM      5  C   UNL     1       1.459   8.048  20.350  0.00  0.00    +0.000 C 
ATOM      6  C   UNL     1       0.743   9.324  20.388  0.00  0.00    +0.000 A 
ATOM      7  C   UNL     1       0.004   9.913  21.398  0.00  0.00    +0.000 A 
ATOM      8  C   UNL     1      -0.562  11.164  21.132  0.00  0.00    +0.000 A 
ATOM      9  C   UNL     1      -0.385  11.787  19.879  0.00  0.00    +0.000 A 
ATOM     10  C   UNL     1       0.362  11.168  18.871  0.00  0.00    +0.000 A 
ATOM     11  C   UNL     1       0.918   9.936  19.159  0.00  0.00    +0.000 A 
ATOM     12  C   UNL     1       1.748   9.052  18.341  0.00  0.00    +0.000 C 
ATOM     13  O   UNL     1       2.044   9.271  17.183  0.00  0.00    +0.000 OA
ATOM     14  N   UNL     1       2.069   7.978  19.127  0.00  0.00    +0.000 N 
ENDBRANCH   3  14
ENDBRANCH   2   3
ENDBRANCH   1   2
BRANCH   1  15
ATOM     15  C   UNL     1       4.862   5.573  16.231  0.00  0.00    +0.000 C 
BRANCH  15  16
ATOM     16  C   UNL     1       4.923   4.069  16.516  0.00  0.00    +0.000 C 
BRANCH  16  17
ATOM     17  N   UNL     1       4.087   3.699  17.647  0.00  0.00    +0.000 N 
ATOM     18  C   UNL     1       2.731   3.522  17.573  0.00  0.00    +0.000 C 
ATOM     19  O   UNL     1       1.996   3.621  16.610  0.00  0.00    +0.000 OA
ATOM     20  C   UNL     1       2.276   3.210  18.928  0.00  0.00    +0.000 A 
ATOM     21  C   UNL     1       1.015   2.910  19.406  0.00  0.00    +0.000 A 
ATOM     22  C   UNL     1       0.893   2.652  20.775  0.00  0.00    +0.000 A 
ATOM     23  C   UNL     1       2.017   2.708  21.624  0.00  0.00    +0.000 A 
ATOM     24  C   UNL     1       3.282   3.022  21.120  0.00  0.00    +0.000 A 
ATOM     25  C   UNL     1       3.379   3.264  19.762  0.00  0.00    +0.000 A 
ATOM     26  C   UNL     1       4.539   3.609  18.936  0.00  0.00    +0.000 C 
ATOM     27  O   UNL     1       5.657   3.798  19.372  0.00  0.00    +0.000 OA
ENDBRANCH  16  17
ENDBRANCH  15  16
ENDBRANCH   1  15
TORSDOF 6
ENDMDL
MODEL 9
REMARK VINA RESULT:      -7.2      1.536      6.588
REMARK  Name = 
REMARK  6 active torsions:
REMARK  status: ('A' for Active; 'I' for Inactive)
REMARK    1  A    between atoms: N_11  and  C_12
REMARK    2  A    between atoms: C_12  and  C_13
REMARK    3  A    between atoms: C_13  and  O_14
REMARK    4  A    between atoms: O_14  and  C_15
REMARK    5  A    between atoms: C_15  and  C_16
REMARK    6  A    between atoms: C_16  and  N_17
REMARK                            x       y       z     vdW  Elec       q    Type
REMARK                         _______ _______ _______ _____ _____    ______ ____
ROOT
ATOM      1  O   UNL     1       1.450   3.497  20.598  0.00  0.00    +0.000 OA
ENDROOT
BRANCH   1   2
ATOM      2  C   UNL     1       1.071   4.839  20.262  0.00  0.00    +0.000 C 
BRANCH   2   3
ATOM      3  C   UNL     1       2.181   5.827  20.627  0.00  0.00    +0.000 C 
BRANCH   3  14
ATOM      4  O   UNL     1       2.929   7.177  18.095  0.00  0.00    +0.000 OA
ATOM      5  C   UNL     1       2.278   7.698  18.980  0.00  0.00    +0.000 C 
ATOM      6  C   UNL     1       1.794   9.078  18.940  0.00  0.00    +0.000 A 
ATOM      7  C   UNL     1       1.882  10.035  17.945  0.00  0.00    +0.000 A 
ATOM      8  C   UNL     1       1.304  11.282  18.203  0.00  0.00    +0.000 A 
ATOM      9  C   UNL     1       0.667  11.544  19.434  0.00  0.00    +0.000 A 
ATOM     10  C   UNL     1       0.597  10.561  20.428  0.00  0.00    +0.000 A 
ATOM     11  C   UNL     1       1.168   9.334  20.147  0.00  0.00    +0.000 A 
ATOM     12  C   UNL     1       1.251   8.116  20.953  0.00  0.00    +0.000 C 
ATOM     13  O   UNL     1       0.842   8.023  22.094  0.00  0.00    +0.000 OA
ATOM     14  N   UNL     1       1.878   7.177  20.180  0.00  0.00    +0.000 N 
ENDBRANCH   3  14
ENDBRANCH   2   3
ENDBRANCH   1   2
BRANCH   1  15
ATOM     15  C   UNL     1       1.145   2.605  19.517  0.00  0.00    +0.000 C 
BRANCH  15  16
ATOM     16  C   UNL     1       2.398   1.853  19.059  0.00  0.00    +0.000 C 
BRANCH  16  17
ATOM     17  N   UNL     1       3.388   2.751  18.486  0.00  0.00    +0.000 N 
ATOM     18  C   UNL     1       4.540   3.128  19.122  0.00  0.00    +0.000 C 
ATOM     19  O   UNL     1       4.952   2.806  20.219  0.00  0.00    +0.000 OA
ATOM     20  C   UNL     1       5.221   4.067  18.230  0.00  0.00    +0.000 A 
ATOM     21  C   UNL     1       6.432   4.719  18.366  0.00  0.00    +0.000 A 
ATOM     22  C   UNL     1       6.823   5.569  17.327  0.00  0.00    +0.000 A 
ATOM     23  C   UNL     1       6.002   5.751  16.195  0.00  0.00    +0.000 A 
ATOM     24  C   UNL     1       4.776   5.088  16.083  0.00  0.00    +0.000 A 
ATOM     25  C   UNL     1       4.417   4.247  17.119  0.00  0.00    +0.000 A 
ATOM     26  C   UNL     1       3.221   3.419  17.302  0.00  0.00    +0.000 C 
ATOM     27  O   UNL     1       2.281   3.394  16.534  0.00  0.00    +0.000 OA
ENDBRANCH  16  17
ENDBRANCH  15  16
ENDBRANCH   1  15
TORSDOF 6
ENDMDL
