MODEL 1
REMARK VINA RESULT:      -7.3      0.000      0.000
REMARK  Name = 
REMARK  7 active torsions:
REMARK  status: ('A' for Active; 'I' for Inactive)
REMARK    1  A    between atoms: C_1  and  O_2
REMARK    2  A    between atoms: O_2  and  C_3
REMARK    3  A    between atoms: C_8  and  N_9
REMARK    4  A    between atoms: C_13  and  C_15
REMARK    5  A    between atoms: C_15  and  S_16
REMARK    6  A    between atoms: S_16  and  C_17
REMARK    7  A    between atoms: C_20  and  C_21
REMARK                            x       y       z     vdW  Elec       q    Type
REMARK                         _______ _______ _______ _____ _____    ______ ____
ROOT
ATOM      1  N   UNL     1       2.489   6.733  18.776  0.00  0.00    +0.000 N 
ATOM      2  C   UNL     1       2.988   7.813  17.911  0.00  0.00    +0.000 C 
ATOM      3  C   UNL     1       1.928   8.927  17.838  0.00  0.00    +0.000 C 
ATOM      4  N   UNL     1       1.508   9.392  19.170  0.00  0.00    +0.000 N 
ATOM      5  C   UNL     1       1.152  10.730  19.317  0.00  0.00    +0.000 C 
ATOM      6  O   UNL     1       1.271  11.526  18.380  0.00  0.00    +0.000 OA
ATOM      7  C   UNL     1       1.142   8.306  20.103  0.00  0.00    +0.000 C 
ATOM      8  C   UNL     1       2.184   7.173  20.144  0.00  0.00    +0.000 C 
ENDROOT
BRANCH   1  14
ATOM      9  C   UNL     1       3.928   4.729  18.912  0.00  0.00    +0.000 A 
ATOM     10  C   UNL     1       4.102   3.357  18.663  0.00  0.00    +0.000 A 
ATOM     11  C   UNL     1       3.104   2.609  18.049  0.00  0.00    +0.000 A 
ATOM     12  C   UNL     1       1.929   3.227  17.657  0.00  0.00    +0.000 A 
ATOM     13  C   UNL     1       1.751   4.598  17.880  0.00  0.00    +0.000 A 
ATOM     14  C   UNL     1       2.732   5.389  18.509  0.00  0.00    +0.000 A 
BRANCH   9  16
ATOM     15  C   UNL     1       6.213   5.373  19.083  0.00  0.00    +0.000 C 
ATOM     16  O   UNL     1       4.880   5.476  19.571  0.00  0.00    +0.000 OA
ENDBRANCH   9  16
ENDBRANCH   1  14
BRANCH   5  17
ATOM     17  C   UNL     1       0.706  11.192  20.701  0.00  0.00    +0.000 C 
BRANCH  17  18
ATOM     18  S   UNL     1      -0.995  11.828  20.697  0.00  0.00    +0.000 S 
BRANCH  18  19
ATOM     19  C   UNL     1      -0.664  13.510  20.589  0.00  0.00    +0.000 A 
ATOM     20  N   UNL     1      -0.756  14.432  21.514  0.00  0.00    +0.000 NA
ATOM     21  N   UNL     1      -0.389  15.626  20.932  0.00  0.00    +0.000 NA
ATOM     22  C   UNL     1      -0.112  15.406  19.655  0.00  0.00    +0.000 A 
ATOM     23  N   UNL     1      -0.250  14.060  19.419  0.00  0.00    +0.000 N 
ATOM     24  H   UNL     1      -0.104  13.579  18.551  0.00  0.00    +0.000 HD
BRANCH  22  25
ATOM     25  C   UNL     1       0.322  16.397  18.667  0.00  0.00    +0.000 A 
ATOM     26  C   UNL     1      -0.666  17.193  18.058  0.00  0.00    +0.000 A 
ATOM     27  C   UNL     1      -0.335  18.155  17.102  0.00  0.00    +0.000 A 
ATOM     28  C   UNL     1       0.993  18.334  16.728  0.00  0.00    +0.000 A 
ATOM     29  C   UNL     1       1.989  17.556  17.313  0.00  0.00    +0.000 A 
ATOM     30  C   UNL     1       1.661  16.594  18.281  0.00  0.00    +0.000 A 
ATOM     31 CL   UNL     1       2.977  15.672  18.927  0.00  0.00    +0.000 Cl
ENDBRANCH  22  25
ENDBRANCH  18  19
ENDBRANCH  17  18
ENDBRANCH   5  17
TORSDOF 6
ENDMDL
MODEL 2
REMARK VINA RESULT:      -7.3      5.132      9.442
REMARK  Name = 
REMARK  7 active torsions:
REMARK  status: ('A' for Active; 'I' for Inactive)
REMARK    1  A    between atoms: C_1  and  O_2
REMARK    2  A    between atoms: O_2  and  C_3
REMARK    3  A    between atoms: C_8  and  N_9
REMARK    4  A    between atoms: C_13  and  C_15
REMARK    5  A    between atoms: C_15  and  S_16
REMARK    6  A    between atoms: S_16  and  C_17
REMARK    7  A    between atoms: C_20  and  C_21
REMARK                            x       y       z     vdW  Elec       q    Type
REMARK                         _______ _______ _______ _____ _____    ______ ____
ROOT
ATOM      1  N   UNL     1       1.931   6.931  19.348  0.00  0.00    +0.000 N 
ATOM      2  C   UNL     1       2.337   6.423  20.668  0.00  0.00    +0.000 C 
ATOM      3  C   UNL     1       1.604   5.095  20.940  0.00  0.00    +0.000 C 
ATOM      4  N   UNL     1       1.788   4.118  19.855  0.00  0.00    +0.000 N 
ATOM      5  C   UNL     1       1.824   2.766  20.187  0.00  0.00    +0.000 C 
ATOM      6  O   UNL     1       1.793   2.401  21.366  0.00  0.00    +0.000 OA
ATOM      7  C   UNL     1       1.525   4.657  18.504  0.00  0.00    +0.000 C 
ATOM      8  C   UNL     1       2.226   6.004  18.248  0.00  0.00    +0.000 C 
ENDROOT
BRANCH   1  14
ATOM      9  C   UNL     1       1.026   9.143  19.972  0.00  0.00    +0.000 A 
ATOM     10  C   UNL     1       0.915  10.517  19.697  0.00  0.00    +0.000 A 
ATOM     11  C   UNL     1       1.533  11.074  18.583  0.00  0.00    +0.000 A 
ATOM     12  C   UNL     1       2.250  10.263  17.720  0.00  0.00    +0.000 A 
ATOM     13  C   UNL     1       2.350   8.890  17.972  0.00  0.00    +0.000 A 
ATOM     14  C   UNL     1       1.750   8.287  19.095  0.00  0.00    +0.000 A 
BRANCH   9  16
ATOM     15  C   UNL     1       0.654   9.296  22.319  0.00  0.00    +0.000 C 
ATOM     16  O   UNL     1       0.472   8.580  21.102  0.00  0.00    +0.000 OA
ENDBRANCH   9  16
ENDBRANCH   1  14
BRANCH   5  17
ATOM     17  C   UNL     1       2.000   1.767  19.048  0.00  0.00    +0.000 C 
BRANCH  17  18
ATOM     18  S   UNL     1       3.728   1.242  18.856  0.00  0.00    +0.000 S 
BRANCH  18  19
ATOM     19  C   UNL     1       4.331   2.585  17.969  0.00  0.00    +0.000 A 
ATOM     20  N   UNL     1       4.125   2.908  16.718  0.00  0.00    +0.000 NA
ATOM     21  N   UNL     1       4.833   4.067  16.479  0.00  0.00    +0.000 NA
ATOM     22  C   UNL     1       5.478   4.403  17.586  0.00  0.00    +0.000 A 
ATOM     23  N   UNL     1       5.150   3.492  18.559  0.00  0.00    +0.000 N 
ATOM     24  H   UNL     1       5.473   3.478  19.509  0.00  0.00    +0.000 HD
BRANCH  22  25
ATOM     25  C   UNL     1       6.347   5.569  17.777  0.00  0.00    +0.000 A 
ATOM     26  C   UNL     1       7.368   5.474  18.740  0.00  0.00    +0.000 A 
ATOM     27  C   UNL     1       8.234   6.541  18.987  0.00  0.00    +0.000 A 
ATOM     28  C   UNL     1       8.087   7.731  18.280  0.00  0.00    +0.000 A 
ATOM     29  C   UNL     1       7.081   7.851  17.325  0.00  0.00    +0.000 A 
ATOM     30  C   UNL     1       6.215   6.777  17.068  0.00  0.00    +0.000 A 
ATOM     31 CL   UNL     1       4.990   7.043  15.873  0.00  0.00    +0.000 Cl
ENDBRANCH  22  25
ENDBRANCH  18  19
ENDBRANCH  17  18
ENDBRANCH   5  17
TORSDOF 6
ENDMDL
MODEL 3
REMARK VINA RESULT:      -7.1      1.224      1.501
REMARK  Name = 
REMARK  7 active torsions:
REMARK  status: ('A' for Active; 'I' for Inactive)
REMARK    1  A    between atoms: C_1  and  O_2
REMARK    2  A    between atoms: O_2  and  C_3
REMARK    3  A    between atoms: C_8  and  N_9
REMARK    4  A    between atoms: C_13  and  C_15
REMARK    5  A    between atoms: C_15  and  S_16
REMARK    6  A    between atoms: S_16  and  C_17
REMARK    7  A    between atoms: C_20  and  C_21
REMARK                            x       y       z     vdW  Elec       q    Type
REMARK                         _______ _______ _______ _____ _____    ______ ____
ROOT
ATOM      1  N   UNL     1       2.484   6.841  18.632  0.00  0.00    +0.000 N 
ATOM      2  C   UNL     1       2.664   8.024  17.776  0.00  0.00    +0.000 C 
ATOM      3  C   UNL     1       1.497   9.000  18.017  0.00  0.00    +0.000 C 
ATOM      4  N   UNL     1       1.325   9.329  19.441  0.00  0.00    +0.000 N 
ATOM      5  C   UNL     1       0.864  10.602  19.770  0.00  0.00    +0.000 C 
ATOM      6  O   UNL     1       0.691  11.459  18.899  0.00  0.00    +0.000 OA
ATOM      7  C   UNL     1       1.289   8.153  20.335  0.00  0.00    +0.000 C 
ATOM      8  C   UNL     1       2.434   7.158  20.065  0.00  0.00    +0.000 C 
ENDROOT
BRANCH   1  14
ATOM      9  C   UNL     1       4.149   5.074  18.174  0.00  0.00    +0.000 A 
ATOM     10  C   UNL     1       4.420   3.751  17.787  0.00  0.00    +0.000 A 
ATOM     11  C   UNL     1       3.390   2.876  17.461  0.00  0.00    +0.000 A 
ATOM     12  C   UNL     1       2.078   3.320  17.496  0.00  0.00    +0.000 A 
ATOM     13  C   UNL     1       1.797   4.641  17.859  0.00  0.00    +0.000 A 
ATOM     14  C   UNL     1       2.809   5.556  18.208  0.00  0.00    +0.000 A 
BRANCH   9  16
ATOM     15  C   UNL     1       6.319   5.347  19.112  0.00  0.00    +0.000 C 
ATOM     16  O   UNL     1       5.150   5.940  18.558  0.00  0.00    +0.000 OA
ENDBRANCH   9  16
ENDBRANCH   1  14
BRANCH   5  17
ATOM     17  C   UNL     1       0.678  10.921  21.251  0.00  0.00    +0.000 C 
BRANCH  17  18
ATOM     18  S   UNL     1      -0.536  12.245  21.519  0.00  0.00    +0.000 S 
BRANCH  18  19
ATOM     19  C   UNL     1       0.410  13.595  21.034  0.00  0.00    +0.000 A 
ATOM     20  N   UNL     1       1.459  14.120  21.614  0.00  0.00    +0.000 NA
ATOM     21  N   UNL     1       1.854  15.191  20.841  0.00  0.00    +0.000 NA
ATOM     22  C   UNL     1       1.014  15.309  19.823  0.00  0.00    +0.000 A 
ATOM     23  N   UNL     1       0.103  14.284  19.906  0.00  0.00    +0.000 N 
ATOM     24  H   UNL     1      -0.657  14.097  19.278  0.00  0.00    +0.000 HD
BRANCH  22  25
ATOM     25  C   UNL     1       1.063  16.311  18.754  0.00  0.00    +0.000 A 
ATOM     26  C   UNL     1       2.277  16.468  18.058  0.00  0.00    +0.000 A 
ATOM     27  C   UNL     1       2.408  17.404  17.031  0.00  0.00    +0.000 A 
ATOM     28  C   UNL     1       1.328  18.211  16.686  0.00  0.00    +0.000 A 
ATOM     29  C   UNL     1       0.118  18.078  17.362  0.00  0.00    +0.000 A 
ATOM     30  C   UNL     1      -0.020  17.131  18.389  0.00  0.00    +0.000 A 
ATOM     31 CL   UNL     1      -1.562  17.064  19.174  0.00  0.00    +0.000 Cl
ENDBRANCH  22  25
ENDBRANCH  18  19
ENDBRANCH  17  18
ENDBRANCH   5  17
TORSDOF 6
ENDMDL
MODEL 4
REMARK VINA RESULT:      -7.1      3.751      4.810
REMARK  Name = 
REMARK  7 active torsions:
REMARK  status: ('A' for Active; 'I' for Inactive)
REMARK    1  A    between atoms: C_1  and  O_2
REMARK    2  A    between atoms: O_2  and  C_3
REMARK    3  A    between atoms: C_8  and  N_9
REMARK    4  A    between atoms: C_13  and  C_15
REMARK    5  A    between atoms: C_15  and  S_16
REMARK    6  A    between atoms: S_16  and  C_17
REMARK    7  A    between atoms: C_20  and  C_21
REMARK                            x       y       z     vdW  Elec       q    Type
REMARK                         _______ _______ _______ _____ _____    ______ ____
ROOT
ATOM      1  N   UNL     1       2.500   6.859  18.646  0.00  0.00    +0.000 N 
ATOM      2  C   UNL     1       2.828   8.035  17.826  0.00  0.00    +0.000 C 
ATOM      3  C   UNL     1       1.675   9.052  17.922  0.00  0.00    +0.000 C 
ATOM      4  N   UNL     1       1.336   9.386  19.315  0.00  0.00    +0.000 N 
ATOM      5  C   UNL     1       0.883  10.675  19.589  0.00  0.00    +0.000 C 
ATOM      6  O   UNL     1       0.852  11.538  18.707  0.00  0.00    +0.000 OA
ATOM      7  C   UNL     1       1.146   8.212  20.191  0.00  0.00    +0.000 C 
ATOM      8  C   UNL     1       2.280   7.177  20.063  0.00  0.00    +0.000 C 
ENDROOT
BRANCH   1  14
ATOM      9  C   UNL     1       4.169   5.079  18.262  0.00  0.00    +0.000 A 
ATOM     10  C   UNL     1       4.445   3.746  17.914  0.00  0.00    +0.000 A 
ATOM     11  C   UNL     1       3.419   2.865  17.592  0.00  0.00    +0.000 A 
ATOM     12  C   UNL     1       2.108   3.310  17.593  0.00  0.00    +0.000 A 
ATOM     13  C   UNL     1       1.822   4.641  17.917  0.00  0.00    +0.000 A 
ATOM     14  C   UNL     1       2.830   5.564  18.261  0.00  0.00    +0.000 A 
BRANCH   9  16
ATOM     15  C   UNL     1       6.390   5.368  19.069  0.00  0.00    +0.000 C 
ATOM     16  O   UNL     1       5.165   5.953  18.641  0.00  0.00    +0.000 OA
ENDBRANCH   9  16
ENDBRANCH   1  14
BRANCH   5  17
ATOM     17  C   UNL     1       0.522  11.000  21.035  0.00  0.00    +0.000 C 
BRANCH  17  18
ATOM     18  S   UNL     1       0.048  12.740  21.249  0.00  0.00    +0.000 S 
BRANCH  18  19
ATOM     19  C   UNL     1      -1.473  12.523  22.018  0.00  0.00    +0.000 A 
ATOM     20  N   UNL     1      -1.765  11.837  23.094  0.00  0.00    +0.000 NA
ATOM     21  N   UNL     1      -3.122  11.967  23.299  0.00  0.00    +0.000 NA
ATOM     22  C   UNL     1      -3.628  12.706  22.323  0.00  0.00    +0.000 A 
ATOM     23  N   UNL     1      -2.593  13.098  21.510  0.00  0.00    +0.000 N 
ATOM     24  H   UNL     1      -2.651  13.670  20.688  0.00  0.00    +0.000 HD
BRANCH  22  25
ATOM     25  C   UNL     1      -5.031  13.096  22.152  0.00  0.00    +0.000 A 
ATOM     26  C   UNL     1      -5.809  12.361  21.238  0.00  0.00    +0.000 A 
ATOM     27  C   UNL     1      -7.151  12.672  21.014  0.00  0.00    +0.000 A 
ATOM     28  C   UNL     1      -7.740  13.734  21.693  0.00  0.00    +0.000 A 
ATOM     29  C   UNL     1      -6.990  14.479  22.600  0.00  0.00    +0.000 A 
ATOM     30  C   UNL     1      -5.643  14.163  22.834  0.00  0.00    +0.000 A 
ATOM     31 CL   UNL     1      -4.802  15.167  23.967  0.00  0.00    +0.000 Cl
ENDBRANCH  22  25
ENDBRANCH  18  19
ENDBRANCH  17  18
ENDBRANCH   5  17
TORSDOF 6
ENDMDL
MODEL 5
REMARK VINA RESULT:      -7.1      3.780      4.968
REMARK  Name = 
REMARK  7 active torsions:
REMARK  status: ('A' for Active; 'I' for Inactive)
REMARK    1  A    between atoms: C_1  and  O_2
REMARK    2  A    between atoms: O_2  and  C_3
REMARK    3  A    between atoms: C_8  and  N_9
REMARK    4  A    between atoms: C_13  and  C_15
REMARK    5  A    between atoms: C_15  and  S_16
REMARK    6  A    between atoms: S_16  and  C_17
REMARK    7  A    between atoms: C_20  and  C_21
REMARK                            x       y       z     vdW  Elec       q    Type
REMARK                         _______ _______ _______ _____ _____    ______ ____
ROOT
ATOM      1  N   UNL     1       2.447   6.865  18.663  0.00  0.00    +0.000 N 
ATOM      2  C   UNL     1       2.762   8.036  17.829  0.00  0.00    +0.000 C 
ATOM      3  C   UNL     1       1.614   9.057  17.945  0.00  0.00    +0.000 C 
ATOM      4  N   UNL     1       1.306   9.400  19.343  0.00  0.00    +0.000 N 
ATOM      5  C   UNL     1       0.863  10.691  19.620  0.00  0.00    +0.000 C 
ATOM      6  O   UNL     1       0.816  11.550  18.734  0.00  0.00    +0.000 OA
ATOM      7  C   UNL     1       1.130   8.231  20.229  0.00  0.00    +0.000 C 
ATOM      8  C   UNL     1       2.258   7.192  20.083  0.00  0.00    +0.000 C 
ENDROOT
BRANCH   1  14
ATOM      9  C   UNL     1       4.091   5.051  18.335  0.00  0.00    +0.000 A 
ATOM     10  C   UNL     1       4.351   3.715  17.984  0.00  0.00    +0.000 A 
ATOM     11  C   UNL     1       3.321   2.863  17.603  0.00  0.00    +0.000 A 
ATOM     12  C   UNL     1       2.023   3.339  17.548  0.00  0.00    +0.000 A 
ATOM     13  C   UNL     1       1.753   4.673  17.875  0.00  0.00    +0.000 A 
ATOM     14  C   UNL     1       2.765   5.567  18.277  0.00  0.00    +0.000 A 
BRANCH   9  16
ATOM     15  C   UNL     1       6.335   5.806  18.093  0.00  0.00    +0.000 C 
ATOM     16  O   UNL     1       5.088   5.896  18.772  0.00  0.00    +0.000 OA
ENDBRANCH   9  16
ENDBRANCH   1  14
BRANCH   5  17
ATOM     17  C   UNL     1       0.534  11.025  21.072  0.00  0.00    +0.000 C 
BRANCH  17  18
ATOM     18  S   UNL     1      -0.031  12.740  21.270  0.00  0.00    +0.000 S 
BRANCH  18  19
ATOM     19  C   UNL     1      -1.488  12.455  22.136  0.00  0.00    +0.000 A 
ATOM     20  N   UNL     1      -1.697  11.681  23.171  0.00  0.00    +0.000 NA
ATOM     21  N   UNL     1      -3.033  11.791  23.493  0.00  0.00    +0.000 NA
ATOM     22  C   UNL     1      -3.611  12.607  22.625  0.00  0.00    +0.000 A 
ATOM     23  N   UNL     1      -2.641  13.069  21.769  0.00  0.00    +0.000 N 
ATOM     24  H   UNL     1      -2.762  13.707  21.004  0.00  0.00    +0.000 HD
BRANCH  22  25
ATOM     25  C   UNL     1      -5.021  13.007  22.599  0.00  0.00    +0.000 A 
ATOM     26  C   UNL     1      -5.557  13.597  23.759  0.00  0.00    +0.000 A 
ATOM     27  C   UNL     1      -6.892  14.000  23.818  0.00  0.00    +0.000 A 
ATOM     28  C   UNL     1      -7.722  13.810  22.718  0.00  0.00    +0.000 A 
ATOM     29  C   UNL     1      -7.218  13.225  21.560  0.00  0.00    +0.000 A 
ATOM     30  C   UNL     1      -5.873  12.827  21.494  0.00  0.00    +0.000 A 
ATOM     31 CL   UNL     1      -5.358  12.094  20.012  0.00  0.00    +0.000 Cl
ENDBRANCH  22  25
ENDBRANCH  18  19
ENDBRANCH  17  18
ENDBRANCH   5  17
TORSDOF 6
ENDMDL
MODEL 6
REMARK VINA RESULT:      -7.0      3.808      4.533
REMARK  Name = 
REMARK  7 active torsions:
REMARK  status: ('A' for Active; 'I' for Inactive)
REMARK    1  A    between atoms: C_1  and  O_2
REMARK    2  A    between atoms: O_2  and  C_3
REMARK    3  A    between atoms: C_8  and  N_9
REMARK    4  A    between atoms: C_13  and  C_15
REMARK    5  A    between atoms: C_15  and  S_16
REMARK    6  A    between atoms: S_16  and  C_17
REMARK    7  A    between atoms: C_20  and  C_21
REMARK                            x       y       z     vdW  Elec       q    Type
REMARK                         _______ _______ _______ _____ _____    ______ ____
ROOT
ATOM      1  N   UNL     1       2.289   7.348  18.517  0.00  0.00    +0.000 N 
ATOM      2  C   UNL     1       2.326   8.584  17.721  0.00  0.00    +0.000 C 
ATOM      3  C   UNL     1       1.073   9.422  18.038  0.00  0.00    +0.000 C 
ATOM      4  N   UNL     1       0.907   9.661  19.481  0.00  0.00    +0.000 N 
ATOM      5  C   UNL     1       0.329  10.862  19.885  0.00  0.00    +0.000 C 
ATOM      6  O   UNL     1       0.047  11.740  19.064  0.00  0.00    +0.000 OA
ATOM      7  C   UNL     1       1.013   8.444  20.312  0.00  0.00    +0.000 C 
ATOM      8  C   UNL     1       2.245   7.586  19.966  0.00  0.00    +0.000 C 
ENDROOT
BRANCH   1  14
ATOM      9  C   UNL     1       4.050   5.931  17.521  0.00  0.00    +0.000 A 
ATOM     10  C   UNL     1       4.464   4.663  17.078  0.00  0.00    +0.000 A 
ATOM     11  C   UNL     1       3.609   3.568  17.145  0.00  0.00    +0.000 A 
ATOM     12  C   UNL     1       2.325   3.731  17.636  0.00  0.00    +0.000 A 
ATOM     13  C   UNL     1       1.894   4.993  18.061  0.00  0.00    +0.000 A 
ATOM     14  C   UNL     1       2.731   6.126  18.020  0.00  0.00    +0.000 A 
BRANCH   9  16
ATOM     15  C   UNL     1       6.271   6.744  17.250  0.00  0.00    +0.000 C 
ATOM     16  O   UNL     1       4.899   7.016  17.517  0.00  0.00    +0.000 OA
ENDBRANCH   9  16
ENDBRANCH   1  14
BRANCH   5  17
ATOM     17  C   UNL     1       0.150  11.086  21.384  0.00  0.00    +0.000 C 
BRANCH  17  18
ATOM     18  S   UNL     1      -0.297  12.803  21.772  0.00  0.00    +0.000 S 
BRANCH  18  19
ATOM     19  C   UNL     1      -2.007  12.680  21.653  0.00  0.00    +0.000 A 
ATOM     20  N   UNL     1      -2.887  12.447  22.593  0.00  0.00    +0.000 NA
ATOM     21  N   UNL     1      -4.127  12.438  21.992  0.00  0.00    +0.000 NA
ATOM     22  C   UNL     1      -3.968  12.636  20.692  0.00  0.00    +0.000 A 
ATOM     23  N   UNL     1      -2.629  12.825  20.455  0.00  0.00    +0.000 N 
ATOM     24  H   UNL     1      -2.189  13.004  19.571  0.00  0.00    +0.000 HD
BRANCH  22  25
ATOM     25  C   UNL     1      -5.024  12.705  19.678  0.00  0.00    +0.000 A 
ATOM     26  C   UNL     1      -5.080  11.676  18.719  0.00  0.00    +0.000 A 
ATOM     27  C   UNL     1      -6.052  11.671  17.717  0.00  0.00    +0.000 A 
ATOM     28  C   UNL     1      -6.982  12.703  17.647  0.00  0.00    +0.000 A 
ATOM     29  C   UNL     1      -6.945  13.735  18.581  0.00  0.00    +0.000 A 
ATOM     30  C   UNL     1      -5.975  13.738  19.596  0.00  0.00    +0.000 A 
ATOM     31 CL   UNL     1      -6.011  15.079  20.692  0.00  0.00    +0.000 Cl
ENDBRANCH  22  25
ENDBRANCH  18  19
ENDBRANCH  17  18
ENDBRANCH   5  17
TORSDOF 6
ENDMDL
MODEL 7
REMARK VINA RESULT:      -6.8      3.624      4.868
REMARK  Name = 
REMARK  7 active torsions:
REMARK  status: ('A' for Active; 'I' for Inactive)
REMARK    1  A    between atoms: C_1  and  O_2
REMARK    2  A    between atoms: O_2  and  C_3
REMARK    3  A    between atoms: C_8  and  N_9
REMARK    4  A    between atoms: C_13  and  C_15
REMARK    5  A    between atoms: C_15  and  S_16
REMARK    6  A    between atoms: S_16  and  C_17
REMARK    7  A    between atoms: C_20  and  C_21
REMARK                            x       y       z     vdW  Elec       q    Type
REMARK                         _______ _______ _______ _____ _____    ______ ____
ROOT
ATOM      1  N   UNL     1       2.264   5.855  19.340  0.00  0.00    +0.000 N 
ATOM      2  C   UNL     1       1.389   6.270  20.446  0.00  0.00    +0.000 C 
ATOM      3  C   UNL     1       1.702   7.734  20.810  0.00  0.00    +0.000 C 
ATOM      4  N   UNL     1       1.637   8.630  19.644  0.00  0.00    +0.000 N 
ATOM      5  C   UNL     1       1.212   9.941  19.845  0.00  0.00    +0.000 C 
ATOM      6  O   UNL     1       0.815  10.317  20.953  0.00  0.00    +0.000 OA
ATOM      7  C   UNL     1       2.396   8.151  18.470  0.00  0.00    +0.000 C 
ATOM      8  C   UNL     1       2.111   6.676  18.131  0.00  0.00    +0.000 C 
ENDROOT
BRANCH   1  14
ATOM      9  C   UNL     1       4.191   4.311  19.431  0.00  0.00    +0.000 A 
ATOM     10  C   UNL     1       4.677   2.993  19.387  0.00  0.00    +0.000 A 
ATOM     11  C   UNL     1       3.815   1.919  19.203  0.00  0.00    +0.000 A 
ATOM     12  C   UNL     1       2.459   2.149  19.038  0.00  0.00    +0.000 A 
ATOM     13  C   UNL     1       1.965   3.458  19.058  0.00  0.00    +0.000 A 
ATOM     14  C   UNL     1       2.803   4.574  19.255  0.00  0.00    +0.000 A 
BRANCH   9  16
ATOM     15  C   UNL     1       6.325   5.315  19.108  0.00  0.00    +0.000 C 
ATOM     16  O   UNL     1       5.020   5.385  19.672  0.00  0.00    +0.000 OA
ENDBRANCH   9  16
ENDBRANCH   1  14
BRANCH   5  17
ATOM     17  C   UNL     1       1.165  10.860  18.628  0.00  0.00    +0.000 C 
BRANCH  17  18
ATOM     18  S   UNL     1       0.231  12.382  18.954  0.00  0.00    +0.000 S 
BRANCH  18  19
ATOM     19  C   UNL     1      -1.338  11.852  18.494  0.00  0.00    +0.000 A 
ATOM     20  N   UNL     1      -1.677  10.909  17.652  0.00  0.00    +0.000 NA
ATOM     21  N   UNL     1      -3.055  10.872  17.622  0.00  0.00    +0.000 NA
ATOM     22  C   UNL     1      -3.521  11.817  18.426  0.00  0.00    +0.000 A 
ATOM     23  N   UNL     1      -2.446  12.435  19.017  0.00  0.00    +0.000 N 
ATOM     24  H   UNL     1      -2.470  13.187  19.680  0.00  0.00    +0.000 HD
BRANCH  22  25
ATOM     25  C   UNL     1      -4.927  12.126  18.695  0.00  0.00    +0.000 A 
ATOM     26  C   UNL     1      -5.840  12.010  17.631  0.00  0.00    +0.000 A 
ATOM     27  C   UNL     1      -7.196  12.292  17.804  0.00  0.00    +0.000 A 
ATOM     28  C   UNL     1      -7.665  12.708  19.046  0.00  0.00    +0.000 A 
ATOM     29  C   UNL     1      -6.782  12.835  20.115  0.00  0.00    +0.000 A 
ATOM     30  C   UNL     1      -5.419  12.543  19.946  0.00  0.00    +0.000 A 
ATOM     31 CL   UNL     1      -4.409  12.753  21.337  0.00  0.00    +0.000 Cl
ENDBRANCH  22  25
ENDBRANCH  18  19
ENDBRANCH  17  18
ENDBRANCH   5  17
TORSDOF 6
ENDMDL
MODEL 8
REMARK VINA RESULT:      -6.8      3.742      4.568
REMARK  Name = 
REMARK  7 active torsions:
REMARK  status: ('A' for Active; 'I' for Inactive)
REMARK    1  A    between atoms: C_1  and  O_2
REMARK    2  A    between atoms: O_2  and  C_3
REMARK    3  A    between atoms: C_8  and  N_9
REMARK    4  A    between atoms: C_13  and  C_15
REMARK    5  A    between atoms: C_15  and  S_16
REMARK    6  A    between atoms: S_16  and  C_17
REMARK    7  A    between atoms: C_20  and  C_21
REMARK                            x       y       z     vdW  Elec       q    Type
REMARK                         _______ _______ _______ _____ _____    ______ ____
ROOT
ATOM      1  N   UNL     1       2.476   7.104  18.559  0.00  0.00    +0.000 N 
ATOM      2  C   UNL     1       2.567   8.324  17.743  0.00  0.00    +0.000 C 
ATOM      3  C   UNL     1       1.299   9.171  17.964  0.00  0.00    +0.000 C 
ATOM      4  N   UNL     1       1.043   9.438  19.388  0.00  0.00    +0.000 N 
ATOM      5  C   UNL     1       0.443  10.647  19.733  0.00  0.00    +0.000 C 
ATOM      6  O   UNL     1       0.216  11.509  18.878  0.00  0.00    +0.000 OA
ATOM      7  C   UNL     1       1.093   8.237  20.248  0.00  0.00    +0.000 C 
ATOM      8  C   UNL     1       2.342   7.371  19.998  0.00  0.00    +0.000 C 
ENDROOT
BRANCH   1  14
ATOM      9  C   UNL     1       2.274   4.648  18.394  0.00  0.00    +0.000 A 
ATOM     10  C   UNL     1       2.761   3.435  17.878  0.00  0.00    +0.000 A 
ATOM     11  C   UNL     1       3.885   3.406  17.061  0.00  0.00    +0.000 A 
ATOM     12  C   UNL     1       4.550   4.585  16.768  0.00  0.00    +0.000 A 
ATOM     13  C   UNL     1       4.088   5.797  17.293  0.00  0.00    +0.000 A 
ATOM     14  C   UNL     1       2.945   5.872  18.115  0.00  0.00    +0.000 A 
BRANCH   9  16
ATOM     15  C   UNL     1       1.011   3.742  20.197  0.00  0.00    +0.000 C 
ATOM     16  O   UNL     1       1.128   4.707  19.157  0.00  0.00    +0.000 OA
ENDBRANCH   9  16
ENDBRANCH   1  14
BRANCH   5  17
ATOM     17  C   UNL     1       0.172  10.901  21.212  0.00  0.00    +0.000 C 
BRANCH  17  18
ATOM     18  S   UNL     1      -0.178  12.650  21.555  0.00  0.00    +0.000 S 
BRANCH  18  19
ATOM     19  C   UNL     1      -1.892  12.621  21.437  0.00  0.00    +0.000 A 
ATOM     20  N   UNL     1      -2.786  12.579  22.392  0.00  0.00    +0.000 NA
ATOM     21  N   UNL     1      -4.024  12.564  21.786  0.00  0.00    +0.000 NA
ATOM     22  C   UNL     1      -3.851  12.567  20.472  0.00  0.00    +0.000 A 
ATOM     23  N   UNL     1      -2.502  12.634  20.224  0.00  0.00    +0.000 N 
ATOM     24  H   UNL     1      -2.051  12.658  19.328  0.00  0.00    +0.000 HD
BRANCH  22  25
ATOM     25  C   UNL     1      -4.899  12.558  19.448  0.00  0.00    +0.000 A 
ATOM     26  C   UNL     1      -6.054  13.327  19.685  0.00  0.00    +0.000 A 
ATOM     27  C   UNL     1      -7.100  13.368  18.761  0.00  0.00    +0.000 A 
ATOM     28  C   UNL     1      -7.016  12.630  17.585  0.00  0.00    +0.000 A 
ATOM     29  C   UNL     1      -5.886  11.858  17.329  0.00  0.00    +0.000 A 
ATOM     30  C   UNL     1      -4.828  11.821  18.251  0.00  0.00    +0.000 A 
ATOM     31 CL   UNL     1      -3.482  10.814  17.839  0.00  0.00    +0.000 Cl
ENDBRANCH  22  25
ENDBRANCH  18  19
ENDBRANCH  17  18
ENDBRANCH   5  17
TORSDOF 6
ENDMDL
MODEL 9
REMARK VINA RESULT:      -6.8      3.366      4.685
REMARK  Name = 
REMARK  7 active torsions:
REMARK  status: ('A' for Active; 'I' for Inactive)
REMARK    1  A    between atoms: C_1  and  O_2
REMARK    2  A    between atoms: O_2  and  C_3
REMARK    3  A    between atoms: C_8  and  N_9
REMARK    4  A    between atoms: C_13  and  C_15
REMARK    5  A    between atoms: C_15  and  S_16
REMARK    6  A    between atoms: S_16  and  C_17
REMARK    7  A    between atoms: C_20  and  C_21
REMARK                            x       y       z     vdW  Elec       q    Type
REMARK                         _______ _______ _______ _____ _____    ______ ____
ROOT
ATOM      1  N   UNL     1       2.431   6.913  18.676  0.00  0.00    +0.000 N 
ATOM      2  C   UNL     1       2.774   8.044  17.800  0.00  0.00    +0.000 C 
ATOM      3  C   UNL     1       1.646   9.091  17.867  0.00  0.00    +0.000 C 
ATOM      4  N   UNL     1       1.334   9.494  19.248  0.00  0.00    +0.000 N 
ATOM      5  C   UNL     1       0.914  10.803  19.471  0.00  0.00    +0.000 C 
ATOM      6  O   UNL     1       0.890  11.627  18.553  0.00  0.00    +0.000 OA
ATOM      7  C   UNL     1       1.129   8.363  20.177  0.00  0.00    +0.000 C 
ATOM      8  C   UNL     1       2.238   7.298  20.080  0.00  0.00    +0.000 C 
ENDROOT
BRANCH   1  14
ATOM      9  C   UNL     1       4.048   5.067  18.394  0.00  0.00    +0.000 A 
ATOM     10  C   UNL     1       4.287   3.715  18.098  0.00  0.00    +0.000 A 
ATOM     11  C   UNL     1       3.240   2.856  17.782  0.00  0.00    +0.000 A 
ATOM     12  C   UNL     1       1.945   3.344  17.736  0.00  0.00    +0.000 A 
ATOM     13  C   UNL     1       1.696   4.694  18.007  0.00  0.00    +0.000 A 
ATOM     14  C   UNL     1       2.727   5.595  18.343  0.00  0.00    +0.000 A 
BRANCH   9  16
ATOM     15  C   UNL     1       6.253   5.312  19.257  0.00  0.00    +0.000 C 
ATOM     16  O   UNL     1       5.064   5.921  18.767  0.00  0.00    +0.000 OA
ENDBRANCH   9  16
ENDBRANCH   1  14
BRANCH   5  17
ATOM     17  C   UNL     1       0.581  11.199  20.907  0.00  0.00    +0.000 C 
BRANCH  17  18
ATOM     18  S   UNL     1       0.906  12.957  21.226  0.00  0.00    +0.000 S 
BRANCH  18  19
ATOM     19  C   UNL     1      -0.477  13.329  22.176  0.00  0.00    +0.000 A 
ATOM     20  N   UNL     1      -0.560  14.039  23.273  0.00  0.00    +0.000 NA
ATOM     21  N   UNL     1      -1.884  14.037  23.655  0.00  0.00    +0.000 NA
ATOM     22  C   UNL     1      -2.571  13.299  22.796  0.00  0.00    +0.000 A 
ATOM     23  N   UNL     1      -1.702  12.862  21.826  0.00  0.00    +0.000 N 
ATOM     24  H   UNL     1      -1.919  12.287  21.033  0.00  0.00    +0.000 HD
BRANCH  22  25
ATOM     25  C   UNL     1      -4.012  13.031  22.823  0.00  0.00    +0.000 A 
ATOM     26  C   UNL     1      -4.632  12.904  24.080  0.00  0.00    +0.000 A 
ATOM     27  C   UNL     1      -5.999  12.644  24.191  0.00  0.00    +0.000 A 
ATOM     28  C   UNL     1      -6.772  12.493  23.045  0.00  0.00    +0.000 A 
ATOM     29  C   UNL     1      -6.182  12.610  21.789  0.00  0.00    +0.000 A 
ATOM     30  C   UNL     1      -4.809  12.881  21.673  0.00  0.00    +0.000 A 
ATOM     31 CL   UNL     1      -4.178  12.987  20.064  0.00  0.00    +0.000 Cl
ENDBRANCH  22  25
ENDBRANCH  18  19
ENDBRANCH  17  18
ENDBRANCH   5  17
TORSDOF 6
ENDMDL
