MODEL 1
REMARK VINA RESULT:     -10.2      0.000      0.000
REMARK  Name = 
REMARK  3 active torsions:
REMARK  status: ('A' for Active; 'I' for Inactive)
REMARK    1  A    between atoms: C_5  and  C_7
REMARK    2  A    between atoms: C_11  and  N_12
REMARK    3  A    between atoms: C_16  and  C_17
REMARK                            x       y       z     vdW  Elec       q    Type
REMARK                         _______ _______ _______ _____ _____    ______ ____
ROOT
ATOM      1  N   UNL     1       0.952   8.479  21.196  0.00  0.00    +0.000 N 
ATOM      2  C   UNL     1       0.144   9.550  21.539  0.00  0.00    +0.000 A 
ATOM      3  N   UNL     1      -0.266  10.441  20.626  0.00  0.00    +0.000 NA
ATOM      4  C   UNL     1      -1.081  11.430  21.031  0.00  0.00    +0.000 A 
ATOM      5  C   UNL     1      -1.506  11.581  22.328  0.00  0.00    +0.000 A 
ATOM      6  C   UNL     1      -0.989  10.629  23.194  0.00  0.00    +0.000 A 
ATOM      7  N   UNL     1      -0.180   9.617  22.834  0.00  0.00    +0.000 NA
ATOM      8  H   UNL     1       1.157   7.941  22.024  0.00  0.00    +0.000 HD
ENDROOT
BRANCH   5   9
ATOM      9  C   UNL     1      -2.530  12.529  22.761  0.00  0.00    +0.000 A 
ATOM     10  C   UNL     1      -2.763  13.716  22.016  0.00  0.00    +0.000 A 
ATOM     11  C   UNL     1      -3.953  14.434  22.154  0.00  0.00    +0.000 A 
ATOM     12  C   UNL     1      -4.893  13.922  23.014  0.00  0.00    +0.000 A 
ATOM     13  C   UNL     1      -4.630  12.838  23.820  0.00  0.00    +0.000 A 
ATOM     14  C   UNL     1      -3.441  12.158  23.764  0.00  0.00    +0.000 A 
ATOM     15  O   UNL     1      -5.728  12.437  24.519  0.00  0.00    +0.000 OA
ATOM     16  C   UNL     1      -6.734  13.149  23.774  0.00  0.00    +0.000 C 
ATOM     17  O   UNL     1      -6.197  14.308  23.102  0.00  0.00    +0.000 OA
ENDBRANCH   5   9
BRANCH   1  22
ATOM     18  C   UNL     1       3.041   6.705  18.641  0.00  0.00    +0.000 A 
ATOM     19  C   UNL     1       2.944   7.629  17.601  0.00  0.00    +0.000 A 
ATOM     20  C   UNL     1       2.157   8.770  17.733  0.00  0.00    +0.000 A 
ATOM     21  C   UNL     1       1.509   9.030  18.935  0.00  0.00    +0.000 A 
ATOM     22  C   UNL     1       1.635   8.160  20.023  0.00  0.00    +0.000 A 
ATOM     23  C   UNL     1       2.416   7.004  19.862  0.00  0.00    +0.000 A 
BRANCH  18  28
ATOM     24  O   UNL     1       0.099   2.281  18.573  0.00  0.00    +0.000 OA
ATOM     25  C   UNL     1       1.295   2.547  18.474  0.00  0.00    +0.000 C 
ATOM     26  C   UNL     1       1.788   3.970  18.177  0.00  0.00    +0.000 C 
ATOM     27  N   UNL     1       3.231   4.213  18.281  0.00  0.00    +0.000 N 
ATOM     28  C   UNL     1       3.841   5.443  18.550  0.00  0.00    +0.000 C 
ATOM     29  O   UNL     1       5.056   5.527  18.729  0.00  0.00    +0.000 OA
ATOM     30  C   UNL     1       4.082   3.077  17.930  0.00  0.00    +0.000 C 
ATOM     31  C   UNL     1       3.636   1.813  18.664  0.00  0.00    +0.000 C 
ATOM     32  N   UNL     1       2.226   1.543  18.487  0.00  0.00    +0.000 N 
ATOM     33  H   UNL     1       1.852   0.635  18.734  0.00  0.00    +0.000 HD
ENDBRANCH  18  28
ENDBRANCH   1  22
TORSDOF 3
ENDMDL
MODEL 2
REMARK VINA RESULT:     -10.1      3.406     10.892
REMARK  Name = 
REMARK  3 active torsions:
REMARK  status: ('A' for Active; 'I' for Inactive)
REMARK    1  A    between atoms: C_5  and  C_7
REMARK    2  A    between atoms: C_11  and  N_12
REMARK    3  A    between atoms: C_16  and  C_17
REMARK                            x       y       z     vdW  Elec       q    Type
REMARK                         _______ _______ _______ _____ _____    ______ ____
ROOT
ATOM      1  N   UNL     1       0.668   9.469  20.255  0.00  0.00    +0.000 N 
ATOM      2  C   UNL     1       1.464   8.564  19.572  0.00  0.00    +0.000 A 
ATOM      3  N   UNL     1       1.849   8.782  18.307  0.00  0.00    +0.000 NA
ATOM      4  C   UNL     1       2.653   7.875  17.727  0.00  0.00    +0.000 A 
ATOM      5  C   UNL     1       3.091   6.735  18.355  0.00  0.00    +0.000 A 
ATOM      6  C   UNL     1       2.599   6.590  19.644  0.00  0.00    +0.000 A 
ATOM      7  N   UNL     1       1.801   7.475  20.269  0.00  0.00    +0.000 NA
ATOM      8  H   UNL     1       0.481   9.112  21.180  0.00  0.00    +0.000 HD
ENDROOT
BRANCH   5   9
ATOM      9  C   UNL     1       4.105   5.830  17.821  0.00  0.00    +0.000 A 
ATOM     10  C   UNL     1       3.850   4.434  17.754  0.00  0.00    +0.000 A 
ATOM     11  C   UNL     1       4.597   3.601  16.918  0.00  0.00    +0.000 A 
ATOM     12  C   UNL     1       5.561   4.199  16.145  0.00  0.00    +0.000 A 
ATOM     13  C   UNL     1       5.888   5.528  16.286  0.00  0.00    +0.000 A 
ATOM     14  C   UNL     1       5.225   6.355  17.156  0.00  0.00    +0.000 A 
ATOM     15  O   UNL     1       6.796   5.937  15.358  0.00  0.00    +0.000 OA
ATOM     16  C   UNL     1       6.689   4.830  14.443  0.00  0.00    +0.000 C 
ATOM     17  O   UNL     1       6.214   3.631  15.092  0.00  0.00    +0.000 OA
ENDBRANCH   5   9
BRANCH   1  22
ATOM     18  C   UNL     1      -1.887  11.749  18.735  0.00  0.00    +0.000 A 
ATOM     19  C   UNL     1      -1.322  12.974  19.086  0.00  0.00    +0.000 A 
ATOM     20  C   UNL     1      -0.164  13.029  19.858  0.00  0.00    +0.000 A 
ATOM     21  C   UNL     1       0.478  11.854  20.230  0.00  0.00    +0.000 A 
ATOM     22  C   UNL     1      -0.023  10.607  19.841  0.00  0.00    +0.000 A 
ATOM     23  C   UNL     1      -1.204  10.573  19.082  0.00  0.00    +0.000 A 
BRANCH  18  28
ATOM     24  O   UNL     1      -6.321  12.025  21.650  0.00  0.00    +0.000 OA
ATOM     25  C   UNL     1      -6.055  11.938  20.453  0.00  0.00    +0.000 C 
ATOM     26  C   UNL     1      -4.653  12.239  19.908  0.00  0.00    +0.000 C 
ATOM     27  N   UNL     1      -4.396  11.909  18.501  0.00  0.00    +0.000 N 
ATOM     28  C   UNL     1      -3.148  11.621  17.938  0.00  0.00    +0.000 C 
ATOM     29  O   UNL     1      -3.047  11.246  16.770  0.00  0.00    +0.000 OA
ATOM     30  C   UNL     1      -5.548  12.037  17.611  0.00  0.00    +0.000 C 
ATOM     31  C   UNL     1      -6.764  11.309  18.181  0.00  0.00    +0.000 C 
ATOM     32  N   UNL     1      -7.052  11.703  19.544  0.00  0.00    +0.000 N 
ATOM     33  H   UNL     1      -7.944  11.464  19.959  0.00  0.00    +0.000 HD
ENDBRANCH  18  28
ENDBRANCH   1  22
TORSDOF 3
ENDMDL
MODEL 3
REMARK VINA RESULT:      -9.9      3.487     10.752
REMARK  Name = 
REMARK  3 active torsions:
REMARK  status: ('A' for Active; 'I' for Inactive)
REMARK    1  A    between atoms: C_5  and  C_7
REMARK    2  A    between atoms: C_11  and  N_12
REMARK    3  A    between atoms: C_16  and  C_17
REMARK                            x       y       z     vdW  Elec       q    Type
REMARK                         _______ _______ _______ _____ _____    ______ ____
ROOT
ATOM      1  N   UNL     1       0.995   9.428  20.444  0.00  0.00    +0.000 N 
ATOM      2  C   UNL     1       1.722   8.516  19.697  0.00  0.00    +0.000 A 
ATOM      3  N   UNL     1       2.198   8.823  18.483  0.00  0.00    +0.000 NA
ATOM      4  C   UNL     1       2.927   7.897  17.838  0.00  0.00    +0.000 A 
ATOM      5  C   UNL     1       3.202   6.653  18.351  0.00  0.00    +0.000 A 
ATOM      6  C   UNL     1       2.627   6.428  19.593  0.00  0.00    +0.000 A 
ATOM      7  N   UNL     1       1.899   7.326  20.280  0.00  0.00    +0.000 NA
ATOM      8  H   UNL     1       0.720   8.997  21.314  0.00  0.00    +0.000 HD
ENDROOT
BRANCH   5   9
ATOM      9  C   UNL     1       4.138   5.699  17.760  0.00  0.00    +0.000 A 
ATOM     10  C   UNL     1       3.692   4.403  17.385  0.00  0.00    +0.000 A 
ATOM     11  C   UNL     1       4.420   3.620  16.487  0.00  0.00    +0.000 A 
ATOM     12  C   UNL     1       5.562   4.175  15.961  0.00  0.00    +0.000 A 
ATOM     13  C   UNL     1       6.057   5.380  16.403  0.00  0.00    +0.000 A 
ATOM     14  C   UNL     1       5.405   6.136  17.343  0.00  0.00    +0.000 A 
ATOM     15  O   UNL     1       7.137   5.789  15.683  0.00  0.00    +0.000 OA
ATOM     16  C   UNL     1       7.000   4.901  14.557  0.00  0.00    +0.000 C 
ATOM     17  O   UNL     1       6.267   3.704  14.895  0.00  0.00    +0.000 OA
ENDBRANCH   5   9
BRANCH   1  22
ATOM     18  C   UNL     1      -1.405  12.241  19.843  0.00  0.00    +0.000 A 
ATOM     19  C   UNL     1      -0.491  13.239  19.504  0.00  0.00    +0.000 A 
ATOM     20  C   UNL     1       0.879  12.990  19.538  0.00  0.00    +0.000 A 
ATOM     21  C   UNL     1       1.346  11.719  19.851  0.00  0.00    +0.000 A 
ATOM     22  C   UNL     1       0.457  10.676  20.133  0.00  0.00    +0.000 A 
ATOM     23  C   UNL     1      -0.919  10.953  20.114  0.00  0.00    +0.000 A 
BRANCH  18  28
ATOM     24  O   UNL     1      -3.847  10.780  15.356  0.00  0.00    +0.000 OA
ATOM     25  C   UNL     1      -4.199  11.205  16.454  0.00  0.00    +0.000 C 
ATOM     26  C   UNL     1      -3.260  11.195  17.668  0.00  0.00    +0.000 C 
ATOM     27  N   UNL     1      -3.710  11.909  18.869  0.00  0.00    +0.000 N 
ATOM     28  C   UNL     1      -2.887  12.453  19.860  0.00  0.00    +0.000 C 
ATOM     29  O   UNL     1      -3.353  13.132  20.775  0.00  0.00    +0.000 OA
ATOM     30  C   UNL     1      -5.156  11.911  19.087  0.00  0.00    +0.000 C 
ATOM     31  C   UNL     1      -5.899  12.342  17.824  0.00  0.00    +0.000 C 
ATOM     32  N   UNL     1      -5.501  11.577  16.662  0.00  0.00    +0.000 N 
ATOM     33  H   UNL     1      -6.062  11.610  15.820  0.00  0.00    +0.000 HD
ENDBRANCH  18  28
ENDBRANCH   1  22
TORSDOF 3
ENDMDL
MODEL 4
REMARK VINA RESULT:      -9.9      1.220      1.739
REMARK  Name = 
REMARK  3 active torsions:
REMARK  status: ('A' for Active; 'I' for Inactive)
REMARK    1  A    between atoms: C_5  and  C_7
REMARK    2  A    between atoms: C_11  and  N_12
REMARK    3  A    between atoms: C_16  and  C_17
REMARK                            x       y       z     vdW  Elec       q    Type
REMARK                         _______ _______ _______ _____ _____    ______ ____
ROOT
ATOM      1  N   UNL     1       0.836   8.464  21.199  0.00  0.00    +0.000 N 
ATOM      2  C   UNL     1       0.093   9.578  21.550  0.00  0.00    +0.000 A 
ATOM      3  N   UNL     1      -0.185  10.546  20.666  0.00  0.00    +0.000 NA
ATOM      4  C   UNL     1      -0.945  11.576  21.074  0.00  0.00    +0.000 A 
ATOM      5  C   UNL     1      -1.441  11.695  22.349  0.00  0.00    +0.000 A 
ATOM      6  C   UNL     1      -1.059  10.662  23.191  0.00  0.00    +0.000 A 
ATOM      7  N   UNL     1      -0.309   9.606  22.825  0.00  0.00    +0.000 NA
ATOM      8  H   UNL     1       0.943   7.870  22.007  0.00  0.00    +0.000 HD
ENDROOT
BRANCH   5   9
ATOM      9  C   UNL     1      -2.415  12.700  22.770  0.00  0.00    +0.000 A 
ATOM     10  C   UNL     1      -3.405  12.373  23.735  0.00  0.00    +0.000 A 
ATOM     11  C   UNL     1      -4.084  13.368  24.440  0.00  0.00    +0.000 A 
ATOM     12  C   UNL     1      -3.726  14.669  24.182  0.00  0.00    +0.000 A 
ATOM     13  C   UNL     1      -2.851  14.997  23.173  0.00  0.00    +0.000 A 
ATOM     14  C   UNL     1      -2.227  14.044  22.409  0.00  0.00    +0.000 A 
ATOM     15  O   UNL     1      -2.560  16.327  23.154  0.00  0.00    +0.000 OA
ATOM     16  C   UNL     1      -3.054  16.678  24.461  0.00  0.00    +0.000 C 
ATOM     17  O   UNL     1      -4.065  15.759  24.925  0.00  0.00    +0.000 OA
ENDBRANCH   5   9
BRANCH   1  22
ATOM     18  C   UNL     1       3.037   6.706  18.729  0.00  0.00    +0.000 A 
ATOM     19  C   UNL     1       2.977   7.629  17.686  0.00  0.00    +0.000 A 
ATOM     20  C   UNL     1       2.177   8.765  17.787  0.00  0.00    +0.000 A 
ATOM     21  C   UNL     1       1.480   9.020  18.962  0.00  0.00    +0.000 A 
ATOM     22  C   UNL     1       1.567   8.150  20.054  0.00  0.00    +0.000 A 
ATOM     23  C   UNL     1       2.361   7.000  19.924  0.00  0.00    +0.000 A 
BRANCH  18  28
ATOM     24  O   UNL     1       0.129   2.262  18.539  0.00  0.00    +0.000 OA
ATOM     25  C   UNL     1       1.326   2.537  18.488  0.00  0.00    +0.000 C 
ATOM     26  C   UNL     1       1.822   3.963  18.213  0.00  0.00    +0.000 C 
ATOM     27  N   UNL     1       3.258   4.215  18.376  0.00  0.00    +0.000 N 
ATOM     28  C   UNL     1       3.849   5.449  18.670  0.00  0.00    +0.000 C 
ATOM     29  O   UNL     1       5.055   5.541  18.898  0.00  0.00    +0.000 OA
ATOM     30  C   UNL     1       4.130   3.085  18.059  0.00  0.00    +0.000 C 
ATOM     31  C   UNL     1       3.663   1.818  18.773  0.00  0.00    +0.000 C 
ATOM     32  N   UNL     1       2.263   1.539  18.539  0.00  0.00    +0.000 N 
ATOM     33  H   UNL     1       1.885   0.628  18.770  0.00  0.00    +0.000 HD
ENDBRANCH  18  28
ENDBRANCH   1  22
TORSDOF 3
ENDMDL
MODEL 5
REMARK VINA RESULT:      -9.8      3.244     10.785
REMARK  Name = 
REMARK  3 active torsions:
REMARK  status: ('A' for Active; 'I' for Inactive)
REMARK    1  A    between atoms: C_5  and  C_7
REMARK    2  A    between atoms: C_11  and  N_12
REMARK    3  A    between atoms: C_16  and  C_17
REMARK                            x       y       z     vdW  Elec       q    Type
REMARK                         _______ _______ _______ _____ _____    ______ ____
ROOT
ATOM      1  N   UNL     1       0.531   9.717  20.492  0.00  0.00    +0.000 N 
ATOM      2  C   UNL     1       1.315   8.881  19.715  0.00  0.00    +0.000 A 
ATOM      3  N   UNL     1       1.619   9.183  18.445  0.00  0.00    +0.000 NA
ATOM      4  C   UNL     1       2.416   8.339  17.769  0.00  0.00    +0.000 A 
ATOM      5  C   UNL     1       2.927   7.182  18.305  0.00  0.00    +0.000 A 
ATOM      6  C   UNL     1       2.516   6.948  19.608  0.00  0.00    +0.000 A 
ATOM      7  N   UNL     1       1.727   7.767  20.328  0.00  0.00    +0.000 NA
ATOM      8  H   UNL     1       0.410   9.303  21.404  0.00  0.00    +0.000 HD
ENDROOT
BRANCH   5   9
ATOM      9  C   UNL     1       3.937   6.344  17.662  0.00  0.00    +0.000 A 
ATOM     10  C   UNL     1       4.447   6.697  16.385  0.00  0.00    +0.000 A 
ATOM     11  C   UNL     1       5.654   6.172  15.918  0.00  0.00    +0.000 A 
ATOM     12  C   UNL     1       6.334   5.330  16.762  0.00  0.00    +0.000 A 
ATOM     13  C   UNL     1       5.793   4.897  17.951  0.00  0.00    +0.000 A 
ATOM     14  C   UNL     1       4.574   5.334  18.401  0.00  0.00    +0.000 A 
ATOM     15  O   UNL     1       6.672   4.151  18.676  0.00  0.00    +0.000 OA
ATOM     16  C   UNL     1       7.883   4.496  17.977  0.00  0.00    +0.000 C 
ATOM     17  O   UNL     1       7.626   4.920  16.621  0.00  0.00    +0.000 OA
ENDBRANCH   5   9
BRANCH   1  22
ATOM     18  C   UNL     1      -2.118  11.997  19.143  0.00  0.00    +0.000 A 
ATOM     19  C   UNL     1      -1.646  13.206  19.655  0.00  0.00    +0.000 A 
ATOM     20  C   UNL     1      -0.519  13.242  20.472  0.00  0.00    +0.000 A 
ATOM     21  C   UNL     1       0.186  12.073  20.732  0.00  0.00    +0.000 A 
ATOM     22  C   UNL     1      -0.219  10.851  20.184  0.00  0.00    +0.000 A 
ATOM     23  C   UNL     1      -1.370  10.833  19.380  0.00  0.00    +0.000 A 
BRANCH  18  28
ATOM     24  O   UNL     1      -6.668  11.908  21.886  0.00  0.00    +0.000 OA
ATOM     25  C   UNL     1      -6.353  11.919  20.698  0.00  0.00    +0.000 C 
ATOM     26  C   UNL     1      -4.943  12.306  20.234  0.00  0.00    +0.000 C 
ATOM     27  N   UNL     1      -4.620  12.090  18.819  0.00  0.00    +0.000 N 
ATOM     28  C   UNL     1      -3.342  11.887  18.288  0.00  0.00    +0.000 C 
ATOM     29  O   UNL     1      -3.182  11.602  17.102  0.00  0.00    +0.000 OA
ATOM     30  C   UNL     1      -5.741  12.244  17.894  0.00  0.00    +0.000 C 
ATOM     31  C   UNL     1      -6.950  11.435  18.360  0.00  0.00    +0.000 C 
ATOM     32  N   UNL     1      -7.304  11.717  19.734  0.00  0.00    +0.000 N 
ATOM     33  H   UNL     1      -8.203  11.419  20.094  0.00  0.00    +0.000 HD
ENDBRANCH  18  28
ENDBRANCH   1  22
TORSDOF 3
ENDMDL
MODEL 6
REMARK VINA RESULT:      -9.8      2.154      3.591
REMARK  Name = 
REMARK  3 active torsions:
REMARK  status: ('A' for Active; 'I' for Inactive)
REMARK    1  A    between atoms: C_5  and  C_7
REMARK    2  A    between atoms: C_11  and  N_12
REMARK    3  A    between atoms: C_16  and  C_17
REMARK                            x       y       z     vdW  Elec       q    Type
REMARK                         _______ _______ _______ _____ _____    ______ ____
ROOT
ATOM      1  N   UNL     1       1.881   8.228  19.434  0.00  0.00    +0.000 N 
ATOM      2  C   UNL     1       1.066   9.007  20.238  0.00  0.00    +0.000 A 
ATOM      3  N   UNL     1       0.552   8.537  21.384  0.00  0.00    +0.000 NA
ATOM      4  C   UNL     1      -0.198   9.368  22.127  0.00  0.00    +0.000 A 
ATOM      5  C   UNL     1      -0.473  10.666  21.772  0.00  0.00    +0.000 A 
ATOM      6  C   UNL     1       0.073  11.034  20.552  0.00  0.00    +0.000 A 
ATOM      7  N   UNL     1       0.837  10.241  19.778  0.00  0.00    +0.000 NA
ATOM      8  H   UNL     1       2.147   8.760  18.620  0.00  0.00    +0.000 HD
ENDROOT
BRANCH   5   9
ATOM      9  C   UNL     1      -1.126  11.643  22.640  0.00  0.00    +0.000 A 
ATOM     10  C   UNL     1      -0.791  13.020  22.541  0.00  0.00    +0.000 A 
ATOM     11  C   UNL     1      -1.636  14.009  23.049  0.00  0.00    +0.000 A 
ATOM     12  C   UNL     1      -2.815  13.589  23.615  0.00  0.00    +0.000 A 
ATOM     13  C   UNL     1      -3.094  12.256  23.814  0.00  0.00    +0.000 A 
ATOM     14  C   UNL     1      -2.246  11.263  23.397  0.00  0.00    +0.000 A 
ATOM     15  O   UNL     1      -4.352  12.059  24.296  0.00  0.00    +0.000 OA
ATOM     16  C   UNL     1      -4.902  13.359  24.011  0.00  0.00    +0.000 C 
ATOM     17  O   UNL     1      -3.881  14.376  23.929  0.00  0.00    +0.000 OA
ENDBRANCH   5   9
BRANCH   1  22
ATOM     18  C   UNL     1       3.178   4.837  18.510  0.00  0.00    +0.000 A 
ATOM     19  C   UNL     1       2.826   4.145  19.669  0.00  0.00    +0.000 A 
ATOM     20  C   UNL     1       2.234   4.808  20.741  0.00  0.00    +0.000 A 
ATOM     21  C   UNL     1       1.929   6.160  20.638  0.00  0.00    +0.000 A 
ATOM     22  C   UNL     1       2.208   6.873  19.467  0.00  0.00    +0.000 A 
ATOM     23  C   UNL     1       2.825   6.191  18.406  0.00  0.00    +0.000 A 
BRANCH  18  28
ATOM     24  O   UNL     1       7.713   7.190  17.049  0.00  0.00    +0.000 OA
ATOM     25  C   UNL     1       7.084   6.192  16.701  0.00  0.00    +0.000 C 
ATOM     26  C   UNL     1       5.976   5.586  17.572  0.00  0.00    +0.000 C 
ATOM     27  N   UNL     1       5.157   4.526  16.973  0.00  0.00    +0.000 N 
ATOM     28  C   UNL     1       3.849   4.191  17.337  0.00  0.00    +0.000 C 
ATOM     29  O   UNL     1       3.202   3.360  16.701  0.00  0.00    +0.000 OA
ATOM     30  C   UNL     1       5.850   3.675  16.007  0.00  0.00    +0.000 C 
ATOM     31  C   UNL     1       6.590   4.515  14.969  0.00  0.00    +0.000 C 
ATOM     32  N   UNL     1       7.453   5.505  15.576  0.00  0.00    +0.000 N 
ATOM     33  H   UNL     1       8.155   5.974  15.015  0.00  0.00    +0.000 HD
ENDBRANCH  18  28
ENDBRANCH   1  22
TORSDOF 3
ENDMDL
MODEL 7
REMARK VINA RESULT:      -9.7      3.892      5.552
REMARK  Name = 
REMARK  3 active torsions:
REMARK  status: ('A' for Active; 'I' for Inactive)
REMARK    1  A    between atoms: C_5  and  C_7
REMARK    2  A    between atoms: C_11  and  N_12
REMARK    3  A    between atoms: C_16  and  C_17
REMARK                            x       y       z     vdW  Elec       q    Type
REMARK                         _______ _______ _______ _____ _____    ______ ____
ROOT
ATOM      1  N   UNL     1       1.649   6.332  20.985  0.00  0.00    +0.000 N 
ATOM      2  C   UNL     1       1.532   7.593  20.424  0.00  0.00    +0.000 A 
ATOM      3  N   UNL     1       1.871   7.829  19.149  0.00  0.00    +0.000 NA
ATOM      4  C   UNL     1       1.692   9.072  18.669  0.00  0.00    +0.000 A 
ATOM      5  C   UNL     1       1.192  10.110  19.415  0.00  0.00    +0.000 A 
ATOM      6  C   UNL     1       0.915   9.765  20.729  0.00  0.00    +0.000 A 
ATOM      7  N   UNL     1       1.068   8.535  21.251  0.00  0.00    +0.000 NA
ATOM      8  H   UNL     1       1.358   6.371  21.950  0.00  0.00    +0.000 HD
ENDROOT
BRANCH   5   9
ATOM      9  C   UNL     1       0.816  11.415  18.874  0.00  0.00    +0.000 A 
ATOM     10  C   UNL     1      -0.548  11.812  18.855  0.00  0.00    +0.000 A 
ATOM     11  C   UNL     1      -0.908  13.154  18.721  0.00  0.00    +0.000 A 
ATOM     12  C   UNL     1       0.114  14.068  18.644  0.00  0.00    +0.000 A 
ATOM     13  C   UNL     1       1.431  13.682  18.550  0.00  0.00    +0.000 A 
ATOM     14  C   UNL     1       1.812  12.366  18.599  0.00  0.00    +0.000 A 
ATOM     15  O   UNL     1       2.283  14.744  18.584  0.00  0.00    +0.000 OA
ATOM     16  C   UNL     1       1.369  15.744  19.073  0.00  0.00    +0.000 C 
ATOM     17  O   UNL     1      -0.005  15.420  18.771  0.00  0.00    +0.000 OA
ENDBRANCH   5   9
BRANCH   1  22
ATOM     18  C   UNL     1       3.421   3.812  18.853  0.00  0.00    +0.000 A 
ATOM     19  C   UNL     1       3.410   2.733  19.736  0.00  0.00    +0.000 A 
ATOM     20  C   UNL     1       2.884   2.868  21.019  0.00  0.00    +0.000 A 
ATOM     21  C   UNL     1       2.304   4.070  21.407  0.00  0.00    +0.000 A 
ATOM     22  C   UNL     1       2.238   5.155  20.526  0.00  0.00    +0.000 A 
ATOM     23  C   UNL     1       2.793   5.004  19.246  0.00  0.00    +0.000 A 
BRANCH  18  28
ATOM     24  O   UNL     1       7.815   6.730  18.210  0.00  0.00    +0.000 OA
ATOM     25  C   UNL     1       7.166   5.946  17.519  0.00  0.00    +0.000 C 
ATOM     26  C   UNL     1       6.133   4.990  18.128  0.00  0.00    +0.000 C 
ATOM     27  N   UNL     1       5.276   4.248  17.197  0.00  0.00    +0.000 N 
ATOM     28  C   UNL     1       4.002   3.742  17.475  0.00  0.00    +0.000 C 
ATOM     29  O   UNL     1       3.312   3.229  16.593  0.00  0.00    +0.000 OA
ATOM     30  C   UNL     1       5.896   3.905  15.918  0.00  0.00    +0.000 C 
ATOM     31  C   UNL     1       6.549   5.131  15.281  0.00  0.00    +0.000 C 
ATOM     32  N   UNL     1       7.451   5.807  16.187  0.00  0.00    +0.000 N 
ATOM     33  H   UNL     1       8.104   6.494  15.829  0.00  0.00    +0.000 HD
ENDBRANCH  18  28
ENDBRANCH   1  22
TORSDOF 3
ENDMDL
MODEL 8
REMARK VINA RESULT:      -9.7      2.693     11.416
REMARK  Name = 
REMARK  3 active torsions:
REMARK  status: ('A' for Active; 'I' for Inactive)
REMARK    1  A    between atoms: C_5  and  C_7
REMARK    2  A    between atoms: C_11  and  N_12
REMARK    3  A    between atoms: C_16  and  C_17
REMARK                            x       y       z     vdW  Elec       q    Type
REMARK                         _______ _______ _______ _____ _____    ______ ____
ROOT
ATOM      1  N   UNL     1       0.684   9.643  19.499  0.00  0.00    +0.000 N 
ATOM      2  C   UNL     1       1.642   8.723  19.108  0.00  0.00    +0.000 A 
ATOM      3  N   UNL     1       2.099   7.784  19.947  0.00  0.00    +0.000 NA
ATOM      4  C   UNL     1       3.000   6.903  19.479  0.00  0.00    +0.000 A 
ATOM      5  C   UNL     1       3.483   6.921  18.194  0.00  0.00    +0.000 A 
ATOM      6  C   UNL     1       2.975   7.958  17.426  0.00  0.00    +0.000 A 
ATOM      7  N   UNL     1       2.066   8.856  17.847  0.00  0.00    +0.000 NA
ATOM      8  H   UNL     1       0.491  10.267  18.730  0.00  0.00    +0.000 HD
ENDROOT
BRANCH   5   9
ATOM      9  C   UNL     1       4.317   5.875  17.606  0.00  0.00    +0.000 A 
ATOM     10  C   UNL     1       3.757   4.606  17.299  0.00  0.00    +0.000 A 
ATOM     11  C   UNL     1       4.385   3.736  16.405  0.00  0.00    +0.000 A 
ATOM     12  C   UNL     1       5.544   4.178  15.816  0.00  0.00    +0.000 A 
ATOM     13  C   UNL     1       6.149   5.356  16.192  0.00  0.00    +0.000 A 
ATOM     14  C   UNL     1       5.597   6.194  17.126  0.00  0.00    +0.000 A 
ATOM     15  O   UNL     1       7.229   5.651  15.417  0.00  0.00    +0.000 OA
ATOM     16  C   UNL     1       6.977   4.737  14.333  0.00  0.00    +0.000 C 
ATOM     17  O   UNL     1       6.167   3.615  14.743  0.00  0.00    +0.000 OA
ENDBRANCH   5   9
BRANCH   1  22
ATOM     18  C   UNL     1      -0.801  11.492  22.400  0.00  0.00    +0.000 A 
ATOM     19  C   UNL     1      -0.992  10.418  23.268  0.00  0.00    +0.000 A 
ATOM     20  C   UNL     1      -0.692   9.117  22.869  0.00  0.00    +0.000 A 
ATOM     21  C   UNL     1      -0.135   8.888  21.616  0.00  0.00    +0.000 A 
ATOM     22  C   UNL     1       0.131   9.947  20.742  0.00  0.00    +0.000 A 
ATOM     23  C   UNL     1      -0.199  11.248  21.155  0.00  0.00    +0.000 A 
BRANCH  18  28
ATOM     24  O   UNL     1      -5.749  12.149  24.223  0.00  0.00    +0.000 OA
ATOM     25  C   UNL     1      -4.763  12.867  24.066  0.00  0.00    +0.000 C 
ATOM     26  C   UNL     1      -3.361  12.284  23.844  0.00  0.00    +0.000 C 
ATOM     27  N   UNL     1      -2.298  13.222  23.467  0.00  0.00    +0.000 N 
ATOM     28  C   UNL     1      -1.136  12.908  22.754  0.00  0.00    +0.000 C 
ATOM     29  O   UNL     1      -0.355  13.785  22.388  0.00  0.00    +0.000 OA
ATOM     30  C   UNL     1      -2.429  14.569  24.022  0.00  0.00    +0.000 C 
ATOM     31  C   UNL     1      -3.830  15.126  23.777  0.00  0.00    +0.000 C 
ATOM     32  N   UNL     1      -4.868  14.223  24.226  0.00  0.00    +0.000 N 
ATOM     33  H   UNL     1      -5.820  14.556  24.322  0.00  0.00    +0.000 HD
ENDBRANCH  18  28
ENDBRANCH   1  22
TORSDOF 3
ENDMDL
MODEL 9
REMARK VINA RESULT:      -9.6      3.866      5.270
REMARK  Name = 
REMARK  3 active torsions:
REMARK  status: ('A' for Active; 'I' for Inactive)
REMARK    1  A    between atoms: C_5  and  C_7
REMARK    2  A    between atoms: C_11  and  N_12
REMARK    3  A    between atoms: C_16  and  C_17
REMARK                            x       y       z     vdW  Elec       q    Type
REMARK                         _______ _______ _______ _____ _____    ______ ____
ROOT
ATOM      1  N   UNL     1       1.426   6.973  21.050  0.00  0.00    +0.000 N 
ATOM      2  C   UNL     1       1.333   8.256  20.538  0.00  0.00    +0.000 A 
ATOM      3  N   UNL     1       1.438   8.497  19.224  0.00  0.00    +0.000 NA
ATOM      4  C   UNL     1       1.298   9.765  18.801  0.00  0.00    +0.000 A 
ATOM      5  C   UNL     1       1.064  10.825  19.643  0.00  0.00    +0.000 A 
ATOM      6  C   UNL     1       1.014  10.468  20.982  0.00  0.00    +0.000 A 
ATOM      7  N   UNL     1       1.139   9.213  21.451  0.00  0.00    +0.000 NA
ATOM      8  H   UNL     1       1.335   7.011  22.054  0.00  0.00    +0.000 HD
ENDROOT
BRANCH   5   9
ATOM      9  C   UNL     1       0.726  12.176  19.202  0.00  0.00    +0.000 A 
ATOM     10  C   UNL     1      -0.471  12.794  19.652  0.00  0.00    +0.000 A 
ATOM     11  C   UNL     1      -0.641  14.179  19.582  0.00  0.00    +0.000 A 
ATOM     12  C   UNL     1       0.412  14.911  19.092  0.00  0.00    +0.000 A 
ATOM     13  C   UNL     1       1.527  14.312  18.552  0.00  0.00    +0.000 A 
ATOM     14  C   UNL     1       1.688  12.950  18.534  0.00  0.00    +0.000 A 
ATOM     15  O   UNL     1       2.488  15.217  18.217  0.00  0.00    +0.000 OA
ATOM     16  C   UNL     1       1.983  16.352  18.945  0.00  0.00    +0.000 C 
ATOM     17  O   UNL     1       0.561  16.262  19.177  0.00  0.00    +0.000 OA
ENDBRANCH   5   9
BRANCH   1  22
ATOM     18  C   UNL     1       3.416   4.194  19.517  0.00  0.00    +0.000 A 
ATOM     19  C   UNL     1       2.391   3.266  19.336  0.00  0.00    +0.000 A 
ATOM     20  C   UNL     1       1.097   3.541  19.770  0.00  0.00    +0.000 A 
ATOM     21  C   UNL     1       0.802   4.777  20.333  0.00  0.00    +0.000 A 
ATOM     22  C   UNL     1       1.790   5.758  20.472  0.00  0.00    +0.000 A 
ATOM     23  C   UNL     1       3.093   5.452  20.047  0.00  0.00    +0.000 A 
BRANCH  18  28
ATOM     24  O   UNL     1       4.939   6.963  15.245  0.00  0.00    +0.000 OA
ATOM     25  C   UNL     1       5.480   6.195  16.038  0.00  0.00    +0.000 C 
ATOM     26  C   UNL     1       4.841   5.836  17.386  0.00  0.00    +0.000 C 
ATOM     27  N   UNL     1       5.469   4.759  18.160  0.00  0.00    +0.000 N 
ATOM     28  C   UNL     1       4.834   3.946  19.104  0.00  0.00    +0.000 C 
ATOM     29  O   UNL     1       5.418   2.994  19.622  0.00  0.00    +0.000 OA
ATOM     30  C   UNL     1       6.918   4.645  18.006  0.00  0.00    +0.000 C 
ATOM     31  C   UNL     1       7.312   4.627  16.531  0.00  0.00    +0.000 C 
ATOM     32  N   UNL     1       6.749   5.739  15.797  0.00  0.00    +0.000 N 
ATOM     33  H   UNL     1       7.102   5.966  14.875  0.00  0.00    +0.000 HD
ENDBRANCH  18  28
ENDBRANCH   1  22
TORSDOF 3
ENDMDL
