MODEL 1
REMARK VINA RESULT:      -6.6      0.000      0.000
REMARK  Name = 
REMARK  2 active torsions:
REMARK  status: ('A' for Active; 'I' for Inactive)
REMARK    1  A    between atoms: C_1  and  N_2
REMARK    2  A    between atoms: C_23  and  C_24
REMARK                            x       y       z     vdW  Elec       q    Type
REMARK                         _______ _______ _______ _____ _____    ______ ____
ROOT
ATOM      1  C   UNL     1       3.219  15.489  21.527  0.00  0.00    +0.000 C 
ATOM      2  N   UNL     1       4.437  14.837  20.895  0.00  0.00    +0.000 NA
ATOM      3  C   UNL     1       4.587  15.703  19.673  0.00  0.00    +0.000 C 
ATOM      4  C   UNL     1       5.081  17.118  20.029  0.00  0.00    +0.000 C 
ATOM      5  O   UNL     1       4.412  18.127  20.169  0.00  0.00    +0.000 OA
ATOM      6  N   UNL     1       6.414  16.949  20.224  0.00  0.00    +0.000 N 
ATOM      7  C   UNL     1       7.375  17.510  21.036  0.00  0.00    +0.000 A 
ATOM      8  C   UNL     1       7.106  18.376  22.083  0.00  0.00    +0.000 A 
ATOM      9  C   UNL     1       8.092  18.535  23.054  0.00  0.00    +0.000 A 
ATOM     10  C   UNL     1       9.316  17.843  22.953  0.00  0.00    +0.000 A 
ATOM     11  C   UNL     1       9.597  16.981  21.857  0.00  0.00    +0.000 A 
ATOM     12  C   UNL     1      10.772  16.209  21.674  0.00  0.00    +0.000 A 
ATOM     13  C   UNL     1      10.937  15.339  20.559  0.00  0.00    +0.000 A 
ATOM     14  C   UNL     1       9.940  15.227  19.598  0.00  0.00    +0.000 A 
ATOM     15  C   UNL     1       8.825  16.008  19.758  0.00  0.00    +0.000 A 
ATOM     16  C   UNL     1       8.613  16.852  20.879  0.00  0.00    +0.000 A 
ATOM     17  O   UNL     1       9.888  14.444  18.449  0.00  0.00    +0.000 OA
ATOM     18  C   UNL     1      10.066  13.068  18.639  0.00  0.00    +0.000 A 
ATOM     19  C   UNL     1       9.273  12.469  19.598  0.00  0.00    +0.000 A 
ATOM     20  C   UNL     1       9.949  12.180  20.750  0.00  0.00    +0.000 A 
ATOM     21  C   UNL     1      11.350  11.872  20.628  0.00  0.00    +0.000 A 
ATOM     22  C   UNL     1      12.001  11.969  19.371  0.00  0.00    +0.000 A 
ATOM     23  C   UNL     1      11.337  12.622  18.331  0.00  0.00    +0.000 A 
ATOM     24  C   UNL     1       9.261  12.646  22.040  0.00  0.00    +0.000 C 
ATOM     25  N   UNL     1       7.683  12.807  22.051  0.00  0.00    +0.000 N 
ATOM     26  C   UNL     1       7.234  12.083  23.167  0.00  0.00    +0.000 A 
ATOM     27  N   UNL     1       7.340  12.901  24.195  0.00  0.00    +0.000 NA
ATOM     28  C   UNL     1       7.346  14.174  23.638  0.00  0.00    +0.000 A 
ATOM     29  C   UNL     1       6.964  14.084  22.272  0.00  0.00    +0.000 A 
ATOM     30  C   UNL     1       5.472  14.732  22.020  0.00  0.00    +0.000 C 
ATOM     31  H   UNL     1       6.641  15.983  20.047  0.00  0.00    +0.000 HD
ENDROOT
BRANCH  23  32
ATOM     32  C   UNL     1      11.922  13.014  17.067  0.00  0.00    +0.000 C 
ATOM     33  N   UNL     1      12.327  13.373  16.057  0.00  0.00    +0.000 NA
ENDBRANCH  23  32
TORSDOF 1
ENDMDL
MODEL 2
REMARK VINA RESULT:      -6.2      7.538     10.298
REMARK  Name = 
REMARK  2 active torsions:
REMARK  status: ('A' for Active; 'I' for Inactive)
REMARK    1  A    between atoms: C_1  and  N_2
REMARK    2  A    between atoms: C_23  and  C_24
REMARK                            x       y       z     vdW  Elec       q    Type
REMARK                         _______ _______ _______ _____ _____    ______ ____
ROOT
ATOM      1  C   UNL     1      -6.151  12.395  21.754  0.00  0.00    +0.000 C 
ATOM      2  N   UNL     1      -4.957  12.940  20.990  0.00  0.00    +0.000 NA
ATOM      3  C   UNL     1      -5.459  14.325  20.683  0.00  0.00    +0.000 C 
ATOM      4  C   UNL     1      -5.513  15.209  21.944  0.00  0.00    +0.000 C 
ATOM      5  O   UNL     1      -6.481  15.448  22.645  0.00  0.00    +0.000 OA
ATOM      6  N   UNL     1      -4.220  15.584  22.124  0.00  0.00    +0.000 N 
ATOM      7  C   UNL     1      -3.410  15.855  23.204  0.00  0.00    +0.000 A 
ATOM      8  C   UNL     1      -3.756  15.611  24.522  0.00  0.00    +0.000 A 
ATOM      9  C   UNL     1      -2.723  15.541  25.455  0.00  0.00    +0.000 A 
ATOM     10  C   UNL     1      -1.384  15.728  25.056  0.00  0.00    +0.000 A 
ATOM     11  C   UNL     1      -1.040  16.012  23.706  0.00  0.00    +0.000 A 
ATOM     12  C   UNL     1       0.270  16.177  23.188  0.00  0.00    +0.000 A 
ATOM     13  C   UNL     1       0.509  16.414  21.804  0.00  0.00    +0.000 A 
ATOM     14  C   UNL     1      -0.550  16.502  20.910  0.00  0.00    +0.000 A 
ATOM     15  C   UNL     1      -1.816  16.384  21.423  0.00  0.00    +0.000 A 
ATOM     16  C   UNL     1      -2.085  16.105  22.788  0.00  0.00    +0.000 A 
ATOM     17  O   UNL     1      -0.545  16.718  19.536  0.00  0.00    +0.000 OA
ATOM     18  C   UNL     1       0.214  15.817  18.778  0.00  0.00    +0.000 A 
ATOM     19  C   UNL     1      -0.022  14.473  18.998  0.00  0.00    +0.000 A 
ATOM     20  C   UNL     1       0.960  13.869  19.730  0.00  0.00    +0.000 A 
ATOM     21  C   UNL     1       2.295  14.388  19.592  0.00  0.00    +0.000 A 
ATOM     22  C   UNL     1       2.540  15.542  18.802  0.00  0.00    +0.000 A 
ATOM     23  C   UNL     1       1.446  16.310  18.397  0.00  0.00    +0.000 A 
ATOM     24  C   UNL     1       0.462  13.030  20.914  0.00  0.00    +0.000 C 
ATOM     25  N   UNL     1      -0.996  12.408  20.853  0.00  0.00    +0.000 N 
ATOM     26  C   UNL     1      -0.840  11.043  21.143  0.00  0.00    +0.000 A 
ATOM     27  N   UNL     1      -0.839  10.950  22.458  0.00  0.00    +0.000 NA
ATOM     28  C   UNL     1      -1.479  12.103  22.896  0.00  0.00    +0.000 A 
ATOM     29  C   UNL     1      -2.098  12.740  21.786  0.00  0.00    +0.000 A 
ATOM     30  C   UNL     1      -3.737  12.629  21.866  0.00  0.00    +0.000 C 
ATOM     31  H   UNL     1      -3.669  15.194  21.375  0.00  0.00    +0.000 HD
ENDROOT
BRANCH  23  32
ATOM     32  C   UNL     1       1.512  17.623  17.792  0.00  0.00    +0.000 C 
ATOM     33  N   UNL     1       1.540  18.630  17.247  0.00  0.00    +0.000 NA
ENDBRANCH  23  32
TORSDOF 1
ENDMDL
MODEL 3
REMARK VINA RESULT:      -6.1      5.603      9.596
REMARK  Name = 
REMARK  2 active torsions:
REMARK  status: ('A' for Active; 'I' for Inactive)
REMARK    1  A    between atoms: C_1  and  N_2
REMARK    2  A    between atoms: C_23  and  C_24
REMARK                            x       y       z     vdW  Elec       q    Type
REMARK                         _______ _______ _______ _____ _____    ______ ____
ROOT
ATOM      1  C   UNL     1      -0.458   8.827  23.477  0.00  0.00    +0.000 C 
ATOM      2  N   UNL     1       0.290  10.125  23.229  0.00  0.00    +0.000 NA
ATOM      3  C   UNL     1       1.467   9.600  22.452  0.00  0.00    +0.000 C 
ATOM      4  C   UNL     1       1.064   9.141  21.037  0.00  0.00    +0.000 C 
ATOM      5  O   UNL     1       0.823   8.008  20.663  0.00  0.00    +0.000 OA
ATOM      6  N   UNL     1       0.968  10.304  20.342  0.00  0.00    +0.000 N 
ATOM      7  C   UNL     1       0.191  10.779  19.309  0.00  0.00    +0.000 A 
ATOM      8  C   UNL     1      -0.919  10.124  18.802  0.00  0.00    +0.000 A 
ATOM      9  C   UNL     1      -1.831  10.881  18.068  0.00  0.00    +0.000 A 
ATOM     10  C   UNL     1      -1.609  12.256  17.850  0.00  0.00    +0.000 A 
ATOM     11  C   UNL     1      -0.449  12.913  18.346  0.00  0.00    +0.000 A 
ATOM     12  C   UNL     1      -0.145  14.292  18.220  0.00  0.00    +0.000 A 
ATOM     13  C   UNL     1       1.026  14.861  18.796  0.00  0.00    +0.000 A 
ATOM     14  C   UNL     1       1.924  14.068  19.500  0.00  0.00    +0.000 A 
ATOM     15  C   UNL     1       1.646  12.728  19.581  0.00  0.00    +0.000 A 
ATOM     16  C   UNL     1       0.467  12.139  19.055  0.00  0.00    +0.000 A 
ATOM     17  O   UNL     1       3.110  14.411  20.140  0.00  0.00    +0.000 OA
ATOM     18  C   UNL     1       3.012  15.417  21.109  0.00  0.00    +0.000 A 
ATOM     19  C   UNL     1       2.037  15.253  22.075  0.00  0.00    +0.000 A 
ATOM     20  C   UNL     1       0.952  16.060  21.885  0.00  0.00    +0.000 A 
ATOM     21  C   UNL     1       1.183  17.333  21.256  0.00  0.00    +0.000 A 
ATOM     22  C   UNL     1       2.473  17.673  20.771  0.00  0.00    +0.000 A 
ATOM     23  C   UNL     1       3.428  16.658  20.668  0.00  0.00    +0.000 A 
ATOM     24  C   UNL     1      -0.406  15.347  21.953  0.00  0.00    +0.000 C 
ATOM     25  N   UNL     1      -0.531  14.017  22.807  0.00  0.00    +0.000 N 
ATOM     26  C   UNL     1      -1.630  14.211  23.658  0.00  0.00    +0.000 A 
ATOM     27  N   UNL     1      -2.695  13.879  22.955  0.00  0.00    +0.000 NA
ATOM     28  C   UNL     1      -2.212  13.047  21.951  0.00  0.00    +0.000 A 
ATOM     29  C   UNL     1      -0.872  12.685  22.254  0.00  0.00    +0.000 A 
ATOM     30  C   UNL     1      -0.757  11.097  22.672  0.00  0.00    +0.000 C 
ATOM     31  H   UNL     1       1.215  11.064  20.958  0.00  0.00    +0.000 HD
ENDROOT
BRANCH  23  32
ATOM     32  C   UNL     1       4.703  16.763  19.992  0.00  0.00    +0.000 C 
ATOM     33  N   UNL     1       5.682  16.898  19.412  0.00  0.00    +0.000 NA
ENDBRANCH  23  32
TORSDOF 1
ENDMDL
MODEL 4
REMARK VINA RESULT:      -6.1      8.244     12.291
REMARK  Name = 
REMARK  2 active torsions:
REMARK  status: ('A' for Active; 'I' for Inactive)
REMARK    1  A    between atoms: C_1  and  N_2
REMARK    2  A    between atoms: C_23  and  C_24
REMARK                            x       y       z     vdW  Elec       q    Type
REMARK                         _______ _______ _______ _____ _____    ______ ____
ROOT
ATOM      1  C   UNL     1      -7.793  16.004  18.827  0.00  0.00    +0.000 C 
ATOM      2  N   UNL     1      -6.393  15.464  18.593  0.00  0.00    +0.000 NA
ATOM      3  C   UNL     1      -5.582  16.626  19.100  0.00  0.00    +0.000 C 
ATOM      4  C   UNL     1      -5.664  16.760  20.633  0.00  0.00    +0.000 C 
ATOM      5  O   UNL     1      -6.385  17.501  21.277  0.00  0.00    +0.000 OA
ATOM      6  N   UNL     1      -4.806  15.807  21.081  0.00  0.00    +0.000 N 
ATOM      7  C   UNL     1      -4.739  14.972  22.174  0.00  0.00    +0.000 A 
ATOM      8  C   UNL     1      -5.762  14.798  23.090  0.00  0.00    +0.000 A 
ATOM      9  C   UNL     1      -5.727  13.652  23.882  0.00  0.00    +0.000 A 
ATOM     10  C   UNL     1      -4.675  12.723  23.752  0.00  0.00    +0.000 A 
ATOM     11  C   UNL     1      -3.609  12.926  22.833  0.00  0.00    +0.000 A 
ATOM     12  C   UNL     1      -2.526  12.044  22.591  0.00  0.00    +0.000 A 
ATOM     13  C   UNL     1      -1.532  12.321  21.611  0.00  0.00    +0.000 A 
ATOM     14  C   UNL     1      -1.588  13.487  20.858  0.00  0.00    +0.000 A 
ATOM     15  C   UNL     1      -2.614  14.357  21.126  0.00  0.00    +0.000 A 
ATOM     16  C   UNL     1      -3.643  14.089  22.065  0.00  0.00    +0.000 A 
ATOM     17  O   UNL     1      -0.740  13.948  19.858  0.00  0.00    +0.000 OA
ATOM     18  C   UNL     1      -0.544  13.082  18.774  0.00  0.00    +0.000 A 
ATOM     19  C   UNL     1      -1.682  12.581  18.170  0.00  0.00    +0.000 A 
ATOM     20  C   UNL     1      -1.930  11.277  18.490  0.00  0.00    +0.000 A 
ATOM     21  C   UNL     1      -0.790  10.441  18.764  0.00  0.00    +0.000 A 
ATOM     22  C   UNL     1       0.517  10.993  18.793  0.00  0.00    +0.000 A 
ATOM     23  C   UNL     1       0.646  12.384  18.826  0.00  0.00    +0.000 A 
ATOM     24  C   UNL     1      -3.365  10.982  18.947  0.00  0.00    +0.000 C 
ATOM     25  N   UNL     1      -4.537  11.924  18.444  0.00  0.00    +0.000 N 
ATOM     26  C   UNL     1      -5.514  11.067  17.912  0.00  0.00    +0.000 A 
ATOM     27  N   UNL     1      -6.247  10.675  18.935  0.00  0.00    +0.000 NA
ATOM     28  C   UNL     1      -6.045  11.646  19.908  0.00  0.00    +0.000 A 
ATOM     29  C   UNL     1      -5.387  12.761  19.323  0.00  0.00    +0.000 A 
ATOM     30  C   UNL     1      -6.388  14.062  19.214  0.00  0.00    +0.000 C 
ATOM     31  H   UNL     1      -4.386  15.357  20.283  0.00  0.00    +0.000 HD
ENDROOT
BRANCH  23  32
ATOM     32  C   UNL     1       1.868  13.114  19.085  0.00  0.00    +0.000 C 
ATOM     33  N   UNL     1       2.808  13.709  19.360  0.00  0.00    +0.000 NA
ENDBRANCH  23  32
TORSDOF 1
ENDMDL
MODEL 5
REMARK VINA RESULT:      -6.0      3.281      6.781
REMARK  Name = 
REMARK  2 active torsions:
REMARK  status: ('A' for Active; 'I' for Inactive)
REMARK    1  A    between atoms: C_1  and  N_2
REMARK    2  A    between atoms: C_23  and  C_24
REMARK                            x       y       z     vdW  Elec       q    Type
REMARK                         _______ _______ _______ _____ _____    ______ ____
ROOT
ATOM      1  C   UNL     1       7.018  18.595  21.351  0.00  0.00    +0.000 C 
ATOM      2  N   UNL     1       6.587  17.687  22.490  0.00  0.00    +0.000 NA
ATOM      3  C   UNL     1       5.450  16.961  21.824  0.00  0.00    +0.000 C 
ATOM      4  C   UNL     1       5.948  15.976  20.748  0.00  0.00    +0.000 C 
ATOM      5  O   UNL     1       6.008  16.157  19.544  0.00  0.00    +0.000 OA
ATOM      6  N   UNL     1       6.371  14.906  21.468  0.00  0.00    +0.000 N 
ATOM      7  C   UNL     1       7.365  13.961  21.345  0.00  0.00    +0.000 A 
ATOM      8  C   UNL     1       8.382  14.013  20.407  0.00  0.00    +0.000 A 
ATOM      9  C   UNL     1       9.520  13.247  20.651  0.00  0.00    +0.000 A 
ATOM     10  C   UNL     1       9.610  12.445  21.807  0.00  0.00    +0.000 A 
ATOM     11  C   UNL     1       8.547  12.372  22.749  0.00  0.00    +0.000 A 
ATOM     12  C   UNL     1       8.545  11.634  23.960  0.00  0.00    +0.000 A 
ATOM     13  C   UNL     1       7.443  11.665  24.860  0.00  0.00    +0.000 A 
ATOM     14  C   UNL     1       6.315  12.421  24.569  0.00  0.00    +0.000 A 
ATOM     15  C   UNL     1       6.305  13.098  23.376  0.00  0.00    +0.000 A 
ATOM     16  C   UNL     1       7.404  13.122  22.480  0.00  0.00    +0.000 A 
ATOM     17  O   UNL     1       5.144  12.599  25.297  0.00  0.00    +0.000 OA
ATOM     18  C   UNL     1       5.304  13.070  26.606  0.00  0.00    +0.000 A 
ATOM     19  C   UNL     1       6.080  14.202  26.765  0.00  0.00    +0.000 A 
ATOM     20  C   UNL     1       7.321  13.936  27.271  0.00  0.00    +0.000 A 
ATOM     21  C   UNL     1       7.439  12.809  28.158  0.00  0.00    +0.000 A 
ATOM     22  C   UNL     1       6.324  11.966  28.403  0.00  0.00    +0.000 A 
ATOM     23  C   UNL     1       5.210  12.084  27.569  0.00  0.00    +0.000 A 
ATOM     24  C   UNL     1       8.485  14.575  26.502  0.00  0.00    +0.000 C 
ATOM     25  N   UNL     1       8.220  15.902  25.675  0.00  0.00    +0.000 N 
ATOM     26  C   UNL     1       9.206  16.812  26.088  0.00  0.00    +0.000 A 
ATOM     27  N   UNL     1      10.270  16.550  25.356  0.00  0.00    +0.000 NA
ATOM     28  C   UNL     1       9.777  15.894  24.234  0.00  0.00    +0.000 A 
ATOM     29  C   UNL     1       8.362  16.026  24.205  0.00  0.00    +0.000 A 
ATOM     30  C   UNL     1       7.875  17.019  22.987  0.00  0.00    +0.000 C 
ATOM     31  H   UNL     1       6.197  15.091  22.444  0.00  0.00    +0.000 HD
ENDROOT
BRANCH  23  32
ATOM     32  C   UNL     1       4.089  11.170  27.520  0.00  0.00    +0.000 C 
ATOM     33  N   UNL     1       3.252  10.390  27.473  0.00  0.00    +0.000 NA
ENDBRANCH  23  32
TORSDOF 1
ENDMDL
MODEL 6
REMARK VINA RESULT:      -5.9      2.357      6.198
REMARK  Name = 
REMARK  2 active torsions:
REMARK  status: ('A' for Active; 'I' for Inactive)
REMARK    1  A    between atoms: C_1  and  N_2
REMARK    2  A    between atoms: C_23  and  C_24
REMARK                            x       y       z     vdW  Elec       q    Type
REMARK                         _______ _______ _______ _____ _____    ______ ____
ROOT
ATOM      1  C   UNL     1      12.045  17.697  22.032  0.00  0.00    +0.000 C 
ATOM      2  N   UNL     1      10.563  17.637  21.705  0.00  0.00    +0.000 NA
ATOM      3  C   UNL     1      10.532  18.528  20.493  0.00  0.00    +0.000 C 
ATOM      4  C   UNL     1      11.197  17.862  19.272  0.00  0.00    +0.000 C 
ATOM      5  O   UNL     1      12.333  18.021  18.864  0.00  0.00    +0.000 OA
ATOM      6  N   UNL     1      10.244  17.006  18.820  0.00  0.00    +0.000 N 
ATOM      7  C   UNL     1      10.231  15.770  18.212  0.00  0.00    +0.000 A 
ATOM      8  C   UNL     1      11.346  14.963  18.059  0.00  0.00    +0.000 A 
ATOM      9  C   UNL     1      11.128  13.608  17.813  0.00  0.00    +0.000 A 
ATOM     10  C   UNL     1       9.817  13.100  17.714  0.00  0.00    +0.000 A 
ATOM     11  C   UNL     1       8.678  13.942  17.838  0.00  0.00    +0.000 A 
ATOM     12  C   UNL     1       7.321  13.535  17.795  0.00  0.00    +0.000 A 
ATOM     13  C   UNL     1       6.251  14.456  17.978  0.00  0.00    +0.000 A 
ATOM     14  C   UNL     1       6.508  15.803  18.196  0.00  0.00    +0.000 A 
ATOM     15  C   UNL     1       7.822  16.198  18.194  0.00  0.00    +0.000 A 
ATOM     16  C   UNL     1       8.910  15.299  18.058  0.00  0.00    +0.000 A 
ATOM     17  O   UNL     1       5.629  16.860  18.403  0.00  0.00    +0.000 OA
ATOM     18  C   UNL     1       4.730  16.708  19.466  0.00  0.00    +0.000 A 
ATOM     19  C   UNL     1       5.271  16.358  20.688  0.00  0.00    +0.000 A 
ATOM     20  C   UNL     1       5.060  15.048  21.014  0.00  0.00    +0.000 A 
ATOM     21  C   UNL     1       3.856  14.435  20.518  0.00  0.00    +0.000 A 
ATOM     22  C   UNL     1       2.991  15.149  19.648  0.00  0.00    +0.000 A 
ATOM     23  C   UNL     1       3.460  16.331  19.073  0.00  0.00    +0.000 A 
ATOM     24  C   UNL     1       6.310  14.286  21.473  0.00  0.00    +0.000 C 
ATOM     25  N   UNL     1       7.504  15.096  22.130  0.00  0.00    +0.000 N 
ATOM     26  C   UNL     1       7.790  14.443  23.339  0.00  0.00    +0.000 A 
ATOM     27  N   UNL     1       8.608  13.456  23.032  0.00  0.00    +0.000 NA
ATOM     28  C   UNL     1       9.177  13.830  21.821  0.00  0.00    +0.000 A 
ATOM     29  C   UNL     1       8.871  15.194  21.567  0.00  0.00    +0.000 A 
ATOM     30  C   UNL     1      10.207  16.146  21.700  0.00  0.00    +0.000 C 
ATOM     31  H   UNL     1       9.425  17.107  19.400  0.00  0.00    +0.000 HD
ENDROOT
BRANCH  23  32
ATOM     32  C   UNL     1       2.820  17.063  18.001  0.00  0.00    +0.000 C 
ATOM     33  N   UNL     1       2.383  17.663  17.129  0.00  0.00    +0.000 NA
ENDBRANCH  23  32
TORSDOF 1
ENDMDL
MODEL 7
REMARK VINA RESULT:      -5.9      5.629     10.379
REMARK  Name = 
REMARK  2 active torsions:
REMARK  status: ('A' for Active; 'I' for Inactive)
REMARK    1  A    between atoms: C_1  and  N_2
REMARK    2  A    between atoms: C_23  and  C_24
REMARK                            x       y       z     vdW  Elec       q    Type
REMARK                         _______ _______ _______ _____ _____    ______ ____
ROOT
ATOM      1  C   UNL     1       4.386  14.080  18.029  0.00  0.00    +0.000 C 
ATOM      2  N   UNL     1       3.479  14.131  19.246  0.00  0.00    +0.000 NA
ATOM      3  C   UNL     1       4.063  15.325  19.951  0.00  0.00    +0.000 C 
ATOM      4  C   UNL     1       3.747  16.640  19.213  0.00  0.00    +0.000 C 
ATOM      5  O   UNL     1       4.465  17.250  18.440  0.00  0.00    +0.000 OA
ATOM      6  N   UNL     1       2.463  16.904  19.568  0.00  0.00    +0.000 N 
ATOM      7  C   UNL     1       1.370  17.489  18.968  0.00  0.00    +0.000 A 
ATOM      8  C   UNL     1       1.306  17.836  17.629  0.00  0.00    +0.000 A 
ATOM      9  C   UNL     1       0.042  18.026  17.075  0.00  0.00    +0.000 A 
ATOM     10  C   UNL     1      -1.116  17.881  17.866  0.00  0.00    +0.000 A 
ATOM     11  C   UNL     1      -1.040  17.558  19.249  0.00  0.00    +0.000 A 
ATOM     12  C   UNL     1      -2.134  17.349  20.126  0.00  0.00    +0.000 A 
ATOM     13  C   UNL     1      -1.948  16.982  21.489  0.00  0.00    +0.000 A 
ATOM     14  C   UNL     1      -0.670  16.826  22.011  0.00  0.00    +0.000 A 
ATOM     15  C   UNL     1       0.384  17.071  21.169  0.00  0.00    +0.000 A 
ATOM     16  C   UNL     1       0.232  17.395  19.796  0.00  0.00    +0.000 A 
ATOM     17  O   UNL     1      -0.264  16.471  23.292  0.00  0.00    +0.000 OA
ATOM     18  C   UNL     1      -0.771  15.260  23.781  0.00  0.00    +0.000 A 
ATOM     19  C   UNL     1      -0.625  14.154  22.965  0.00  0.00    +0.000 A 
ATOM     20  C   UNL     1      -1.786  13.785  22.348  0.00  0.00    +0.000 A 
ATOM     21  C   UNL     1      -3.014  14.047  23.051  0.00  0.00    +0.000 A 
ATOM     22  C   UNL     1      -3.002  14.750  24.283  0.00  0.00    +0.000 A 
ATOM     23  C   UNL     1      -1.830  15.412  24.655  0.00  0.00    +0.000 A 
ATOM     24  C   UNL     1      -1.671  13.555  20.835  0.00  0.00    +0.000 C 
ATOM     25  N   UNL     1      -0.267  13.134  20.229  0.00  0.00    +0.000 N 
ATOM     26  C   UNL     1      -0.515  11.992  19.451  0.00  0.00    +0.000 A 
ATOM     27  N   UNL     1      -0.908  12.434  18.273  0.00  0.00    +0.000 NA
ATOM     28  C   UNL     1      -0.417  13.732  18.200  0.00  0.00    +0.000 A 
ATOM     29  C   UNL     1       0.510  13.938  19.257  0.00  0.00    +0.000 A 
ATOM     30  C   UNL     1       2.051  14.059  18.692  0.00  0.00    +0.000 C 
ATOM     31  H   UNL     1       2.156  16.185  20.206  0.00  0.00    +0.000 HD
ENDROOT
BRANCH  23  32
ATOM     32  C   UNL     1      -1.700  16.355  25.745  0.00  0.00    +0.000 C 
ATOM     33  N   UNL     1      -1.542  17.136  26.568  0.00  0.00    +0.000 NA
ENDBRANCH  23  32
TORSDOF 1
ENDMDL
MODEL 8
REMARK VINA RESULT:      -5.8      2.681      4.777
REMARK  Name = 
REMARK  2 active torsions:
REMARK  status: ('A' for Active; 'I' for Inactive)
REMARK    1  A    between atoms: C_1  and  N_2
REMARK    2  A    between atoms: C_23  and  C_24
REMARK                            x       y       z     vdW  Elec       q    Type
REMARK                         _______ _______ _______ _____ _____    ______ ____
ROOT
ATOM      1  C   UNL     1      10.193  18.572  24.552  0.00  0.00    +0.000 C 
ATOM      2  N   UNL     1      10.397  17.361  23.658  0.00  0.00    +0.000 NA
ATOM      3  C   UNL     1       9.499  16.374  24.354  0.00  0.00    +0.000 C 
ATOM      4  C   UNL     1       8.008  16.717  24.161  0.00  0.00    +0.000 C 
ATOM      5  O   UNL     1       7.277  17.315  24.930  0.00  0.00    +0.000 OA
ATOM      6  N   UNL     1       7.739  16.267  22.909  0.00  0.00    +0.000 N 
ATOM      7  C   UNL     1       6.916  16.653  21.873  0.00  0.00    +0.000 A 
ATOM      8  C   UNL     1       6.212  17.845  21.837  0.00  0.00    +0.000 A 
ATOM      9  C   UNL     1       5.765  18.289  20.594  0.00  0.00    +0.000 A 
ATOM     10  C   UNL     1       6.017  17.534  19.431  0.00  0.00    +0.000 A 
ATOM     11  C   UNL     1       6.712  16.294  19.482  0.00  0.00    +0.000 A 
ATOM     12  C   UNL     1       7.054  15.475  18.376  0.00  0.00    +0.000 A 
ATOM     13  C   UNL     1       7.795  14.270  18.531  0.00  0.00    +0.000 A 
ATOM     14  C   UNL     1       8.201  13.847  19.790  0.00  0.00    +0.000 A 
ATOM     15  C   UNL     1       7.830  14.621  20.860  0.00  0.00    +0.000 A 
ATOM     16  C   UNL     1       7.130  15.849  20.734  0.00  0.00    +0.000 A 
ATOM     17  O   UNL     1       8.928  12.723  20.166  0.00  0.00    +0.000 OA
ATOM     18  C   UNL     1      10.176  12.568  19.549  0.00  0.00    +0.000 A 
ATOM     19  C   UNL     1      11.025  13.657  19.588  0.00  0.00    +0.000 A 
ATOM     20  C   UNL     1      11.106  14.318  18.395  0.00  0.00    +0.000 A 
ATOM     21  C   UNL     1      10.938  13.535  17.199  0.00  0.00    +0.000 A 
ATOM     22  C   UNL     1      10.602  12.158  17.281  0.00  0.00    +0.000 A 
ATOM     23  C   UNL     1      10.175  11.655  18.512  0.00  0.00    +0.000 A 
ATOM     24  C   UNL     1      10.923  15.839  18.482  0.00  0.00    +0.000 C 
ATOM     25  N   UNL     1      11.286  16.578  19.838  0.00  0.00    +0.000 N 
ATOM     26  C   UNL     1      12.144  17.629  19.482  0.00  0.00    +0.000 A 
ATOM     27  N   UNL     1      11.363  18.630  19.127  0.00  0.00    +0.000 NA
ATOM     28  C   UNL     1      10.144  18.362  19.738  0.00  0.00    +0.000 A 
ATOM     29  C   UNL     1      10.319  17.316  20.684  0.00  0.00    +0.000 A 
ATOM     30  C   UNL     1      10.186  17.872  22.228  0.00  0.00    +0.000 C 
ATOM     31  H   UNL     1       8.574  15.840  22.538  0.00  0.00    +0.000 HD
ENDROOT
BRANCH  23  32
ATOM     32  C   UNL     1       9.582  10.354  18.734  0.00  0.00    +0.000 C 
ATOM     33  N   UNL     1       9.044   9.357  18.906  0.00  0.00    +0.000 NA
ENDBRANCH  23  32
TORSDOF 1
ENDMDL
MODEL 9
REMARK VINA RESULT:      -5.8      2.317      6.266
REMARK  Name = 
REMARK  2 active torsions:
REMARK  status: ('A' for Active; 'I' for Inactive)
REMARK    1  A    between atoms: C_1  and  N_2
REMARK    2  A    between atoms: C_23  and  C_24
REMARK                            x       y       z     vdW  Elec       q    Type
REMARK                         _______ _______ _______ _____ _____    ______ ____
ROOT
ATOM      1  C   UNL     1       9.950  17.306  23.697  0.00  0.00    +0.000 C 
ATOM      2  N   UNL     1       8.575  17.328  23.051  0.00  0.00    +0.000 NA
ATOM      3  C   UNL     1       8.777  18.439  22.057  0.00  0.00    +0.000 C 
ATOM      4  C   UNL     1       9.709  18.017  20.904  0.00  0.00    +0.000 C 
ATOM      5  O   UNL     1      10.901  18.241  20.791  0.00  0.00    +0.000 OA
ATOM      6  N   UNL     1       8.903  17.277  20.099  0.00  0.00    +0.000 N 
ATOM      7  C   UNL     1       9.061  16.184  19.276  0.00  0.00    +0.000 A 
ATOM      8  C   UNL     1      10.207  15.410  19.215  0.00  0.00    +0.000 A 
ATOM      9  C   UNL     1      10.090  14.132  18.671  0.00  0.00    +0.000 A 
ATOM     10  C   UNL     1       8.848  13.667  18.193  0.00  0.00    +0.000 A 
ATOM     11  C   UNL     1       7.683  14.482  18.228  0.00  0.00    +0.000 A 
ATOM     12  C   UNL     1       6.380  14.106  17.814  0.00  0.00    +0.000 A 
ATOM     13  C   UNL     1       5.267  14.985  17.935  0.00  0.00    +0.000 A 
ATOM     14  C   UNL     1       5.429  16.261  18.460  0.00  0.00    +0.000 A 
ATOM     15  C   UNL     1       6.699  16.634  18.819  0.00  0.00    +0.000 A 
ATOM     16  C   UNL     1       7.819  15.767  18.751  0.00  0.00    +0.000 A 
ATOM     17  O   UNL     1       4.492  17.267  18.672  0.00  0.00    +0.000 OA
ATOM     18  C   UNL     1       3.391  16.920  19.464  0.00  0.00    +0.000 A 
ATOM     19  C   UNL     1       3.668  16.331  20.684  0.00  0.00    +0.000 A 
ATOM     20  C   UNL     1       3.434  14.986  20.697  0.00  0.00    +0.000 A 
ATOM     21  C   UNL     1       2.385  14.495  19.843  0.00  0.00    +0.000 A 
ATOM     22  C   UNL     1       1.704  15.374  18.961  0.00  0.00    +0.000 A 
ATOM     23  C   UNL     1       2.248  16.641  18.740  0.00  0.00    +0.000 A 
ATOM     24  C   UNL     1       4.580  14.134  21.259  0.00  0.00    +0.000 C 
ATOM     25  N   UNL     1       5.579  14.787  22.304  0.00  0.00    +0.000 N 
ATOM     26  C   UNL     1       5.619  13.907  23.396  0.00  0.00    +0.000 A 
ATOM     27  N   UNL     1       6.515  12.990  23.089  0.00  0.00    +0.000 NA
ATOM     28  C   UNL     1       7.319  13.588  22.126  0.00  0.00    +0.000 A 
ATOM     29  C   UNL     1       7.031  14.978  22.080  0.00  0.00    +0.000 A 
ATOM     30  C   UNL     1       8.276  15.871  22.681  0.00  0.00    +0.000 C 
ATOM     31  H   UNL     1       7.976  17.272  20.496  0.00  0.00    +0.000 HD
ENDROOT
BRANCH  23  32
ATOM     32  C   UNL     1       1.830  17.575  17.718  0.00  0.00    +0.000 C 
ATOM     33  N   UNL     1       1.456  18.259  16.879  0.00  0.00    +0.000 NA
ENDBRANCH  23  32
TORSDOF 1
ENDMDL
