MODEL 1
REMARK VINA RESULT:      -5.1      0.000      0.000
REMARK  Name = 
REMARK  1 active torsions:
REMARK  status: ('A' for Active; 'I' for Inactive)
REMARK    1  A    between atoms: C_6  and  O_7
REMARK                            x       y       z     vdW  Elec       q    Type
REMARK                         _______ _______ _______ _____ _____    ______ ____
ROOT
ATOM      1  O   UNL     1       1.090   4.278  17.197  0.00  0.00    +0.000 OA
ATOM      2  C   UNL     1       1.487   3.984  18.316  0.00  0.00    +0.000 C 
ATOM      3  C   UNL     1       2.130   4.967  19.248  0.00  0.00    +0.000 C 
ATOM      4 BR   UNL     1       2.845   6.526  18.511  0.00  0.00    +0.000 Br
ATOM      5  C   UNL     1       2.159   4.733  20.571  0.00  0.00    +0.000 C 
ATOM      6  C   UNL     1       1.589   3.508  21.221  0.00  0.00    +0.000 C 
ATOM      7  C   UNL     1       1.360   2.348  20.306  0.00  0.00    +0.000 C 
ATOM      8  O   UNL     1       2.463   2.013  19.446  0.00  0.00    +0.000 OA
ATOM      9  C   UNL     1       1.298   2.604  18.828  0.00  0.00    +0.000 C 
ENDROOT
BRANCH   6  10
ATOM     10  O   UNL     1       2.474   3.110  22.256  0.00  0.00    +0.000 OA
ATOM     11  H   UNL     1       3.091   3.847  22.403  0.00  0.00    +0.000 HD
ENDBRANCH   6  10
TORSDOF 1
ENDMDL
MODEL 2
REMARK VINA RESULT:      -5.0      2.040      2.040
REMARK  Name = 
REMARK  1 active torsions:
REMARK  status: ('A' for Active; 'I' for Inactive)
REMARK    1  A    between atoms: C_6  and  O_7
REMARK                            x       y       z     vdW  Elec       q    Type
REMARK                         _______ _______ _______ _____ _____    ______ ____
ROOT
ATOM      1  O   UNL     1       1.153   4.350  17.313  0.00  0.00    +0.000 OA
ATOM      2  C   UNL     1       2.126   3.843  17.855  0.00  0.00    +0.000 C 
ATOM      3  C   UNL     1       3.201   4.639  18.532  0.00  0.00    +0.000 C 
ATOM      4 BR   UNL     1       3.366   6.442  18.079  0.00  0.00    +0.000 Br
ATOM      5  C   UNL     1       3.995   4.066  19.453  0.00  0.00    +0.000 C 
ATOM      6  C   UNL     1       3.901   2.629  19.868  0.00  0.00    +0.000 C 
ATOM      7  C   UNL     1       3.170   1.736  18.915  0.00  0.00    +0.000 C 
ATOM      8  O   UNL     1       3.561   1.854  17.537  0.00  0.00    +0.000 OA
ATOM      9  C   UNL     1       2.260   2.366  17.902  0.00  0.00    +0.000 C 
ENDROOT
BRANCH   6  10
ATOM     10  O   UNL     1       5.220   2.136  20.039  0.00  0.00    +0.000 OA
ATOM     11  H   UNL     1       5.248   1.692  20.905  0.00  0.00    +0.000 HD
ENDBRANCH   6  10
TORSDOF 1
ENDMDL
MODEL 3
REMARK VINA RESULT:      -4.9      4.914      6.111
REMARK  Name = 
REMARK  1 active torsions:
REMARK  status: ('A' for Active; 'I' for Inactive)
REMARK    1  A    between atoms: C_6  and  O_7
REMARK                            x       y       z     vdW  Elec       q    Type
REMARK                         _______ _______ _______ _____ _____    ______ ____
ROOT
ATOM      1  O   UNL     1       6.582   5.276  19.797  0.00  0.00    +0.000 OA
ATOM      2  C   UNL     1       6.407   4.969  18.626  0.00  0.00    +0.000 C 
ATOM      3  C   UNL     1       5.232   4.170  18.148  0.00  0.00    +0.000 C 
ATOM      4 BR   UNL     1       4.303   3.152  19.407  0.00  0.00    +0.000 Br
ATOM      5  C   UNL     1       4.855   4.217  16.859  0.00  0.00    +0.000 C 
ATOM      6  C   UNL     1       5.552   5.027  15.807  0.00  0.00    +0.000 C 
ATOM      7  C   UNL     1       6.944   5.453  16.150  0.00  0.00    +0.000 C 
ATOM      8  O   UNL     1       7.800   4.416  16.658  0.00  0.00    +0.000 OA
ATOM      9  C   UNL     1       7.365   5.431  17.590  0.00  0.00    +0.000 C 
ENDROOT
BRANCH   6  10
ATOM     10  O   UNL     1       5.587   4.258  14.615  0.00  0.00    +0.000 OA
ATOM     11  H   UNL     1       5.977   4.821  13.925  0.00  0.00    +0.000 HD
ENDBRANCH   6  10
TORSDOF 1
ENDMDL
MODEL 4
REMARK VINA RESULT:      -4.9      4.691      5.765
REMARK  Name = 
REMARK  1 active torsions:
REMARK  status: ('A' for Active; 'I' for Inactive)
REMARK    1  A    between atoms: C_6  and  O_7
REMARK                            x       y       z     vdW  Elec       q    Type
REMARK                         _______ _______ _______ _____ _____    ______ ____
ROOT
ATOM      1  O   UNL     1       4.321   5.213  19.654  0.00  0.00    +0.000 OA
ATOM      2  C   UNL     1       5.085   5.036  18.715  0.00  0.00    +0.000 C 
ATOM      3  C   UNL     1       4.657   4.460  17.399  0.00  0.00    +0.000 C 
ATOM      4 BR   UNL     1       3.069   3.481  17.353  0.00  0.00    +0.000 Br
ATOM      5  C   UNL     1       5.389   4.672  16.292  0.00  0.00    +0.000 C 
ATOM      6  C   UNL     1       6.664   5.460  16.264  0.00  0.00    +0.000 C 
ATOM      7  C   UNL     1       7.325   5.651  17.593  0.00  0.00    +0.000 C 
ATOM      8  O   UNL     1       7.468   4.461  18.387  0.00  0.00    +0.000 OA
ATOM      9  C   UNL     1       6.508   5.443  18.834  0.00  0.00    +0.000 C 
ENDROOT
BRANCH   6  10
ATOM     10  O   UNL     1       7.568   4.801  15.392  0.00  0.00    +0.000 OA
ATOM     11  H   UNL     1       8.087   4.183  15.934  0.00  0.00    +0.000 HD
ENDBRANCH   6  10
TORSDOF 1
ENDMDL
MODEL 5
REMARK VINA RESULT:      -4.9      4.466      5.202
REMARK  Name = 
REMARK  1 active torsions:
REMARK  status: ('A' for Active; 'I' for Inactive)
REMARK    1  A    between atoms: C_6  and  O_7
REMARK                            x       y       z     vdW  Elec       q    Type
REMARK                         _______ _______ _______ _____ _____    ______ ____
ROOT
ATOM      1  O   UNL     1       8.016   4.420  16.869  0.00  0.00    +0.000 OA
ATOM      2  C   UNL     1       6.823   4.513  17.126  0.00  0.00    +0.000 C 
ATOM      3  C   UNL     1       5.739   4.158  16.153  0.00  0.00    +0.000 C 
ATOM      4 BR   UNL     1       6.181   4.100  14.341  0.00  0.00    +0.000 Br
ATOM      5  C   UNL     1       4.501   3.868  16.589  0.00  0.00    +0.000 C 
ATOM      6  C   UNL     1       4.091   3.885  18.031  0.00  0.00    +0.000 C 
ATOM      7  C   UNL     1       4.998   4.650  18.943  0.00  0.00    +0.000 C 
ATOM      8  O   UNL     1       5.359   5.966  18.491  0.00  0.00    +0.000 OA
ATOM      9  C   UNL     1       6.391   4.954  18.476  0.00  0.00    +0.000 C 
ENDROOT
BRANCH   6  10
ATOM     10  O   UNL     1       2.787   4.438  18.109  0.00  0.00    +0.000 OA
ATOM     11  H   UNL     1       2.265   4.039  17.393  0.00  0.00    +0.000 HD
ENDBRANCH   6  10
TORSDOF 1
ENDMDL
MODEL 6
REMARK VINA RESULT:      -4.9      2.725      3.331
REMARK  Name = 
REMARK  1 active torsions:
REMARK  status: ('A' for Active; 'I' for Inactive)
REMARK    1  A    between atoms: C_6  and  O_7
REMARK                            x       y       z     vdW  Elec       q    Type
REMARK                         _______ _______ _______ _____ _____    ______ ____
ROOT
ATOM      1  O   UNL     1       0.416   2.418  18.546  0.00  0.00    +0.000 OA
ATOM      2  C   UNL     1       1.572   2.808  18.629  0.00  0.00    +0.000 C 
ATOM      3  C   UNL     1       2.357   2.796  19.906  0.00  0.00    +0.000 C 
ATOM      4 BR   UNL     1       1.408   2.708  21.511  0.00  0.00    +0.000 Br
ATOM      5  C   UNL     1       3.701   2.821  19.880  0.00  0.00    +0.000 C 
ATOM      6  C   UNL     1       4.517   2.877  18.624  0.00  0.00    +0.000 C 
ATOM      7  C   UNL     1       3.780   3.334  17.404  0.00  0.00    +0.000 C 
ATOM      8  O   UNL     1       2.997   4.529  17.568  0.00  0.00    +0.000 OA
ATOM      9  C   UNL     1       2.280   3.283  17.414  0.00  0.00    +0.000 C 
ENDROOT
BRANCH   6  10
ATOM     10  O   UNL     1       5.612   3.750  18.852  0.00  0.00    +0.000 OA
ATOM     11  H   UNL     1       5.266   4.658  18.815  0.00  0.00    +0.000 HD
ENDBRANCH   6  10
TORSDOF 1
ENDMDL
MODEL 7
REMARK VINA RESULT:      -4.8      2.267      3.139
REMARK  Name = 
REMARK  1 active torsions:
REMARK  status: ('A' for Active; 'I' for Inactive)
REMARK    1  A    between atoms: C_6  and  O_7
REMARK                            x       y       z     vdW  Elec       q    Type
REMARK                         _______ _______ _______ _____ _____    ______ ____
ROOT
ATOM      1  O   UNL     1       5.886   4.166  19.035  0.00  0.00    +0.000 OA
ATOM      2  C   UNL     1       4.707   3.859  18.923  0.00  0.00    +0.000 C 
ATOM      3  C   UNL     1       3.729   4.632  18.089  0.00  0.00    +0.000 C 
ATOM      4 BR   UNL     1       4.159   6.396  17.655  0.00  0.00    +0.000 Br
ATOM      5  C   UNL     1       2.598   4.052  17.654  0.00  0.00    +0.000 C 
ATOM      6  C   UNL     1       2.206   2.638  17.959  0.00  0.00    +0.000 C 
ATOM      7  C   UNL     1       2.914   2.016  19.121  0.00  0.00    +0.000 C 
ATOM      8  O   UNL     1       2.954   2.812  20.317  0.00  0.00    +0.000 OA
ATOM      9  C   UNL     1       4.194   2.640  19.595  0.00  0.00    +0.000 C 
ENDROOT
BRANCH   6  10
ATOM     10  O   UNL     1       0.809   2.614  18.206  0.00  0.00    +0.000 OA
ATOM     11  H   UNL     1       0.404   2.085  17.497  0.00  0.00    +0.000 HD
ENDBRANCH   6  10
TORSDOF 1
ENDMDL
MODEL 8
REMARK VINA RESULT:      -4.8      2.373      3.650
REMARK  Name = 
REMARK  1 active torsions:
REMARK  status: ('A' for Active; 'I' for Inactive)
REMARK    1  A    between atoms: C_6  and  O_7
REMARK                            x       y       z     vdW  Elec       q    Type
REMARK                         _______ _______ _______ _____ _____    ______ ____
ROOT
ATOM      1  O   UNL     1       4.717   2.357  20.272  0.00  0.00    +0.000 OA
ATOM      2  C   UNL     1       3.794   2.710  19.551  0.00  0.00    +0.000 C 
ATOM      3  C   UNL     1       2.522   3.308  20.072  0.00  0.00    +0.000 C 
ATOM      4 BR   UNL     1       2.091   3.014  21.863  0.00  0.00    +0.000 Br
ATOM      5  C   UNL     1       1.742   4.053  19.270  0.00  0.00    +0.000 C 
ATOM      6  C   UNL     1       2.042   4.336  17.829  0.00  0.00    +0.000 C 
ATOM      7  C   UNL     1       3.028   3.409  17.189  0.00  0.00    +0.000 C 
ATOM      8  O   UNL     1       2.787   2.008  17.403  0.00  0.00    +0.000 OA
ATOM      9  C   UNL     1       3.923   2.595  18.076  0.00  0.00    +0.000 C 
ENDROOT
BRANCH   6  10
ATOM     10  O   UNL     1       0.822   4.277  17.107  0.00  0.00    +0.000 OA
ATOM     11  H   UNL     1       0.761   3.386  16.723  0.00  0.00    +0.000 HD
ENDBRANCH   6  10
TORSDOF 1
ENDMDL
MODEL 9
REMARK VINA RESULT:      -4.8      2.035      3.398
REMARK  Name = 
REMARK  1 active torsions:
REMARK  status: ('A' for Active; 'I' for Inactive)
REMARK    1  A    between atoms: C_6  and  O_7
REMARK                            x       y       z     vdW  Elec       q    Type
REMARK                         _______ _______ _______ _____ _____    ______ ____
ROOT
ATOM      1  O   UNL     1       5.007   2.214  20.223  0.00  0.00    +0.000 OA
ATOM      2  C   UNL     1       4.084   2.735  19.612  0.00  0.00    +0.000 C 
ATOM      3  C   UNL     1       4.240   3.973  18.780  0.00  0.00    +0.000 C 
ATOM      4 BR   UNL     1       5.720   5.061  19.108  0.00  0.00    +0.000 Br
ATOM      5  C   UNL     1       3.350   4.260  17.814  0.00  0.00    +0.000 C 
ATOM      6  C   UNL     1       2.152   3.418  17.496  0.00  0.00    +0.000 C 
ATOM      7  C   UNL     1       1.740   2.462  18.571  0.00  0.00    +0.000 C 
ATOM      8  O   UNL     1       1.644   3.023  19.891  0.00  0.00    +0.000 OA
ATOM      9  C   UNL     1       2.737   2.113  19.637  0.00  0.00    +0.000 C 
ENDROOT
BRANCH   6  10
ATOM     10  O   UNL     1       1.068   4.288  17.215  0.00  0.00    +0.000 OA
ATOM     11  H   UNL     1       0.309   3.729  16.972  0.00  0.00    +0.000 HD
ENDBRANCH   6  10
TORSDOF 1
ENDMDL
