MODEL 1
REMARK VINA RESULT:      -7.4      0.000      0.000
REMARK  Name = 
REMARK  6 active torsions:
REMARK  status: ('A' for Active; 'I' for Inactive)
REMARK    1  A    between atoms: C_1  and  O_2
REMARK    2  A    between atoms: O_2  and  C_3
REMARK    3  A    between atoms: C_6  and  C_7
REMARK    4  A    between atoms: C_14  and  C_15
REMARK    5  A    between atoms: C_17  and  O_18
REMARK    6  A    between atoms: O_18  and  C_19
REMARK                            x       y       z     vdW  Elec       q    Type
REMARK                         _______ _______ _______ _____ _____    ______ ____
ROOT
ATOM      1  C   UNL     1       5.611   4.811  18.587  0.00  0.00    +0.000 C 
ATOM      2  N   UNL     1       5.543   3.499  19.258  0.00  0.00    +0.000 N 
ATOM      3  C   UNL     1       4.274   3.132  19.702  0.00  0.00    +0.000 C 
ATOM      4  O   UNL     1       3.949   2.092  20.238  0.00  0.00    +0.000 OA
ATOM      5  C   UNL     1       3.479   4.252  19.365  0.00  0.00    +0.000 A 
ATOM      6  N   UNL     1       2.191   4.633  19.378  0.00  0.00    +0.000 N 
ATOM      7  N   UNL     1       2.030   5.860  18.813  0.00  0.00    +0.000 NA
ATOM      8  C   UNL     1       3.269   6.225  18.420  0.00  0.00    +0.000 A 
ATOM      9  C   UNL     1       3.495   7.478  17.661  0.00  0.00    +0.000 C 
ATOM     10  C   UNL     1       4.199   5.232  18.748  0.00  0.00    +0.000 A 
ATOM     11  H   UNL     1       6.330   2.871  19.336  0.00  0.00    +0.000 HD
ATOM     12  H   UNL     1       1.373   4.124  19.700  0.00  0.00    +0.000 HD
ENDROOT
BRANCH   1  16
ATOM     13  C   UNL     1       6.576   4.398  14.366  0.00  0.00    +0.000 A 
ATOM     14  C   UNL     1       5.485   3.727  14.895  0.00  0.00    +0.000 A 
ATOM     15  C   UNL     1       5.184   3.836  16.250  0.00  0.00    +0.000 A 
ATOM     16  C   UNL     1       5.933   4.668  17.109  0.00  0.00    +0.000 A 
ATOM     17  C   UNL     1       7.045   5.345  16.563  0.00  0.00    +0.000 A 
ATOM     18  C   UNL     1       7.359   5.197  15.199  0.00  0.00    +0.000 A 
BRANCH  13  20
ATOM     19  C   UNL     1       5.827   3.357  12.366  0.00  0.00    +0.000 C 
ATOM     20  O   UNL     1       6.768   4.190  13.029  0.00  0.00    +0.000 OA
ENDBRANCH  13  20
BRANCH  17  21
ATOM     21  O   UNL     1       7.771   6.118  17.435  0.00  0.00    +0.000 OA
ATOM     22  C   UNL     1       7.512   7.523  17.436  0.00  0.00    +0.000 C 
ENDBRANCH  17  21
ENDBRANCH   1  16
TORSDOF 3
ENDMDL
MODEL 2
REMARK VINA RESULT:      -7.4      2.444      5.745
REMARK  Name = 
REMARK  6 active torsions:
REMARK  status: ('A' for Active; 'I' for Inactive)
REMARK    1  A    between atoms: C_1  and  O_2
REMARK    2  A    between atoms: O_2  and  C_3
REMARK    3  A    between atoms: C_6  and  C_7
REMARK    4  A    between atoms: C_14  and  C_15
REMARK    5  A    between atoms: C_17  and  O_18
REMARK    6  A    between atoms: O_18  and  C_19
REMARK                            x       y       z     vdW  Elec       q    Type
REMARK                         _______ _______ _______ _____ _____    ______ ____
ROOT
ATOM      1  C   UNL     1       5.312   6.505  17.185  0.00  0.00    +0.000 C 
ATOM      2  N   UNL     1       4.974   6.153  15.793  0.00  0.00    +0.000 N 
ATOM      3  C   UNL     1       5.805   5.198  15.211  0.00  0.00    +0.000 C 
ATOM      4  O   UNL     1       5.711   4.710  14.103  0.00  0.00    +0.000 OA
ATOM      5  C   UNL     1       6.760   4.942  16.222  0.00  0.00    +0.000 A 
ATOM      6  N   UNL     1       7.796   4.122  16.468  0.00  0.00    +0.000 N 
ATOM      7  N   UNL     1       8.288   4.305  17.723  0.00  0.00    +0.000 NA
ATOM      8  C   UNL     1       7.501   5.259  18.267  0.00  0.00    +0.000 A 
ATOM      9  C   UNL     1       7.660   5.667  19.682  0.00  0.00    +0.000 C 
ATOM     10  C   UNL     1       6.528   5.672  17.350  0.00  0.00    +0.000 A 
ATOM     11  H   UNL     1       4.164   6.512  15.308  0.00  0.00    +0.000 HD
ATOM     12  H   UNL     1       8.197   3.400  15.878  0.00  0.00    +0.000 HD
ENDROOT
BRANCH   1  16
ATOM     13  C   UNL     1       2.217   5.186  19.940  0.00  0.00    +0.000 A 
ATOM     14  C   UNL     1       3.301   4.364  19.674  0.00  0.00    +0.000 A 
ATOM     15  C   UNL     1       4.283   4.771  18.775  0.00  0.00    +0.000 A 
ATOM     16  C   UNL     1       4.243   6.039  18.157  0.00  0.00    +0.000 A 
ATOM     17  C   UNL     1       3.133   6.867  18.431  0.00  0.00    +0.000 A 
ATOM     18  C   UNL     1       2.129   6.429  19.314  0.00  0.00    +0.000 A 
BRANCH  13  20
ATOM     19  C   UNL     1       1.518   3.307  21.217  0.00  0.00    +0.000 C 
ATOM     20  O   UNL     1       1.319   4.659  20.826  0.00  0.00    +0.000 OA
ENDBRANCH  13  20
BRANCH  17  21
ATOM     21  O   UNL     1       3.108   8.079  17.786  0.00  0.00    +0.000 OA
ATOM     22  C   UNL     1       1.909   8.848  17.886  0.00  0.00    +0.000 C 
ENDBRANCH  17  21
ENDBRANCH   1  16
TORSDOF 3
ENDMDL
MODEL 3
REMARK VINA RESULT:      -7.4      2.550      5.520
REMARK  Name = 
REMARK  6 active torsions:
REMARK  status: ('A' for Active; 'I' for Inactive)
REMARK    1  A    between atoms: C_1  and  O_2
REMARK    2  A    between atoms: O_2  and  C_3
REMARK    3  A    between atoms: C_6  and  C_7
REMARK    4  A    between atoms: C_14  and  C_15
REMARK    5  A    between atoms: C_17  and  O_18
REMARK    6  A    between atoms: O_18  and  C_19
REMARK                            x       y       z     vdW  Elec       q    Type
REMARK                         _______ _______ _______ _____ _____    ______ ____
ROOT
ATOM      1  C   UNL     1       5.042   5.942  16.580  0.00  0.00    +0.000 C 
ATOM      2  N   UNL     1       5.057   5.535  15.163  0.00  0.00    +0.000 N 
ATOM      3  C   UNL     1       6.154   4.762  14.786  0.00  0.00    +0.000 C 
ATOM      4  O   UNL     1       6.373   4.267  13.699  0.00  0.00    +0.000 OA
ATOM      5  C   UNL     1       6.922   4.693  15.971  0.00  0.00    +0.000 A 
ATOM      6  N   UNL     1       8.027   4.091  16.441  0.00  0.00    +0.000 N 
ATOM      7  N   UNL     1       8.218   4.362  17.760  0.00  0.00    +0.000 NA
ATOM      8  C   UNL     1       7.172   5.143  18.108  0.00  0.00    +0.000 A 
ATOM      9  C   UNL     1       6.969   5.571  19.512  0.00  0.00    +0.000 C 
ATOM     10  C   UNL     1       6.338   5.362  17.006  0.00  0.00    +0.000 A 
ATOM     11  H   UNL     1       4.304   5.731  14.518  0.00  0.00    +0.000 HD
ATOM     12  H   UNL     1       8.667   3.462  15.966  0.00  0.00    +0.000 HD
ENDROOT
BRANCH   1  16
ATOM     13  C   UNL     1       1.777   4.064  18.755  0.00  0.00    +0.000 A 
ATOM     14  C   UNL     1       2.584   3.301  17.925  0.00  0.00    +0.000 A 
ATOM     15  C   UNL     1       3.616   3.901  17.208  0.00  0.00    +0.000 A 
ATOM     16  C   UNL     1       3.911   5.274  17.344  0.00  0.00    +0.000 A 
ATOM     17  C   UNL     1       3.082   6.043  18.188  0.00  0.00    +0.000 A 
ATOM     18  C   UNL     1       2.020   5.431  18.879  0.00  0.00    +0.000 A 
BRANCH  13  20
ATOM     19  C   UNL     1       1.053   2.939  20.718  0.00  0.00    +0.000 C 
ATOM     20  O   UNL     1       0.793   3.355  19.385  0.00  0.00    +0.000 OA
ENDBRANCH  13  20
BRANCH  17  21
ATOM     21  O   UNL     1       3.376   7.382  18.269  0.00  0.00    +0.000 OA
ATOM     22  C   UNL     1       2.370   8.300  17.837  0.00  0.00    +0.000 C 
ENDBRANCH  17  21
ENDBRANCH   1  16
TORSDOF 3
ENDMDL
MODEL 4
REMARK VINA RESULT:      -7.4      1.715      1.882
REMARK  Name = 
REMARK  6 active torsions:
REMARK  status: ('A' for Active; 'I' for Inactive)
REMARK    1  A    between atoms: C_1  and  O_2
REMARK    2  A    between atoms: O_2  and  C_3
REMARK    3  A    between atoms: C_6  and  C_7
REMARK    4  A    between atoms: C_14  and  C_15
REMARK    5  A    between atoms: C_17  and  O_18
REMARK    6  A    between atoms: O_18  and  C_19
REMARK                            x       y       z     vdW  Elec       q    Type
REMARK                         _______ _______ _______ _____ _____    ______ ____
ROOT
ATOM      1  C   UNL     1       4.652   4.162  18.960  0.00  0.00    +0.000 C 
ATOM      2  N   UNL     1       5.389   3.176  19.773  0.00  0.00    +0.000 N 
ATOM      3  C   UNL     1       4.687   2.006  20.054  0.00  0.00    +0.000 C 
ATOM      4  O   UNL     1       5.084   1.031  20.660  0.00  0.00    +0.000 OA
ATOM      5  C   UNL     1       3.425   2.235  19.457  0.00  0.00    +0.000 A 
ATOM      6  N   UNL     1       2.273   1.587  19.219  0.00  0.00    +0.000 N 
ATOM      7  N   UNL     1       1.418   2.348  18.484  0.00  0.00    +0.000 NA
ATOM      8  C   UNL     1       2.091   3.495  18.248  0.00  0.00    +0.000 A 
ATOM      9  C   UNL     1       1.521   4.553  17.382  0.00  0.00    +0.000 C 
ATOM     10  C   UNL     1       3.358   3.450  18.842  0.00  0.00    +0.000 A 
ATOM     11  H   UNL     1       6.352   3.293  20.053  0.00  0.00    +0.000 HD
ATOM     12  H   UNL     1       2.004   0.640  19.470  0.00  0.00    +0.000 HD
ENDROOT
BRANCH   1  16
ATOM     13  C   UNL     1       6.457   4.606  15.028  0.00  0.00    +0.000 A 
ATOM     14  C   UNL     1       5.125   4.242  15.140  0.00  0.00    +0.000 A 
ATOM     15  C   UNL     1       4.547   4.076  16.396  0.00  0.00    +0.000 A 
ATOM     16  C   UNL     1       5.270   4.325  17.582  0.00  0.00    +0.000 A 
ATOM     17  C   UNL     1       6.627   4.691  17.458  0.00  0.00    +0.000 A 
ATOM     18  C   UNL     1       7.208   4.821  16.183  0.00  0.00    +0.000 A 
BRANCH  13  20
ATOM     19  C   UNL     1       6.428   3.752  12.811  0.00  0.00    +0.000 C 
ATOM     20  O   UNL     1       6.902   4.717  13.740  0.00  0.00    +0.000 OA
ENDBRANCH  13  20
BRANCH  17  21
ATOM     21  O   UNL     1       7.309   4.892  18.633  0.00  0.00    +0.000 OA
ATOM     22  C   UNL     1       7.867   6.188  18.853  0.00  0.00    +0.000 C 
ENDBRANCH  17  21
ENDBRANCH   1  16
TORSDOF 3
ENDMDL
MODEL 5
REMARK VINA RESULT:      -7.1      1.497      1.589
REMARK  Name = 
REMARK  6 active torsions:
REMARK  status: ('A' for Active; 'I' for Inactive)
REMARK    1  A    between atoms: C_1  and  O_2
REMARK    2  A    between atoms: O_2  and  C_3
REMARK    3  A    between atoms: C_6  and  C_7
REMARK    4  A    between atoms: C_14  and  C_15
REMARK    5  A    between atoms: C_17  and  O_18
REMARK    6  A    between atoms: O_18  and  C_19
REMARK                            x       y       z     vdW  Elec       q    Type
REMARK                         _______ _______ _______ _____ _____    ______ ____
ROOT
ATOM      1  C   UNL     1       4.756   3.980  18.696  0.00  0.00    +0.000 C 
ATOM      2  N   UNL     1       4.883   2.541  18.997  0.00  0.00    +0.000 N 
ATOM      3  C   UNL     1       3.698   1.815  18.899  0.00  0.00    +0.000 C 
ATOM      4  O   UNL     1       3.547   0.619  19.051  0.00  0.00    +0.000 OA
ATOM      5  C   UNL     1       2.740   2.803  18.574  0.00  0.00    +0.000 A 
ATOM      6  N   UNL     1       1.442   2.899  18.241  0.00  0.00    +0.000 N 
ATOM      7  N   UNL     1       1.100   4.181  17.941  0.00  0.00    +0.000 NA
ATOM      8  C   UNL     1       2.244   4.886  18.076  0.00  0.00    +0.000 A 
ATOM      9  C   UNL     1       2.303   6.326  17.734  0.00  0.00    +0.000 C 
ATOM     10  C   UNL     1       3.293   4.044  18.466  0.00  0.00    +0.000 A 
ATOM     11  H   UNL     1       5.764   2.088  19.192  0.00  0.00    +0.000 HD
ATOM     12  H   UNL     1       0.746   2.165  18.150  0.00  0.00    +0.000 HD
ENDROOT
BRANCH   1  16
ATOM     13  C   UNL     1       6.886   5.018  15.049  0.00  0.00    +0.000 A 
ATOM     14  C   UNL     1       5.540   4.691  14.994  0.00  0.00    +0.000 A 
ATOM     15  C   UNL     1       4.858   4.336  16.155  0.00  0.00    +0.000 A 
ATOM     16  C   UNL     1       5.488   4.351  17.418  0.00  0.00    +0.000 A 
ATOM     17  C   UNL     1       6.859   4.681  17.463  0.00  0.00    +0.000 A 
ATOM     18  C   UNL     1       7.545   5.004  16.278  0.00  0.00    +0.000 A 
BRANCH  13  20
ATOM     19  C   UNL     1       7.135   4.464  12.752  0.00  0.00    +0.000 C 
ATOM     20  O   UNL     1       7.437   5.330  13.838  0.00  0.00    +0.000 OA
ENDBRANCH  13  20
BRANCH  17  21
ATOM     21  O   UNL     1       7.448   4.652  18.703  0.00  0.00    +0.000 OA
ATOM     22  C   UNL     1       7.925   5.891  19.230  0.00  0.00    +0.000 C 
ENDBRANCH  17  21
ENDBRANCH   1  16
TORSDOF 3
ENDMDL
MODEL 6
REMARK VINA RESULT:      -7.0      1.758      2.282
REMARK  Name = 
REMARK  6 active torsions:
REMARK  status: ('A' for Active; 'I' for Inactive)
REMARK    1  A    between atoms: C_1  and  O_2
REMARK    2  A    between atoms: O_2  and  C_3
REMARK    3  A    between atoms: C_6  and  C_7
REMARK    4  A    between atoms: C_14  and  C_15
REMARK    5  A    between atoms: C_17  and  O_18
REMARK    6  A    between atoms: O_18  and  C_19
REMARK                            x       y       z     vdW  Elec       q    Type
REMARK                         _______ _______ _______ _____ _____    ______ ____
ROOT
ATOM      1  C   UNL     1       4.422   4.312  18.945  0.00  0.00    +0.000 C 
ATOM      2  N   UNL     1       5.265   3.361  19.693  0.00  0.00    +0.000 N 
ATOM      3  C   UNL     1       4.670   2.128  19.952  0.00  0.00    +0.000 C 
ATOM      4  O   UNL     1       5.166   1.167  20.505  0.00  0.00    +0.000 OA
ATOM      5  C   UNL     1       3.372   2.275  19.409  0.00  0.00    +0.000 A 
ATOM      6  N   UNL     1       2.267   1.544  19.186  0.00  0.00    +0.000 N 
ATOM      7  N   UNL     1       1.327   2.259  18.512  0.00  0.00    +0.000 NA
ATOM      8  C   UNL     1       1.896   3.465  18.298  0.00  0.00    +0.000 A 
ATOM      9  C   UNL     1       1.211   4.504  17.494  0.00  0.00    +0.000 C 
ATOM     10  C   UNL     1       3.184   3.502  18.844  0.00  0.00    +0.000 A 
ATOM     11  H   UNL     1       6.226   3.545  19.943  0.00  0.00    +0.000 HD
ATOM     12  H   UNL     1       2.085   0.571  19.409  0.00  0.00    +0.000 HD
ENDROOT
BRANCH   1  16
ATOM     13  C   UNL     1       6.017   5.098  14.976  0.00  0.00    +0.000 A 
ATOM     14  C   UNL     1       5.971   3.799  15.458  0.00  0.00    +0.000 A 
ATOM     15  C   UNL     1       5.483   3.544  16.736  0.00  0.00    +0.000 A 
ATOM     16  C   UNL     1       4.971   4.574  17.553  0.00  0.00    +0.000 A 
ATOM     17  C   UNL     1       5.026   5.894  17.056  0.00  0.00    +0.000 A 
ATOM     18  C   UNL     1       5.555   6.143  15.776  0.00  0.00    +0.000 A 
BRANCH  13  20
ATOM     19  C   UNL     1       6.585   4.025  12.934  0.00  0.00    +0.000 C 
ATOM     20  O   UNL     1       6.535   5.210  13.716  0.00  0.00    +0.000 OA
ENDBRANCH  13  20
BRANCH  17  21
ATOM     21  O   UNL     1       4.552   6.876  17.891  0.00  0.00    +0.000 OA
ATOM     22  C   UNL     1       3.355   7.549  17.496  0.00  0.00    +0.000 C 
ENDBRANCH  17  21
ENDBRANCH   1  16
TORSDOF 3
ENDMDL
MODEL 7
REMARK VINA RESULT:      -6.8      2.210      4.079
REMARK  Name = 
REMARK  6 active torsions:
REMARK  status: ('A' for Active; 'I' for Inactive)
REMARK    1  A    between atoms: C_1  and  O_2
REMARK    2  A    between atoms: O_2  and  C_3
REMARK    3  A    between atoms: C_6  and  C_7
REMARK    4  A    between atoms: C_14  and  C_15
REMARK    5  A    between atoms: C_17  and  O_18
REMARK    6  A    between atoms: O_18  and  C_19
REMARK                            x       y       z     vdW  Elec       q    Type
REMARK                         _______ _______ _______ _____ _____    ______ ____
ROOT
ATOM      1  C   UNL     1       4.144   3.110  17.578  0.00  0.00    +0.000 C 
ATOM      2  N   UNL     1       3.006   3.688  16.838  0.00  0.00    +0.000 N 
ATOM      3  C   UNL     1       1.827   3.801  17.572  0.00  0.00    +0.000 C 
ATOM      4  O   UNL     1       0.772   4.282  17.209  0.00  0.00    +0.000 OA
ATOM      5  C   UNL     1       2.168   3.235  18.822  0.00  0.00    +0.000 A 
ATOM      6  N   UNL     1       1.638   3.055  20.043  0.00  0.00    +0.000 N 
ATOM      7  N   UNL     1       2.537   2.496  20.897  0.00  0.00    +0.000 NA
ATOM      8  C   UNL     1       3.666   2.354  20.169  0.00  0.00    +0.000 A 
ATOM      9  C   UNL     1       4.920   1.863  20.786  0.00  0.00    +0.000 C 
ATOM     10  C   UNL     1       3.466   2.816  18.863  0.00  0.00    +0.000 A 
ATOM     11  H   UNL     1       3.077   4.045  15.896  0.00  0.00    +0.000 HD
ATOM     12  H   UNL     1       0.719   3.313  20.389  0.00  0.00    +0.000 HD
ENDROOT
BRANCH   1  16
ATOM     13  C   UNL     1       7.275   6.065  18.194  0.00  0.00    +0.000 A 
ATOM     14  C   UNL     1       6.489   5.659  19.260  0.00  0.00    +0.000 A 
ATOM     15  C   UNL     1       5.470   4.730  19.065  0.00  0.00    +0.000 A 
ATOM     16  C   UNL     1       5.242   4.135  17.806  0.00  0.00    +0.000 A 
ATOM     17  C   UNL     1       6.044   4.558  16.725  0.00  0.00    +0.000 A 
ATOM     18  C   UNL     1       7.047   5.524  16.929  0.00  0.00    +0.000 A 
BRANCH  13  20
ATOM     19  C   UNL     1       8.095   8.280  17.932  0.00  0.00    +0.000 C 
ATOM     20  O   UNL     1       8.225   6.992  18.519  0.00  0.00    +0.000 OA
ENDBRANCH  13  20
BRANCH  17  21
ATOM     21  O   UNL     1       5.772   3.984  15.508  0.00  0.00    +0.000 OA
ATOM     22  C   UNL     1       6.588   4.376  14.403  0.00  0.00    +0.000 C 
ENDBRANCH  17  21
ENDBRANCH   1  16
TORSDOF 3
ENDMDL
MODEL 8
REMARK VINA RESULT:      -6.7      2.617      5.551
REMARK  Name = 
REMARK  6 active torsions:
REMARK  status: ('A' for Active; 'I' for Inactive)
REMARK    1  A    between atoms: C_1  and  O_2
REMARK    2  A    between atoms: O_2  and  C_3
REMARK    3  A    between atoms: C_6  and  C_7
REMARK    4  A    between atoms: C_14  and  C_15
REMARK    5  A    between atoms: C_17  and  O_18
REMARK    6  A    between atoms: O_18  and  C_19
REMARK                            x       y       z     vdW  Elec       q    Type
REMARK                         _______ _______ _______ _____ _____    ______ ____
ROOT
ATOM      1  C   UNL     1       5.056   4.635  18.569  0.00  0.00    +0.000 C 
ATOM      2  N   UNL     1       6.078   4.869  19.607  0.00  0.00    +0.000 N 
ATOM      3  C   UNL     1       7.381   4.991  19.130  0.00  0.00    +0.000 C 
ATOM      4  O   UNL     1       8.385   5.230  19.770  0.00  0.00    +0.000 OA
ATOM      5  C   UNL     1       7.237   4.782  17.739  0.00  0.00    +0.000 A 
ATOM      6  N   UNL     1       7.973   4.821  16.616  0.00  0.00    +0.000 N 
ATOM      7  N   UNL     1       7.209   4.599  15.512  0.00  0.00    +0.000 NA
ATOM      8  C   UNL     1       5.954   4.444  15.986  0.00  0.00    +0.000 A 
ATOM      9  C   UNL     1       4.803   4.280  15.068  0.00  0.00    +0.000 C 
ATOM     10  C   UNL     1       5.939   4.560  17.381  0.00  0.00    +0.000 A 
ATOM     11  H   UNL     1       5.859   5.003  20.584  0.00  0.00    +0.000 HD
ATOM     12  H   UNL     1       8.961   5.027  16.502  0.00  0.00    +0.000 HD
ENDROOT
BRANCH   1  16
ATOM     13  C   UNL     1       2.371   8.038  18.213  0.00  0.00    +0.000 A 
ATOM     14  C   UNL     1       3.405   7.875  17.304  0.00  0.00    +0.000 A 
ATOM     15  C   UNL     1       4.281   6.800  17.426  0.00  0.00    +0.000 A 
ATOM     16  C   UNL     1       4.118   5.821  18.429  0.00  0.00    +0.000 A 
ATOM     17  C   UNL     1       3.065   5.998  19.352  0.00  0.00    +0.000 A 
ATOM     18  C   UNL     1       2.208   7.108  19.239  0.00  0.00    +0.000 A 
BRANCH  13  20
ATOM     19  C   UNL     1       1.112   9.830  19.134  0.00  0.00    +0.000 C 
ATOM     20  O   UNL     1       1.597   9.142  17.989  0.00  0.00    +0.000 OA
ENDBRANCH  13  20
BRANCH  17  21
ATOM     21  O   UNL     1       2.956   5.045  20.336  0.00  0.00    +0.000 OA
ATOM     22  C   UNL     1       1.658   4.502  20.579  0.00  0.00    +0.000 C 
ENDBRANCH  17  21
ENDBRANCH   1  16
TORSDOF 3
ENDMDL
MODEL 9
REMARK VINA RESULT:      -6.5      2.844      4.057
REMARK  Name = 
REMARK  6 active torsions:
REMARK  status: ('A' for Active; 'I' for Inactive)
REMARK    1  A    between atoms: C_1  and  O_2
REMARK    2  A    between atoms: O_2  and  C_3
REMARK    3  A    between atoms: C_6  and  C_7
REMARK    4  A    between atoms: C_14  and  C_15
REMARK    5  A    between atoms: C_17  and  O_18
REMARK    6  A    between atoms: O_18  and  C_19
REMARK                            x       y       z     vdW  Elec       q    Type
REMARK                         _______ _______ _______ _____ _____    ______ ____
ROOT
ATOM      1  C   UNL     1       2.304   5.399  19.922  0.00  0.00    +0.000 C 
ATOM      2  N   UNL     1       2.661   4.842  21.241  0.00  0.00    +0.000 N 
ATOM      3  C   UNL     1       2.371   3.489  21.405  0.00  0.00    +0.000 C 
ATOM      4  O   UNL     1       2.608   2.792  22.371  0.00  0.00    +0.000 OA
ATOM      5  C   UNL     1       1.755   3.141  20.181  0.00  0.00    +0.000 A 
ATOM      6  N   UNL     1       1.288   2.055  19.542  0.00  0.00    +0.000 N 
ATOM      7  N   UNL     1       0.872   2.359  18.283  0.00  0.00    +0.000 NA
ATOM      8  C   UNL     1       1.120   3.679  18.146  0.00  0.00    +0.000 A 
ATOM      9  C   UNL     1       0.892   4.372  16.856  0.00  0.00    +0.000 C 
ATOM     10  C   UNL     1       1.682   4.196  19.320  0.00  0.00    +0.000 A 
ATOM     11  H   UNL     1       3.143   5.368  21.956  0.00  0.00    +0.000 HD
ATOM     12  H   UNL     1       1.254   1.090  19.857  0.00  0.00    +0.000 HD
ENDROOT
BRANCH   1  16
ATOM     13  C   UNL     1       5.825   6.551  17.644  0.00  0.00    +0.000 A 
ATOM     14  C   UNL     1       5.918   5.558  18.607  0.00  0.00    +0.000 A 
ATOM     15  C   UNL     1       4.800   5.201  19.355  0.00  0.00    +0.000 A 
ATOM     16  C   UNL     1       3.537   5.786  19.125  0.00  0.00    +0.000 A 
ATOM     17  C   UNL     1       3.452   6.799  18.146  0.00  0.00    +0.000 A 
ATOM     18  C   UNL     1       4.598   7.175  17.421  0.00  0.00    +0.000 A 
BRANCH  13  20
ATOM     19  C   UNL     1       7.781   7.890  17.496  0.00  0.00    +0.000 C 
ATOM     20  O   UNL     1       6.998   6.815  16.996  0.00  0.00    +0.000 OA
ENDBRANCH  13  20
BRANCH  17  21
ATOM     21  O   UNL     1       2.216   7.371  17.972  0.00  0.00    +0.000 OA
ATOM     22  C   UNL     1       2.169   8.788  17.796  0.00  0.00    +0.000 C 
ENDBRANCH  17  21
ENDBRANCH   1  16
TORSDOF 3
ENDMDL
