MODEL 1
REMARK VINA RESULT:      -9.2      0.000      0.000
REMARK  Name = 
REMARK  6 active torsions:
REMARK  status: ('A' for Active; 'I' for Inactive)
REMARK    1  A    between atoms: C_1  and  C_2
REMARK    2  A    between atoms: C_7  and  C_8
REMARK    3  A    between atoms: C_12  and  N_13
REMARK    4  A    between atoms: N_13  and  S_14
REMARK    5  A    between atoms: S_14  and  C_17
REMARK    6  A    between atoms: N_24  and  C_25
REMARK                            x       y       z     vdW  Elec       q    Type
REMARK                         _______ _______ _______ _____ _____    ______ ____
ROOT
ATOM      1  C   UNL     1       1.021   9.252  19.113  0.00  0.00    +0.000 A 
ATOM      2  C   UNL     1       1.652   9.199  17.861  0.00  0.00    +0.000 A 
ATOM      3  C   UNL     1       2.560   8.182  17.559  0.00  0.00    +0.000 A 
ATOM      4  C   UNL     1       2.861   7.213  18.512  0.00  0.00    +0.000 A 
ATOM      5  C   UNL     1       2.250   7.249  19.763  0.00  0.00    +0.000 A 
ATOM      6  C   UNL     1       1.337   8.266  20.069  0.00  0.00    +0.000 A 
ENDROOT
BRANCH   1  13
ATOM      7  C   UNL     1      -4.993  11.869  17.221  0.00  0.00    +0.000 C 
ATOM      8  C   UNL     1      -3.660  11.259  17.562  0.00  0.00    +0.000 C 
ATOM      9  O   UNL     1      -3.242  10.305  16.918  0.00  0.00    +0.000 OA
ATOM     10  N   UNL     1      -3.027  11.885  18.608  0.00  0.00    +0.000 N 
ATOM     11  C   UNL     1      -1.831  11.424  19.086  0.00  0.00    +0.000 A 
ATOM     12  N   UNL     1      -1.116  10.416  18.665  0.00  0.00    +0.000 NA
ATOM     13  C   UNL     1       0.028  10.280  19.433  0.00  0.00    +0.000 A 
ATOM     14  C   UNL     1       0.125  11.202  20.462  0.00  0.00    +0.000 A 
ATOM     15  S   UNL     1      -1.216  12.282  20.420  0.00  0.00    +0.000 S 
ATOM     16  H   UNL     1      -3.418  12.703  19.048  0.00  0.00    +0.000 HD
ENDBRANCH   1  13
BRANCH   5  17
ATOM     17  N   UNL     1       2.597   6.240  20.714  0.00  0.00    +0.000 N 
ATOM     18  H   UNL     1       3.572   6.262  21.018  0.00  0.00    +0.000 HD
BRANCH  17  19
ATOM     19  S   UNL     1       2.101   4.646  20.381  0.00  0.00    +0.000 S 
ATOM     20  O   UNL     1       2.425   3.861  21.557  0.00  0.00    +0.000 OA
ATOM     21  O   UNL     1       0.770   4.631  19.832  0.00  0.00    +0.000 OA
BRANCH  19  22
ATOM     22  C   UNL     1       3.250   4.161  19.115  0.00  0.00    +0.000 A 
ATOM     23  C   UNL     1       2.791   3.694  17.883  0.00  0.00    +0.000 A 
ATOM     24  C   UNL     1       3.672   3.597  16.795  0.00  0.00    +0.000 A 
ATOM     25  C   UNL     1       5.002   4.017  16.992  0.00  0.00    +0.000 A 
ATOM     26  C   UNL     1       5.487   4.356  18.260  0.00  0.00    +0.000 A 
ATOM     27  C   UNL     1       6.860   4.683  18.134  0.00  0.00    +0.000 A 
ATOM     28  C   UNL     1       7.091   4.839  16.792  0.00  0.00    +0.000 A 
ATOM     29  N   UNL     1       6.059   4.221  16.128  0.00  0.00    +0.000 N 
ATOM     30  C   UNL     1       6.156   3.873  14.732  0.00  0.00    +0.000 C 
ATOM     31  C   UNL     1       4.608   4.390  19.351  0.00  0.00    +0.000 A 
ENDBRANCH  19  22
ENDBRANCH  17  19
ENDBRANCH   5  17
TORSDOF 4
ENDMDL
MODEL 2
REMARK VINA RESULT:      -8.8      1.820      2.316
REMARK  Name = 
REMARK  6 active torsions:
REMARK  status: ('A' for Active; 'I' for Inactive)
REMARK    1  A    between atoms: C_1  and  C_2
REMARK    2  A    between atoms: C_7  and  C_8
REMARK    3  A    between atoms: C_12  and  N_13
REMARK    4  A    between atoms: N_13  and  S_14
REMARK    5  A    between atoms: S_14  and  C_17
REMARK    6  A    between atoms: N_24  and  C_25
REMARK                            x       y       z     vdW  Elec       q    Type
REMARK                         _______ _______ _______ _____ _____    ______ ____
ROOT
ATOM      1  C   UNL     1       1.043   9.161  18.958  0.00  0.00    +0.000 A 
ATOM      2  C   UNL     1       1.805   9.110  17.781  0.00  0.00    +0.000 A 
ATOM      3  C   UNL     1       2.770   8.118  17.595  0.00  0.00    +0.000 A 
ATOM      4  C   UNL     1       2.996   7.172  18.590  0.00  0.00    +0.000 A 
ATOM      5  C   UNL     1       2.254   7.206  19.768  0.00  0.00    +0.000 A 
ATOM      6  C   UNL     1       1.285   8.198  19.958  0.00  0.00    +0.000 A 
ENDROOT
BRANCH   1  13
ATOM      7  C   UNL     1      -2.053  13.052  23.636  0.00  0.00    +0.000 C 
ATOM      8  C   UNL     1      -1.343  12.145  22.666  0.00  0.00    +0.000 C 
ATOM      9  O   UNL     1      -0.424  11.435  23.054  0.00  0.00    +0.000 OA
ATOM     10  N   UNL     1      -1.844  12.215  21.390  0.00  0.00    +0.000 N 
ATOM     11  C   UNL     1      -1.279  11.499  20.371  0.00  0.00    +0.000 A 
ATOM     12  N   UNL     1      -0.271  10.671  20.413  0.00  0.00    +0.000 NA
ATOM     13  C   UNL     1      -0.009  10.162  19.153  0.00  0.00    +0.000 A 
ATOM     14  C   UNL     1      -0.835  10.665  18.163  0.00  0.00    +0.000 A 
ATOM     15  S   UNL     1      -1.988  11.747  18.843  0.00  0.00    +0.000 S 
ATOM     16  H   UNL     1      -2.644  12.787  21.167  0.00  0.00    +0.000 HD
ENDBRANCH   1  13
BRANCH   5  17
ATOM     17  N   UNL     1       2.528   6.222  20.768  0.00  0.00    +0.000 N 
ATOM     18  H   UNL     1       3.477   6.251  21.143  0.00  0.00    +0.000 HD
BRANCH  17  19
ATOM     19  S   UNL     1       2.054   4.619  20.440  0.00  0.00    +0.000 S 
ATOM     20  O   UNL     1       2.378   3.845  21.621  0.00  0.00    +0.000 OA
ATOM     21  O   UNL     1       0.727   4.586  19.881  0.00  0.00    +0.000 OA
BRANCH  19  22
ATOM     22  C   UNL     1       3.218   4.143  19.185  0.00  0.00    +0.000 A 
ATOM     23  C   UNL     1       2.774   3.693  17.941  0.00  0.00    +0.000 A 
ATOM     24  C   UNL     1       3.669   3.604  16.864  0.00  0.00    +0.000 A 
ATOM     25  C   UNL     1       4.999   4.014  17.085  0.00  0.00    +0.000 A 
ATOM     26  C   UNL     1       5.468   4.334  18.364  0.00  0.00    +0.000 A 
ATOM     27  C   UNL     1       6.845   4.655  18.261  0.00  0.00    +0.000 A 
ATOM     28  C   UNL     1       7.095   4.825  16.924  0.00  0.00    +0.000 A 
ATOM     29  N   UNL     1       6.070   4.221  16.239  0.00  0.00    +0.000 N 
ATOM     30  C   UNL     1       6.185   3.889  14.840  0.00  0.00    +0.000 C 
ATOM     31  C   UNL     1       4.574   4.361  19.443  0.00  0.00    +0.000 A 
ENDBRANCH  19  22
ENDBRANCH  17  19
ENDBRANCH   5  17
TORSDOF 4
ENDMDL
MODEL 3
REMARK VINA RESULT:      -8.7      1.998      2.096
REMARK  Name = 
REMARK  6 active torsions:
REMARK  status: ('A' for Active; 'I' for Inactive)
REMARK    1  A    between atoms: C_1  and  C_2
REMARK    2  A    between atoms: C_7  and  C_8
REMARK    3  A    between atoms: C_12  and  N_13
REMARK    4  A    between atoms: N_13  and  S_14
REMARK    5  A    between atoms: S_14  and  C_17
REMARK    6  A    between atoms: N_24  and  C_25
REMARK                            x       y       z     vdW  Elec       q    Type
REMARK                         _______ _______ _______ _____ _____    ______ ____
ROOT
ATOM      1  C   UNL     1       1.161   9.154  19.779  0.00  0.00    +0.000 A 
ATOM      2  C   UNL     1       1.487   9.161  18.414  0.00  0.00    +0.000 A 
ATOM      3  C   UNL     1       2.181   8.094  17.839  0.00  0.00    +0.000 A 
ATOM      4  C   UNL     1       2.572   7.014  18.624  0.00  0.00    +0.000 A 
ATOM      5  C   UNL     1       2.263   6.989  19.982  0.00  0.00    +0.000 A 
ATOM      6  C   UNL     1       1.565   8.054  20.562  0.00  0.00    +0.000 A 
ENDROOT
BRANCH   1  13
ATOM      7  C   UNL     1      -0.461  15.761  19.210  0.00  0.00    +0.000 C 
ATOM      8  C   UNL     1      -0.037  14.318  19.287  0.00  0.00    +0.000 C 
ATOM      9  O   UNL     1       0.693  13.849  18.423  0.00  0.00    +0.000 OA
ATOM     10  N   UNL     1      -0.537  13.663  20.385  0.00  0.00    +0.000 N 
ATOM     11  C   UNL     1      -0.297  12.330  20.580  0.00  0.00    +0.000 A 
ATOM     12  N   UNL     1       0.407  11.510  19.847  0.00  0.00    +0.000 NA
ATOM     13  C   UNL     1       0.389  10.238  20.392  0.00  0.00    +0.000 A 
ATOM     14  C   UNL     1      -0.379  10.130  21.539  0.00  0.00    +0.000 A 
ATOM     15  S   UNL     1      -1.038  11.664  21.959  0.00  0.00    +0.000 S 
ATOM     16  H   UNL     1      -1.087  14.141  21.081  0.00  0.00    +0.000 HD
ENDBRANCH   1  13
BRANCH   5  17
ATOM     17  N   UNL     1       2.693   5.864  20.752  0.00  0.00    +0.000 N 
ATOM     18  H   UNL     1       3.689   5.861  20.976  0.00  0.00    +0.000 HD
BRANCH  17  19
ATOM     19  S   UNL     1       2.181   4.322  20.242  0.00  0.00    +0.000 S 
ATOM     20  O   UNL     1       2.458   3.415  21.338  0.00  0.00    +0.000 OA
ATOM     21  O   UNL     1       0.866   4.391  19.659  0.00  0.00    +0.000 OA
BRANCH  19  22
ATOM     22  C   UNL     1       3.357   3.949  18.964  0.00  0.00    +0.000 A 
ATOM     23  C   UNL     1       2.927   3.511  17.711  0.00  0.00    +0.000 A 
ATOM     24  C   UNL     1       3.815   3.504  16.624  0.00  0.00    +0.000 A 
ATOM     25  C   UNL     1       5.121   3.983  16.845  0.00  0.00    +0.000 A 
ATOM     26  C   UNL     1       5.584   4.293  18.130  0.00  0.00    +0.000 A 
ATOM     27  C   UNL     1       6.939   4.695  18.024  0.00  0.00    +0.000 A 
ATOM     28  C   UNL     1       7.166   4.918  16.691  0.00  0.00    +0.000 A 
ATOM     29  N   UNL     1       6.169   4.275  15.997  0.00  0.00    +0.000 N 
ATOM     30  C   UNL     1       6.289   3.990  14.588  0.00  0.00    +0.000 C 
ATOM     31  C   UNL     1       4.701   4.238  19.216  0.00  0.00    +0.000 A 
ENDBRANCH  19  22
ENDBRANCH  17  19
ENDBRANCH   5  17
TORSDOF 4
ENDMDL
MODEL 4
REMARK VINA RESULT:      -8.6      3.489      9.869
REMARK  Name = 
REMARK  6 active torsions:
REMARK  status: ('A' for Active; 'I' for Inactive)
REMARK    1  A    between atoms: C_1  and  C_2
REMARK    2  A    between atoms: C_7  and  C_8
REMARK    3  A    between atoms: C_12  and  N_13
REMARK    4  A    between atoms: N_13  and  S_14
REMARK    5  A    between atoms: S_14  and  C_17
REMARK    6  A    between atoms: N_24  and  C_25
REMARK                            x       y       z     vdW  Elec       q    Type
REMARK                         _______ _______ _______ _____ _____    ______ ____
ROOT
ATOM      1  C   UNL     1       2.261   7.824  18.732  0.00  0.00    +0.000 A 
ATOM      2  C   UNL     1       2.237   8.775  17.700  0.00  0.00    +0.000 A 
ATOM      3  C   UNL     1       1.420   9.904  17.786  0.00  0.00    +0.000 A 
ATOM      4  C   UNL     1       0.605  10.090  18.898  0.00  0.00    +0.000 A 
ATOM      5  C   UNL     1       0.610   9.157  19.932  0.00  0.00    +0.000 A 
ATOM      6  C   UNL     1       1.429   8.024  19.851  0.00  0.00    +0.000 A 
ENDROOT
BRANCH   1  13
ATOM      7  C   UNL     1       6.940   4.616  14.934  0.00  0.00    +0.000 C 
ATOM      8  C   UNL     1       5.883   5.363  15.703  0.00  0.00    +0.000 C 
ATOM      9  O   UNL     1       5.423   6.405  15.255  0.00  0.00    +0.000 OA
ATOM     10  N   UNL     1       5.528   4.747  16.878  0.00  0.00    +0.000 N 
ATOM     11  C   UNL     1       4.621   5.319  17.727  0.00  0.00    +0.000 A 
ATOM     12  N   UNL     1       3.961   6.437  17.588  0.00  0.00    +0.000 NA
ATOM     13  C   UNL     1       3.148   6.658  18.686  0.00  0.00    +0.000 A 
ATOM     14  C   UNL     1       3.249   5.684  19.664  0.00  0.00    +0.000 A 
ATOM     15  S   UNL     1       4.340   4.450  19.164  0.00  0.00    +0.000 S 
ATOM     16  H   UNL     1       5.916   3.856  17.146  0.00  0.00    +0.000 HD
ENDBRANCH   1  13
BRANCH   5  17
ATOM     17  N   UNL     1      -0.251   9.383  21.051  0.00  0.00    +0.000 N 
ATOM     18  H   UNL     1      -1.243   9.443  20.816  0.00  0.00    +0.000 HD
BRANCH  17  19
ATOM     19  S   UNL     1       0.190  10.612  22.143  0.00  0.00    +0.000 S 
ATOM     20  O   UNL     1       0.227   9.999  23.457  0.00  0.00    +0.000 OA
ATOM     21  O   UNL     1       1.319  11.353  21.646  0.00  0.00    +0.000 OA
BRANCH  19  22
ATOM     22  C   UNL     1      -1.245  11.661  22.113  0.00  0.00    +0.000 A 
ATOM     23  C   UNL     1      -1.773  12.103  20.900  0.00  0.00    +0.000 A 
ATOM     24  C   UNL     1      -3.055  12.672  20.856  0.00  0.00    +0.000 A 
ATOM     25  C   UNL     1      -3.781  12.740  22.062  0.00  0.00    +0.000 A 
ATOM     26  C   UNL     1      -3.196  12.419  23.292  0.00  0.00    +0.000 A 
ATOM     27  C   UNL     1      -4.160  12.636  24.308  0.00  0.00    +0.000 A 
ATOM     28  C   UNL     1      -5.363  12.772  23.665  0.00  0.00    +0.000 A 
ATOM     29  N   UNL     1      -5.090  13.063  22.351  0.00  0.00    +0.000 N 
ATOM     30  C   UNL     1      -6.091  13.623  21.475  0.00  0.00    +0.000 C 
ATOM     31  C   UNL     1      -1.891  11.909  23.327  0.00  0.00    +0.000 A 
ENDBRANCH  19  22
ENDBRANCH  17  19
ENDBRANCH   5  17
TORSDOF 4
ENDMDL
MODEL 5
REMARK VINA RESULT:      -8.6      2.075      2.769
REMARK  Name = 
REMARK  6 active torsions:
REMARK  status: ('A' for Active; 'I' for Inactive)
REMARK    1  A    between atoms: C_1  and  C_2
REMARK    2  A    between atoms: C_7  and  C_8
REMARK    3  A    between atoms: C_12  and  N_13
REMARK    4  A    between atoms: N_13  and  S_14
REMARK    5  A    between atoms: S_14  and  C_17
REMARK    6  A    between atoms: N_24  and  C_25
REMARK                            x       y       z     vdW  Elec       q    Type
REMARK                         _______ _______ _______ _____ _____    ______ ____
ROOT
ATOM      1  C   UNL     1       1.306   9.185  19.162  0.00  0.00    +0.000 A 
ATOM      2  C   UNL     1       1.854   9.059  17.877  0.00  0.00    +0.000 A 
ATOM      3  C   UNL     1       2.624   7.945  17.532  0.00  0.00    +0.000 A 
ATOM      4  C   UNL     1       2.867   6.950  18.473  0.00  0.00    +0.000 A 
ATOM      5  C   UNL     1       2.337   7.056  19.757  0.00  0.00    +0.000 A 
ATOM      6  C   UNL     1       1.563   8.169  20.106  0.00  0.00    +0.000 A 
ENDROOT
BRANCH   1  13
ATOM      7  C   UNL     1       1.329  15.392  22.003  0.00  0.00    +0.000 C 
ATOM      8  C   UNL     1       1.397  14.008  21.414  0.00  0.00    +0.000 C 
ATOM      9  O   UNL     1       2.477  13.438  21.316  0.00  0.00    +0.000 OA
ATOM     10  N   UNL     1       0.171  13.514  21.045  0.00  0.00    +0.000 N 
ATOM     11  C   UNL     1       0.056  12.292  20.441  0.00  0.00    +0.000 A 
ATOM     12  N   UNL     1       0.994  11.432  20.150  0.00  0.00    +0.000 NA
ATOM     13  C   UNL     1       0.454  10.318  19.530  0.00  0.00    +0.000 A 
ATOM     14  C   UNL     1      -0.915  10.392  19.338  0.00  0.00    +0.000 A 
ATOM     15  S   UNL     1      -1.529  11.859  19.998  0.00  0.00    +0.000 S 
ATOM     16  H   UNL     1      -0.679  14.029  21.214  0.00  0.00    +0.000 HD
ENDBRANCH   1  13
BRANCH   5  17
ATOM     17  N   UNL     1       2.622   6.016  20.694  0.00  0.00    +0.000 N 
ATOM     18  H   UNL     1       3.572   6.031  21.068  0.00  0.00    +0.000 HD
BRANCH  17  19
ATOM     19  S   UNL     1       2.160   4.432  20.272  0.00  0.00    +0.000 S 
ATOM     20  O   UNL     1       2.465   3.596  21.416  0.00  0.00    +0.000 OA
ATOM     21  O   UNL     1       0.845   4.425  19.686  0.00  0.00    +0.000 OA
BRANCH  19  22
ATOM     22  C   UNL     1       3.351   4.026  19.016  0.00  0.00    +0.000 A 
ATOM     23  C   UNL     1       2.933   3.579  17.762  0.00  0.00    +0.000 A 
ATOM     24  C   UNL     1       3.837   3.546  16.689  0.00  0.00    +0.000 A 
ATOM     25  C   UNL     1       5.147   4.008  16.925  0.00  0.00    +0.000 A 
ATOM     26  C   UNL     1       5.594   4.328  18.212  0.00  0.00    +0.000 A 
ATOM     27  C   UNL     1       6.957   4.709  18.122  0.00  0.00    +0.000 A 
ATOM     28  C   UNL     1       7.207   4.912  16.790  0.00  0.00    +0.000 A 
ATOM     29  N   UNL     1       6.212   4.275  16.089  0.00  0.00    +0.000 N 
ATOM     30  C   UNL     1       6.348   3.972  14.686  0.00  0.00    +0.000 C 
ATOM     31  C   UNL     1       4.695   4.299  19.286  0.00  0.00    +0.000 A 
ENDBRANCH  19  22
ENDBRANCH  17  19
ENDBRANCH   5  17
TORSDOF 4
ENDMDL
MODEL 6
REMARK VINA RESULT:      -8.3      2.659      9.098
REMARK  Name = 
REMARK  6 active torsions:
REMARK  status: ('A' for Active; 'I' for Inactive)
REMARK    1  A    between atoms: C_1  and  C_2
REMARK    2  A    between atoms: C_7  and  C_8
REMARK    3  A    between atoms: C_12  and  N_13
REMARK    4  A    between atoms: N_13  and  S_14
REMARK    5  A    between atoms: S_14  and  C_17
REMARK    6  A    between atoms: N_24  and  C_25
REMARK                            x       y       z     vdW  Elec       q    Type
REMARK                         _______ _______ _______ _____ _____    ______ ____
ROOT
ATOM      1  C   UNL     1       2.515   6.387  19.155  0.00  0.00    +0.000 A 
ATOM      2  C   UNL     1       1.953   6.302  20.438  0.00  0.00    +0.000 A 
ATOM      3  C   UNL     1       1.309   7.400  21.013  0.00  0.00    +0.000 A 
ATOM      4  C   UNL     1       1.231   8.602  20.317  0.00  0.00    +0.000 A 
ATOM      5  C   UNL     1       1.786   8.711  19.044  0.00  0.00    +0.000 A 
ATOM      6  C   UNL     1       2.430   7.612  18.463  0.00  0.00    +0.000 A 
ENDROOT
BRANCH   1  13
ATOM      7  C   UNL     1       6.655   4.511  14.062  0.00  0.00    +0.000 C 
ATOM      8  C   UNL     1       5.729   4.997  15.145  0.00  0.00    +0.000 C 
ATOM      9  O   UNL     1       5.515   6.195  15.274  0.00  0.00    +0.000 OA
ATOM     10  N   UNL     1       5.192   3.981  15.896  0.00  0.00    +0.000 N 
ATOM     11  C   UNL     1       4.373   4.247  16.959  0.00  0.00    +0.000 A 
ATOM     12  N   UNL     1       3.961   5.404  17.405  0.00  0.00    +0.000 NA
ATOM     13  C   UNL     1       3.149   5.233  18.513  0.00  0.00    +0.000 A 
ATOM     14  C   UNL     1       2.996   3.912  18.898  0.00  0.00    +0.000 A 
ATOM     15  S   UNL     1       3.842   2.875  17.815  0.00  0.00    +0.000 S 
ATOM     16  H   UNL     1       5.377   3.013  15.685  0.00  0.00    +0.000 HD
ENDBRANCH   1  13
BRANCH   5  17
ATOM     17  N   UNL     1       1.692   9.969  18.371  0.00  0.00    +0.000 N 
ATOM     18  H   UNL     1       2.541  10.251  17.879  0.00  0.00    +0.000 HD
BRANCH  17  19
ATOM     19  S   UNL     1       1.031  11.275  19.241  0.00  0.00    +0.000 S 
ATOM     20  O   UNL     1       1.165  10.943  20.645  0.00  0.00    +0.000 OA
ATOM     21  O   UNL     1       1.527  12.528  18.731  0.00  0.00    +0.000 OA
BRANCH  19  22
ATOM     22  C   UNL     1      -0.697  11.139  18.849  0.00  0.00    +0.000 A 
ATOM     23  C   UNL     1      -1.641  11.902  19.537  0.00  0.00    +0.000 A 
ATOM     24  C   UNL     1      -2.948  12.021  19.040  0.00  0.00    +0.000 A 
ATOM     25  C   UNL     1      -3.244  11.378  17.822  0.00  0.00    +0.000 A 
ATOM     26  C   UNL     1      -2.334  10.508  17.209  0.00  0.00    +0.000 A 
ATOM     27  C   UNL     1      -2.943   9.988  16.039  0.00  0.00    +0.000 A 
ATOM     28  C   UNL     1      -4.044  10.770  15.805  0.00  0.00    +0.000 A 
ATOM     29  N   UNL     1      -4.334  11.423  16.978  0.00  0.00    +0.000 N 
ATOM     30  C   UNL     1      -5.619  12.038  17.205  0.00  0.00    +0.000 C 
ATOM     31  C   UNL     1      -1.052  10.352  17.751  0.00  0.00    +0.000 A 
ENDBRANCH  19  22
ENDBRANCH  17  19
ENDBRANCH   5  17
TORSDOF 4
ENDMDL
MODEL 7
REMARK VINA RESULT:      -8.2      3.582     10.172
REMARK  Name = 
REMARK  6 active torsions:
REMARK  status: ('A' for Active; 'I' for Inactive)
REMARK    1  A    between atoms: C_1  and  C_2
REMARK    2  A    between atoms: C_7  and  C_8
REMARK    3  A    between atoms: C_12  and  N_13
REMARK    4  A    between atoms: N_13  and  S_14
REMARK    5  A    between atoms: S_14  and  C_17
REMARK    6  A    between atoms: N_24  and  C_25
REMARK                            x       y       z     vdW  Elec       q    Type
REMARK                         _______ _______ _______ _____ _____    ______ ____
ROOT
ATOM      1  C   UNL     1       2.094   7.812  19.071  0.00  0.00    +0.000 A 
ATOM      2  C   UNL     1       2.390   8.668  17.999  0.00  0.00    +0.000 A 
ATOM      3  C   UNL     1       1.744   9.898  17.865  0.00  0.00    +0.000 A 
ATOM      4  C   UNL     1       0.781  10.283  18.793  0.00  0.00    +0.000 A 
ATOM      5  C   UNL     1       0.468   9.447  19.862  0.00  0.00    +0.000 A 
ATOM      6  C   UNL     1       1.115   8.214  20.002  0.00  0.00    +0.000 A 
ENDROOT
BRANCH   1  13
ATOM      7  C   UNL     1       7.837   4.428  17.602  0.00  0.00    +0.000 C 
ATOM      8  C   UNL     1       6.588   5.225  17.862  0.00  0.00    +0.000 C 
ATOM      9  O   UNL     1       6.498   6.373  17.447  0.00  0.00    +0.000 OA
ATOM     10  N   UNL     1       5.635   4.528  18.564  0.00  0.00    +0.000 N 
ATOM     11  C   UNL     1       4.460   5.121  18.936  0.00  0.00    +0.000 A 
ATOM     12  N   UNL     1       4.043   6.335  18.695  0.00  0.00    +0.000 NA
ATOM     13  C   UNL     1       2.796   6.540  19.259  0.00  0.00    +0.000 A 
ATOM     14  C   UNL     1       2.310   5.447  19.956  0.00  0.00    +0.000 A 
ATOM     15  S   UNL     1       3.417   4.133  19.849  0.00  0.00    +0.000 S 
ATOM     16  H   UNL     1       5.768   3.562  18.820  0.00  0.00    +0.000 HD
ENDBRANCH   1  13
BRANCH   5  17
ATOM     17  N   UNL     1      -0.535   9.877  20.785  0.00  0.00    +0.000 N 
ATOM     18  H   UNL     1      -1.419  10.151  20.353  0.00  0.00    +0.000 HD
BRANCH  17  19
ATOM     19  S   UNL     1      -0.072  10.998  21.981  0.00  0.00    +0.000 S 
ATOM     20  O   UNL     1       0.088  10.245  23.209  0.00  0.00    +0.000 OA
ATOM     21  O   UNL     1       0.985  11.849  21.497  0.00  0.00    +0.000 OA
BRANCH  19  22
ATOM     22  C   UNL     1      -1.550  11.967  22.168  0.00  0.00    +0.000 A 
ATOM     23  C   UNL     1      -2.186  12.511  21.052  0.00  0.00    +0.000 A 
ATOM     24  C   UNL     1      -3.492  13.013  21.160  0.00  0.00    +0.000 A 
ATOM     25  C   UNL     1      -4.128  12.910  22.413  0.00  0.00    +0.000 A 
ATOM     26  C   UNL     1      -3.440  12.487  23.556  0.00  0.00    +0.000 A 
ATOM     27  C   UNL     1      -4.335  12.540  24.653  0.00  0.00    +0.000 A 
ATOM     28  C   UNL     1      -5.588  12.683  24.115  0.00  0.00    +0.000 A 
ATOM     29  N   UNL     1      -5.426  13.130  22.826  0.00  0.00    +0.000 N 
ATOM     30  C   UNL     1      -6.512  13.729  22.090  0.00  0.00    +0.000 C 
ATOM     31  C   UNL     1      -2.115  12.045  23.443  0.00  0.00    +0.000 A 
ENDBRANCH  19  22
ENDBRANCH  17  19
ENDBRANCH   5  17
TORSDOF 4
ENDMDL
MODEL 8
REMARK VINA RESULT:      -8.2      2.614      3.941
REMARK  Name = 
REMARK  6 active torsions:
REMARK  status: ('A' for Active; 'I' for Inactive)
REMARK    1  A    between atoms: C_1  and  C_2
REMARK    2  A    between atoms: C_7  and  C_8
REMARK    3  A    between atoms: C_12  and  N_13
REMARK    4  A    between atoms: N_13  and  S_14
REMARK    5  A    between atoms: S_14  and  C_17
REMARK    6  A    between atoms: N_24  and  C_25
REMARK                            x       y       z     vdW  Elec       q    Type
REMARK                         _______ _______ _______ _____ _____    ______ ____
ROOT
ATOM      1  C   UNL     1      -1.572  11.457  18.751  0.00  0.00    +0.000 A 
ATOM      2  C   UNL     1      -1.133  12.623  19.396  0.00  0.00    +0.000 A 
ATOM      3  C   UNL     1       0.089  12.650  20.073  0.00  0.00    +0.000 A 
ATOM      4  C   UNL     1       0.880  11.507  20.126  0.00  0.00    +0.000 A 
ATOM      5  C   UNL     1       0.462  10.337  19.496  0.00  0.00    +0.000 A 
ATOM      6  C   UNL     1      -0.761  10.306  18.815  0.00  0.00    +0.000 A 
ENDROOT
BRANCH   1  13
ATOM      7  C   UNL     1      -4.317   9.758  12.736  0.00  0.00    +0.000 C 
ATOM      8  C   UNL     1      -3.637  10.134  14.026  0.00  0.00    +0.000 C 
ATOM      9  O   UNL     1      -2.439   9.925  14.169  0.00  0.00    +0.000 OA
ATOM     10  N   UNL     1      -4.485  10.713  14.938  0.00  0.00    +0.000 N 
ATOM     11  C   UNL     1      -4.044  11.064  16.184  0.00  0.00    +0.000 A 
ATOM     12  N   UNL     1      -2.845  10.955  16.690  0.00  0.00    +0.000 NA
ATOM     13  C   UNL     1      -2.825  11.420  17.993  0.00  0.00    +0.000 A 
ATOM     14  C   UNL     1      -4.058  11.850  18.454  0.00  0.00    +0.000 A 
ATOM     15  S   UNL     1      -5.238  11.715  17.208  0.00  0.00    +0.000 S 
ATOM     16  H   UNL     1      -5.450  10.902  14.717  0.00  0.00    +0.000 HD
ENDBRANCH   1  13
BRANCH   5  17
ATOM     17  N   UNL     1       1.302   9.184  19.586  0.00  0.00    +0.000 N 
ATOM     18  H   UNL     1       1.348   8.626  18.732  0.00  0.00    +0.000 HD
BRANCH  17  19
ATOM     19  S   UNL     1       1.120   8.187  20.954  0.00  0.00    +0.000 S 
ATOM     20  O   UNL     1       1.969   8.748  21.987  0.00  0.00    +0.000 OA
ATOM     21  O   UNL     1      -0.272   7.923  21.211  0.00  0.00    +0.000 OA
BRANCH  19  22
ATOM     22  C   UNL     1       1.901   6.683  20.417  0.00  0.00    +0.000 A 
ATOM     23  C   UNL     1       1.503   5.453  20.940  0.00  0.00    +0.000 A 
ATOM     24  C   UNL     1       1.897   4.260  20.314  0.00  0.00    +0.000 A 
ATOM     25  C   UNL     1       2.667   4.364  19.139  0.00  0.00    +0.000 A 
ATOM     26  C   UNL     1       3.174   5.592  18.697  0.00  0.00    +0.000 A 
ATOM     27  C   UNL     1       3.941   5.357  17.528  0.00  0.00    +0.000 A 
ATOM     28  C   UNL     1       3.630   4.085  17.121  0.00  0.00    +0.000 A 
ATOM     29  N   UNL     1       3.069   3.441  18.196  0.00  0.00    +0.000 N 
ATOM     30  C   UNL     1       2.958   2.004  18.244  0.00  0.00    +0.000 C 
ATOM     31  C   UNL     1       2.820   6.770  19.369  0.00  0.00    +0.000 A 
ENDBRANCH  19  22
ENDBRANCH  17  19
ENDBRANCH   5  17
TORSDOF 4
ENDMDL
MODEL 9
REMARK VINA RESULT:      -8.1      3.354      5.855
REMARK  Name = 
REMARK  6 active torsions:
REMARK  status: ('A' for Active; 'I' for Inactive)
REMARK    1  A    between atoms: C_1  and  C_2
REMARK    2  A    between atoms: C_7  and  C_8
REMARK    3  A    between atoms: C_12  and  N_13
REMARK    4  A    between atoms: N_13  and  S_14
REMARK    5  A    between atoms: S_14  and  C_17
REMARK    6  A    between atoms: N_24  and  C_25
REMARK                            x       y       z     vdW  Elec       q    Type
REMARK                         _______ _______ _______ _____ _____    ______ ____
ROOT
ATOM      1  C   UNL     1      -3.973  11.502  18.348  0.00  0.00    +0.000 A 
ATOM      2  C   UNL     1      -4.076  10.307  17.620  0.00  0.00    +0.000 A 
ATOM      3  C   UNL     1      -2.933   9.636  17.179  0.00  0.00    +0.000 A 
ATOM      4  C   UNL     1      -1.673  10.160  17.448  0.00  0.00    +0.000 A 
ATOM      5  C   UNL     1      -1.547  11.348  18.165  0.00  0.00    +0.000 A 
ATOM      6  C   UNL     1      -2.690  12.022  18.610  0.00  0.00    +0.000 A 
ENDROOT
BRANCH   1  13
ATOM      7  C   UNL     1      -7.216  13.342  24.067  0.00  0.00    +0.000 C 
ATOM      8  C   UNL     1      -6.460  12.879  22.850  0.00  0.00    +0.000 C 
ATOM      9  O   UNL     1      -5.400  12.281  22.981  0.00  0.00    +0.000 OA
ATOM     10  N   UNL     1      -7.089  13.189  21.669  0.00  0.00    +0.000 N 
ATOM     11  C   UNL     1      -6.512  12.891  20.465  0.00  0.00    +0.000 A 
ATOM     12  N   UNL     1      -5.377  12.290  20.227  0.00  0.00    +0.000 NA
ATOM     13  C   UNL     1      -5.157  12.195  18.864  0.00  0.00    +0.000 A 
ATOM     14  C   UNL     1      -6.150  12.775  18.093  0.00  0.00    +0.000 A 
ATOM     15  S   UNL     1      -7.399  13.396  19.103  0.00  0.00    +0.000 S 
ATOM     16  H   UNL     1      -7.992  13.635  21.653  0.00  0.00    +0.000 HD
ENDBRANCH   1  13
BRANCH   5  17
ATOM     17  N   UNL     1      -0.233  11.855  18.408  0.00  0.00    +0.000 N 
ATOM     18  H   UNL     1       0.373  11.873  17.586  0.00  0.00    +0.000 HD
BRANCH  17  19
ATOM     19  S   UNL     1       0.602  11.251  19.763  0.00  0.00    +0.000 S 
ATOM     20  O   UNL     1       1.770  12.092  19.934  0.00  0.00    +0.000 OA
ATOM     21  O   UNL     1      -0.305  11.022  20.858  0.00  0.00    +0.000 OA
BRANCH  19  22
ATOM     22  C   UNL     1       1.188   9.684  19.164  0.00  0.00    +0.000 A 
ATOM     23  C   UNL     1       1.855   9.597  17.942  0.00  0.00    +0.000 A 
ATOM     24  C   UNL     1       2.571   8.437  17.611  0.00  0.00    +0.000 A 
ATOM     25  C   UNL     1       2.613   7.401  18.565  0.00  0.00    +0.000 A 
ATOM     26  C   UNL     1       1.834   7.440  19.728  0.00  0.00    +0.000 A 
ATOM     27  C   UNL     1       2.060   6.241  20.449  0.00  0.00    +0.000 A 
ATOM     28  C   UNL     1       3.171   5.665  19.889  0.00  0.00    +0.000 A 
ATOM     29  N   UNL     1       3.340   6.232  18.649  0.00  0.00    +0.000 N 
ATOM     30  C   UNL     1       4.175   5.621  17.644  0.00  0.00    +0.000 C 
ATOM     31  C   UNL     1       1.076   8.582  20.016  0.00  0.00    +0.000 A 
ENDBRANCH  19  22
ENDBRANCH  17  19
ENDBRANCH   5  17
TORSDOF 4
ENDMDL
