MODEL 1
REMARK VINA RESULT:      -8.7      0.000      0.000
REMARK  Name = 
REMARK  5 active torsions:
REMARK  status: ('A' for Active; 'I' for Inactive)
REMARK    1  A    between atoms: C_1  and  C_2
REMARK    2  A    between atoms: C_2  and  O_4
REMARK    3  A    between atoms: O_4  and  C_5
REMARK    4  A    between atoms: C_17  and  C_18
REMARK    5  A    between atoms: C_19  and  O_20
REMARK                            x       y       z     vdW  Elec       q    Type
REMARK                         _______ _______ _______ _____ _____    ______ ____
ROOT
ATOM      1  C   UNL     1      -0.134  10.296  20.665  0.00  0.00    +0.000 A 
ATOM      2  C   UNL     1      -0.075   9.252  21.577  0.00  0.00    +0.000 A 
ATOM      3  C   UNL     1       0.725   8.146  21.311  0.00  0.00    +0.000 A 
ATOM      4  C   UNL     1       1.427   8.022  20.102  0.00  0.00    +0.000 A 
ATOM      5  C   UNL     1       1.336   9.066  19.158  0.00  0.00    +0.000 A 
ATOM      6  C   UNL     1       0.533  10.195  19.440  0.00  0.00    +0.000 A 
ATOM      7  C   UNL     1       2.043   8.991  17.822  0.00  0.00    +0.000 C 
ATOM      8  C   UNL     1       3.118   7.902  17.730  0.00  0.00    +0.000 C 
ATOM      9  C   UNL     1       2.613   6.596  18.349  0.00  0.00    +0.000 C 
ATOM     10  C   UNL     1       2.344   6.829  19.866  0.00  0.00    +0.000 C 
ATOM     11  C   UNL     1       1.877   5.522  20.557  0.00  0.00    +0.000 C 
ATOM     12  C   UNL     1       2.820   4.338  20.315  0.00  0.00    +0.000 C 
ATOM     13  C   UNL     1       3.084   4.128  18.825  0.00  0.00    +0.000 C 
ATOM     14  C   UNL     1       1.795   3.599  18.145  0.00  0.00    +0.000 C 
ATOM     15  C   UNL     1       4.287   3.217  18.518  0.00  0.00    +0.000 C 
ATOM     16  C   UNL     1       4.643   3.575  17.063  0.00  0.00    +0.000 C 
ATOM     17  C   UNL     1       4.121   5.014  16.841  0.00  0.00    +0.000 C 
ATOM     18  C   UNL     1       3.618   5.445  18.219  0.00  0.00    +0.000 C 
ENDROOT
BRANCH  15  19
ATOM     19  O   UNL     1       4.040   1.840  18.709  0.00  0.00    +0.000 OA
ATOM     20  H   UNL     1       3.915   1.417  17.844  0.00  0.00    +0.000 HD
ENDBRANCH  15  19
BRANCH   1  21
ATOM     21  O   UNL     1      -0.935  11.429  20.912  0.00  0.00    +0.000 OA
BRANCH  21  23
ATOM     22  C   UNL     1      -1.427  12.420  23.012  0.00  0.00    +0.000 C 
ATOM     23  C   UNL     1      -0.465  12.339  21.864  0.00  0.00    +0.000 C 
ATOM     24  O   UNL     1       0.579  12.966  21.826  0.00  0.00    +0.000 OA
ENDBRANCH  21  23
ENDBRANCH   1  21
TORSDOF 3
ENDMDL
MODEL 2
REMARK VINA RESULT:      -8.3      0.972      1.318
REMARK  Name = 
REMARK  5 active torsions:
REMARK  status: ('A' for Active; 'I' for Inactive)
REMARK    1  A    between atoms: C_1  and  C_2
REMARK    2  A    between atoms: C_2  and  O_4
REMARK    3  A    between atoms: O_4  and  C_5
REMARK    4  A    between atoms: C_17  and  C_18
REMARK    5  A    between atoms: C_19  and  O_20
REMARK                            x       y       z     vdW  Elec       q    Type
REMARK                         _______ _______ _______ _____ _____    ______ ____
ROOT
ATOM      1  C   UNL     1       0.065  10.523  20.602  0.00  0.00    +0.000 A 
ATOM      2  C   UNL     1       0.044   9.507  21.548  0.00  0.00    +0.000 A 
ATOM      3  C   UNL     1       0.759   8.337  21.322  0.00  0.00    +0.000 A 
ATOM      4  C   UNL     1       1.454   8.121  20.121  0.00  0.00    +0.000 A 
ATOM      5  C   UNL     1       1.443   9.138  19.142  0.00  0.00    +0.000 A 
ATOM      6  C   UNL     1       0.726  10.332  19.385  0.00  0.00    +0.000 A 
ATOM      7  C   UNL     1       2.145   8.966  17.813  0.00  0.00    +0.000 C 
ATOM      8  C   UNL     1       3.136   7.798  17.762  0.00  0.00    +0.000 C 
ATOM      9  C   UNL     1       2.534   6.554  18.421  0.00  0.00    +0.000 C 
ATOM     10  C   UNL     1       2.279   6.856  19.928  0.00  0.00    +0.000 C 
ATOM     11  C   UNL     1       1.715   5.611  20.659  0.00  0.00    +0.000 C 
ATOM     12  C   UNL     1       2.567   4.353  20.460  0.00  0.00    +0.000 C 
ATOM     13  C   UNL     1       2.819   4.075  18.979  0.00  0.00    +0.000 C 
ATOM     14  C   UNL     1       1.495   3.622  18.310  0.00  0.00    +0.000 C 
ATOM     15  C   UNL     1       3.950   3.067  18.708  0.00  0.00    +0.000 C 
ATOM     16  C   UNL     1       4.336   3.349  17.243  0.00  0.00    +0.000 C 
ATOM     17  C   UNL     1       3.923   4.815  16.972  0.00  0.00    +0.000 C 
ATOM     18  C   UNL     1       3.450   5.328  18.333  0.00  0.00    +0.000 C 
ENDROOT
BRANCH  15  19
ATOM     19  O   UNL     1       3.601   1.719  18.942  0.00  0.00    +0.000 OA
ATOM     20  H   UNL     1       3.960   1.442  19.799  0.00  0.00    +0.000 HD
ENDBRANCH  15  19
BRANCH   1  21
ATOM     21  O   UNL     1      -0.650  11.719  20.808  0.00  0.00    +0.000 OA
BRANCH  21  23
ATOM     22  C   UNL     1      -0.780  13.498  19.243  0.00  0.00    +0.000 C 
ATOM     23  C   UNL     1      -1.383  12.212  19.724  0.00  0.00    +0.000 C 
ATOM     24  O   UNL     1      -2.349  11.691  19.195  0.00  0.00    +0.000 OA
ENDBRANCH  21  23
ENDBRANCH   1  21
TORSDOF 3
ENDMDL
MODEL 3
REMARK VINA RESULT:      -7.3      1.550      2.811
REMARK  Name = 
REMARK  5 active torsions:
REMARK  status: ('A' for Active; 'I' for Inactive)
REMARK    1  A    between atoms: C_1  and  C_2
REMARK    2  A    between atoms: C_2  and  O_4
REMARK    3  A    between atoms: O_4  and  C_5
REMARK    4  A    between atoms: C_17  and  C_18
REMARK    5  A    between atoms: C_19  and  O_20
REMARK                            x       y       z     vdW  Elec       q    Type
REMARK                         _______ _______ _______ _____ _____    ______ ____
ROOT
ATOM      1  C   UNL     1       0.750  11.156  19.823  0.00  0.00    +0.000 A 
ATOM      2  C   UNL     1       1.407  11.095  18.601  0.00  0.00    +0.000 A 
ATOM      3  C   UNL     1       1.934   9.887  18.161  0.00  0.00    +0.000 A 
ATOM      4  C   UNL     1       1.883   8.730  18.954  0.00  0.00    +0.000 A 
ATOM      5  C   UNL     1       1.249   8.802  20.213  0.00  0.00    +0.000 A 
ATOM      6  C   UNL     1       0.701  10.030  20.649  0.00  0.00    +0.000 A 
ATOM      7  C   UNL     1       1.179   7.604  21.134  0.00  0.00    +0.000 C 
ATOM      8  C   UNL     1       1.512   6.265  20.466  0.00  0.00    +0.000 C 
ATOM      9  C   UNL     1       2.742   6.406  19.565  0.00  0.00    +0.000 C 
ATOM     10  C   UNL     1       2.413   7.407  18.418  0.00  0.00    +0.000 C 
ATOM     11  C   UNL     1       3.610   7.550  17.443  0.00  0.00    +0.000 C 
ATOM     12  C   UNL     1       4.120   6.208  16.907  0.00  0.00    +0.000 C 
ATOM     13  C   UNL     1       4.427   5.232  18.043  0.00  0.00    +0.000 C 
ATOM     14  C   UNL     1       5.683   5.719  18.811  0.00  0.00    +0.000 C 
ATOM     15  C   UNL     1       4.585   3.769  17.592  0.00  0.00    +0.000 C 
ATOM     16  C   UNL     1       4.370   2.971  18.893  0.00  0.00    +0.000 C 
ATOM     17  C   UNL     1       3.510   3.875  19.807  0.00  0.00    +0.000 C 
ATOM     18  C   UNL     1       3.170   5.079  18.927  0.00  0.00    +0.000 C 
ENDROOT
BRANCH  15  19
ATOM     19  O   UNL     1       5.815   3.481  16.960  0.00  0.00    +0.000 OA
ATOM     20  H   UNL     1       6.154   4.289  16.543  0.00  0.00    +0.000 HD
ENDBRANCH  15  19
BRANCH   1  21
ATOM     21  O   UNL     1       0.205  12.368  20.291  0.00  0.00    +0.000 OA
BRANCH  21  23
ATOM     22  C   UNL     1      -2.041  12.319  19.526  0.00  0.00    +0.000 C 
ATOM     23  C   UNL     1      -0.713  13.012  19.455  0.00  0.00    +0.000 C 
ATOM     24  O   UNL     1      -0.518  14.009  18.781  0.00  0.00    +0.000 OA
ENDBRANCH  21  23
ENDBRANCH   1  21
TORSDOF 3
ENDMDL
MODEL 4
REMARK VINA RESULT:      -7.3      1.447      2.768
REMARK  Name = 
REMARK  5 active torsions:
REMARK  status: ('A' for Active; 'I' for Inactive)
REMARK    1  A    between atoms: C_1  and  C_2
REMARK    2  A    between atoms: C_2  and  O_4
REMARK    3  A    between atoms: O_4  and  C_5
REMARK    4  A    between atoms: C_17  and  C_18
REMARK    5  A    between atoms: C_19  and  O_20
REMARK                            x       y       z     vdW  Elec       q    Type
REMARK                         _______ _______ _______ _____ _____    ______ ____
ROOT
ATOM      1  C   UNL     1       0.691  11.067  19.891  0.00  0.00    +0.000 A 
ATOM      2  C   UNL     1       1.344  11.028  18.666  0.00  0.00    +0.000 A 
ATOM      3  C   UNL     1       1.886   9.832  18.211  0.00  0.00    +0.000 A 
ATOM      4  C   UNL     1       1.854   8.666  18.993  0.00  0.00    +0.000 A 
ATOM      5  C   UNL     1       1.225   8.717  20.255  0.00  0.00    +0.000 A 
ATOM      6  C   UNL     1       0.661   9.932  20.706  0.00  0.00    +0.000 A 
ATOM      7  C   UNL     1       1.175   7.508  21.164  0.00  0.00    +0.000 C 
ATOM      8  C   UNL     1       1.524   6.181  20.481  0.00  0.00    +0.000 C 
ATOM      9  C   UNL     1       2.748   6.348  19.577  0.00  0.00    +0.000 C 
ATOM     10  C   UNL     1       2.401   7.356  18.441  0.00  0.00    +0.000 C 
ATOM     11  C   UNL     1       3.592   7.526  17.463  0.00  0.00    +0.000 C 
ATOM     12  C   UNL     1       4.118   6.197  16.911  0.00  0.00    +0.000 C 
ATOM     13  C   UNL     1       4.443   5.214  18.036  0.00  0.00    +0.000 C 
ATOM     14  C   UNL     1       5.696   5.711  18.804  0.00  0.00    +0.000 C 
ATOM     15  C   UNL     1       4.620   3.757  17.570  0.00  0.00    +0.000 C 
ATOM     16  C   UNL     1       4.422   2.944  18.863  0.00  0.00    +0.000 C 
ATOM     17  C   UNL     1       3.553   3.826  19.790  0.00  0.00    +0.000 C 
ATOM     18  C   UNL     1       3.193   5.034  18.924  0.00  0.00    +0.000 C 
ENDROOT
BRANCH  15  19
ATOM     19  O   UNL     1       5.851   3.493  16.930  0.00  0.00    +0.000 OA
ATOM     20  H   UNL     1       6.522   4.108  17.266  0.00  0.00    +0.000 HD
ENDBRANCH  15  19
BRANCH   1  21
ATOM     21  O   UNL     1       0.131  12.267  20.373  0.00  0.00    +0.000 OA
BRANCH  21  23
ATOM     22  C   UNL     1       0.658  14.485  19.716  0.00  0.00    +0.000 C 
ATOM     23  C   UNL     1       1.012  13.328  20.602  0.00  0.00    +0.000 C 
ATOM     24  O   UNL     1       1.922  13.365  21.412  0.00  0.00    +0.000 OA
ENDBRANCH  21  23
ENDBRANCH   1  21
TORSDOF 3
ENDMDL
MODEL 5
REMARK VINA RESULT:      -7.3      2.184      3.567
REMARK  Name = 
REMARK  5 active torsions:
REMARK  status: ('A' for Active; 'I' for Inactive)
REMARK    1  A    between atoms: C_1  and  C_2
REMARK    2  A    between atoms: C_2  and  O_4
REMARK    3  A    between atoms: O_4  and  C_5
REMARK    4  A    between atoms: C_17  and  C_18
REMARK    5  A    between atoms: C_19  and  O_20
REMARK                            x       y       z     vdW  Elec       q    Type
REMARK                         _______ _______ _______ _____ _____    ______ ____
ROOT
ATOM      1  C   UNL     1       0.596   8.076  21.041  0.00  0.00    +0.000 A 
ATOM      2  C   UNL     1       1.114   8.963  20.107  0.00  0.00    +0.000 A 
ATOM      3  C   UNL     1       1.915   8.490  19.075  0.00  0.00    +0.000 A 
ATOM      4  C   UNL     1       2.276   7.136  18.987  0.00  0.00    +0.000 A 
ATOM      5  C   UNL     1       1.780   6.241  19.959  0.00  0.00    +0.000 A 
ATOM      6  C   UNL     1       0.954   6.726  20.998  0.00  0.00    +0.000 A 
ATOM      7  C   UNL     1       2.148   4.773  19.944  0.00  0.00    +0.000 C 
ATOM      8  C   UNL     1       2.778   4.286  18.634  0.00  0.00    +0.000 C 
ATOM      9  C   UNL     1       3.818   5.291  18.132  0.00  0.00    +0.000 C 
ATOM     10  C   UNL     1       3.103   6.637  17.809  0.00  0.00    +0.000 C 
ATOM     11  C   UNL     1       4.103   7.680  17.248  0.00  0.00    +0.000 C 
ATOM     12  C   UNL     1       4.915   7.160  16.056  0.00  0.00    +0.000 C 
ATOM     13  C   UNL     1       5.602   5.834  16.383  0.00  0.00    +0.000 C 
ATOM     14  C   UNL     1       6.739   6.084  17.407  0.00  0.00    +0.000 C 
ATOM     15  C   UNL     1       6.122   5.071  15.151  0.00  0.00    +0.000 C 
ATOM     16  C   UNL     1       6.277   3.627  15.665  0.00  0.00    +0.000 C 
ATOM     17  C   UNL     1       5.294   3.492  16.852  0.00  0.00    +0.000 C 
ATOM     18  C   UNL     1       4.538   4.822  16.862  0.00  0.00    +0.000 C 
ENDROOT
BRANCH  15  19
ATOM     19  O   UNL     1       7.311   5.596  14.599  0.00  0.00    +0.000 OA
ATOM     20  H   UNL     1       7.647   4.982  13.927  0.00  0.00    +0.000 HD
ENDBRANCH  15  19
BRANCH   1  21
ATOM     21  O   UNL     1      -0.221   8.531  22.096  0.00  0.00    +0.000 OA
BRANCH  21  23
ATOM     22  C   UNL     1      -0.671  10.752  22.799  0.00  0.00    +0.000 C 
ATOM     23  C   UNL     1       0.273   9.589  22.865  0.00  0.00    +0.000 C 
ATOM     24  O   UNL     1       1.293   9.597  23.533  0.00  0.00    +0.000 OA
ENDBRANCH  21  23
ENDBRANCH   1  21
TORSDOF 3
ENDMDL
MODEL 6
REMARK VINA RESULT:      -7.3      1.515      7.871
REMARK  Name = 
REMARK  5 active torsions:
REMARK  status: ('A' for Active; 'I' for Inactive)
REMARK    1  A    between atoms: C_1  and  C_2
REMARK    2  A    between atoms: C_2  and  O_4
REMARK    3  A    between atoms: O_4  and  C_5
REMARK    4  A    between atoms: C_17  and  C_18
REMARK    5  A    between atoms: C_19  and  O_20
REMARK                            x       y       z     vdW  Elec       q    Type
REMARK                         _______ _______ _______ _____ _____    ______ ____
ROOT
ATOM      1  C   UNL     1       3.503   5.177  18.473  0.00  0.00    +0.000 A 
ATOM      2  C   UNL     1       3.667   6.191  17.539  0.00  0.00    +0.000 A 
ATOM      3  C   UNL     1       3.140   7.452  17.790  0.00  0.00    +0.000 A 
ATOM      4  C   UNL     1       2.381   7.716  18.940  0.00  0.00    +0.000 A 
ATOM      5  C   UNL     1       2.181   6.674  19.871  0.00  0.00    +0.000 A 
ATOM      6  C   UNL     1       2.732   5.397  19.618  0.00  0.00    +0.000 A 
ATOM      7  C   UNL     1       1.351   6.876  21.120  0.00  0.00    +0.000 C 
ATOM      8  C   UNL     1       1.062   8.341  21.464  0.00  0.00    +0.000 C 
ATOM      9  C   UNL     1       0.667   9.120  20.207  0.00  0.00    +0.000 C 
ATOM     10  C   UNL     1       1.870   9.124  19.218  0.00  0.00    +0.000 C 
ATOM     11  C   UNL     1       1.543   9.944  17.943  0.00  0.00    +0.000 C 
ATOM     12  C   UNL     1       1.043  11.361  18.246  0.00  0.00    +0.000 C 
ATOM     13  C   UNL     1      -0.130  11.342  19.226  0.00  0.00    +0.000 C 
ATOM     14  C   UNL     1      -1.379  10.752  18.521  0.00  0.00    +0.000 C 
ATOM     15  C   UNL     1      -0.445  12.710  19.859  0.00  0.00    +0.000 C 
ATOM     16  C   UNL     1      -1.255  12.342  21.117  0.00  0.00    +0.000 C 
ATOM     17  C   UNL     1      -0.832  10.900  21.486  0.00  0.00    +0.000 C 
ATOM     18  C   UNL     1       0.291  10.578  20.500  0.00  0.00    +0.000 C 
ENDROOT
BRANCH  15  19
ATOM     19  O   UNL     1      -1.122  13.607  19.005  0.00  0.00    +0.000 OA
ATOM     20  H   UNL     1      -1.046  13.294  18.090  0.00  0.00    +0.000 HD
ENDBRANCH  15  19
BRANCH   1  21
ATOM     21  O   UNL     1       4.029   3.890  18.243  0.00  0.00    +0.000 OA
BRANCH  21  23
ATOM     22  C   UNL     1       3.444   1.594  18.379  0.00  0.00    +0.000 C 
ATOM     23  C   UNL     1       3.143   2.924  17.756  0.00  0.00    +0.000 C 
ATOM     24  O   UNL     1       2.227   3.098  16.971  0.00  0.00    +0.000 OA
ENDBRANCH  21  23
ENDBRANCH   1  21
TORSDOF 3
ENDMDL
MODEL 7
REMARK VINA RESULT:      -7.2      1.351      1.691
REMARK  Name = 
REMARK  5 active torsions:
REMARK  status: ('A' for Active; 'I' for Inactive)
REMARK    1  A    between atoms: C_1  and  C_2
REMARK    2  A    between atoms: C_2  and  O_4
REMARK    3  A    between atoms: O_4  and  C_5
REMARK    4  A    between atoms: C_17  and  C_18
REMARK    5  A    between atoms: C_19  and  O_20
REMARK                            x       y       z     vdW  Elec       q    Type
REMARK                         _______ _______ _______ _____ _____    ______ ____
ROOT
ATOM      1  C   UNL     1       1.047  10.644  19.532  0.00  0.00    +0.000 A 
ATOM      2  C   UNL     1       0.740   9.841  20.622  0.00  0.00    +0.000 A 
ATOM      3  C   UNL     1       1.171   8.520  20.650  0.00  0.00    +0.000 A 
ATOM      4  C   UNL     1       1.857   7.947  19.566  0.00  0.00    +0.000 A 
ATOM      5  C   UNL     1       2.135   8.753  18.442  0.00  0.00    +0.000 A 
ATOM      6  C   UNL     1       1.707  10.100  18.425  0.00  0.00    +0.000 A 
ATOM      7  C   UNL     1       2.846   8.199  17.226  0.00  0.00    +0.000 C 
ATOM      8  C   UNL     1       3.536   6.849  17.451  0.00  0.00    +0.000 C 
ATOM      9  C   UNL     1       2.626   5.906  18.243  0.00  0.00    +0.000 C 
ATOM     10  C   UNL     1       2.371   6.517  19.653  0.00  0.00    +0.000 C 
ATOM     11  C   UNL     1       1.493   5.577  20.518  0.00  0.00    +0.000 C 
ATOM     12  C   UNL     1       2.036   4.146  20.600  0.00  0.00    +0.000 C 
ATOM     13  C   UNL     1       2.292   3.563  19.210  0.00  0.00    +0.000 C 
ATOM     14  C   UNL     1       0.935   3.305  18.505  0.00  0.00    +0.000 C 
ATOM     15  C   UNL     1       3.168   2.298  19.207  0.00  0.00    +0.000 C 
ATOM     16  C   UNL     1       3.684   2.225  17.758  0.00  0.00    +0.000 C 
ATOM     17  C   UNL     1       3.642   3.675  17.220  0.00  0.00    +0.000 C 
ATOM     18  C   UNL     1       3.232   4.511  18.434  0.00  0.00    +0.000 C 
ENDROOT
BRANCH  15  19
ATOM     19  O   UNL     1       2.501   1.123  19.620  0.00  0.00    +0.000 OA
ATOM     20  H   UNL     1       2.153   0.665  18.838  0.00  0.00    +0.000 HD
ENDBRANCH  15  19
BRANCH   1  21
ATOM     21  O   UNL     1       0.623  11.987  19.480  0.00  0.00    +0.000 OA
BRANCH  21  23
ATOM     22  C   UNL     1      -1.282  13.116  20.332  0.00  0.00    +0.000 C 
ATOM     23  C   UNL     1      -0.741  12.210  19.266  0.00  0.00    +0.000 C 
ATOM     24  O   UNL     1      -1.419  11.784  18.348  0.00  0.00    +0.000 OA
ENDBRANCH  21  23
ENDBRANCH   1  21
TORSDOF 3
ENDMDL
MODEL 8
REMARK VINA RESULT:      -7.2      1.818      7.964
REMARK  Name = 
REMARK  5 active torsions:
REMARK  status: ('A' for Active; 'I' for Inactive)
REMARK    1  A    between atoms: C_1  and  C_2
REMARK    2  A    between atoms: C_2  and  O_4
REMARK    3  A    between atoms: O_4  and  C_5
REMARK    4  A    between atoms: C_17  and  C_18
REMARK    5  A    between atoms: C_19  and  O_20
REMARK                            x       y       z     vdW  Elec       q    Type
REMARK                         _______ _______ _______ _____ _____    ______ ____
ROOT
ATOM      1  C   UNL     1       4.673   4.942  16.872  0.00  0.00    +0.000 A 
ATOM      2  C   UNL     1       4.773   6.202  16.298  0.00  0.00    +0.000 A 
ATOM      3  C   UNL     1       4.133   7.284  16.891  0.00  0.00    +0.000 A 
ATOM      4  C   UNL     1       3.323   7.127  18.026  0.00  0.00    +0.000 A 
ATOM      5  C   UNL     1       3.189   5.839  18.587  0.00  0.00    +0.000 A 
ATOM      6  C   UNL     1       3.854   4.744  17.989  0.00  0.00    +0.000 A 
ATOM      7  C   UNL     1       2.311   5.587  19.793  0.00  0.00    +0.000 C 
ATOM      8  C   UNL     1       1.887   6.852  20.549  0.00  0.00    +0.000 C 
ATOM      9  C   UNL     1       1.460   7.946  19.566  0.00  0.00    +0.000 C 
ATOM     10  C   UNL     1       2.685   8.341  18.689  0.00  0.00    +0.000 C 
ATOM     11  C   UNL     1       2.323   9.484  17.706  0.00  0.00    +0.000 C 
ATOM     12  C   UNL     1       1.694  10.700  18.397  0.00  0.00    +0.000 C 
ATOM     13  C   UNL     1       0.501  10.296  19.263  0.00  0.00    +0.000 C 
ATOM     14  C   UNL     1      -0.672   9.859  18.348  0.00  0.00    +0.000 C 
ATOM     15  C   UNL     1       0.052  11.378  20.262  0.00  0.00    +0.000 C 
ATOM     16  C   UNL     1      -0.756  10.585  21.306  0.00  0.00    +0.000 C 
ATOM     17  C   UNL     1      -0.221   9.135  21.244  0.00  0.00    +0.000 C 
ATOM     18  C   UNL     1       0.953   9.212  20.266  0.00  0.00    +0.000 C 
ENDROOT
BRANCH  15  19
ATOM     19  O   UNL     1      -0.676  12.441  19.685  0.00  0.00    +0.000 OA
ATOM     20  H   UNL     1      -0.653  13.204  20.283  0.00  0.00    +0.000 HD
ENDBRANCH  15  19
BRANCH   1  21
ATOM     21  O   UNL     1       5.313   3.829  16.292  0.00  0.00    +0.000 OA
BRANCH  21  23
ATOM     22  C   UNL     1       6.318   3.930  14.145  0.00  0.00    +0.000 C 
ATOM     23  C   UNL     1       6.518   4.072  15.625  0.00  0.00    +0.000 C 
ATOM     24  O   UNL     1       7.583   4.388  16.125  0.00  0.00    +0.000 OA
ENDBRANCH  21  23
ENDBRANCH   1  21
TORSDOF 3
ENDMDL
MODEL 9
REMARK VINA RESULT:      -7.2      1.641      2.988
REMARK  Name = 
REMARK  5 active torsions:
REMARK  status: ('A' for Active; 'I' for Inactive)
REMARK    1  A    between atoms: C_1  and  C_2
REMARK    2  A    between atoms: C_2  and  O_4
REMARK    3  A    between atoms: O_4  and  C_5
REMARK    4  A    between atoms: C_17  and  C_18
REMARK    5  A    between atoms: C_19  and  O_20
REMARK                            x       y       z     vdW  Elec       q    Type
REMARK                         _______ _______ _______ _____ _____    ______ ____
ROOT
ATOM      1  C   UNL     1       1.268  11.316  19.237  0.00  0.00    +0.000 A 
ATOM      2  C   UNL     1       1.856  10.860  18.064  0.00  0.00    +0.000 A 
ATOM      3  C   UNL     1       2.106   9.503  17.900  0.00  0.00    +0.000 A 
ATOM      4  C   UNL     1       1.842   8.578  18.923  0.00  0.00    +0.000 A 
ATOM      5  C   UNL     1       1.280   9.048  20.129  0.00  0.00    +0.000 A 
ATOM      6  C   UNL     1       1.014  10.427  20.285  0.00  0.00    +0.000 A 
ATOM      7  C   UNL     1       0.993   8.114  21.286  0.00  0.00    +0.000 C 
ATOM      8  C   UNL     1       1.018   6.625  20.925  0.00  0.00    +0.000 C 
ATOM      9  C   UNL     1       2.219   6.310  20.029  0.00  0.00    +0.000 C 
ATOM     10  C   UNL     1       2.067   7.090  18.690  0.00  0.00    +0.000 C 
ATOM     11  C   UNL     1       3.234   6.768  17.721  0.00  0.00    +0.000 C 
ATOM     12  C   UNL     1       3.436   5.266  17.492  0.00  0.00    +0.000 C 
ATOM     13  C   UNL     1       3.572   4.512  18.815  0.00  0.00    +0.000 C 
ATOM     14  C   UNL     1       4.927   4.876  19.476  0.00  0.00    +0.000 C 
ATOM     15  C   UNL     1       3.407   2.986  18.692  0.00  0.00    +0.000 C 
ATOM     16  C   UNL     1       3.075   2.547  20.130  0.00  0.00    +0.000 C 
ATOM     17  C   UNL     1       2.453   3.784  20.818  0.00  0.00    +0.000 C 
ATOM     18  C   UNL     1       2.341   4.818  19.696  0.00  0.00    +0.000 C 
ENDROOT
BRANCH  15  19
ATOM     19  O   UNL     1       4.528   2.319  18.151  0.00  0.00    +0.000 OA
ATOM     20  H   UNL     1       5.171   2.977  17.842  0.00  0.00    +0.000 HD
ENDBRANCH  15  19
BRANCH   1  21
ATOM     21  O   UNL     1       1.002  12.687  19.427  0.00  0.00    +0.000 OA
BRANCH  21  23
ATOM     22  C   UNL     1       2.912  14.091  19.317  0.00  0.00    +0.000 C 
ATOM     23  C   UNL     1       1.916  13.405  20.204  0.00  0.00    +0.000 C 
ATOM     24  O   UNL     1       1.921  13.514  21.418  0.00  0.00    +0.000 OA
ENDBRANCH  21  23
ENDBRANCH   1  21
TORSDOF 3
ENDMDL
