MODEL 1
REMARK VINA RESULT:      -7.6      0.000      0.000
REMARK  Name = 
REMARK  7 active torsions:
REMARK  status: ('A' for Active; 'I' for Inactive)
REMARK    1  A    between atoms: C_1  and  O_2
REMARK    2  A    between atoms: O_2  and  C_3
REMARK    3  A    between atoms: C_6  and  C_7
REMARK    4  A    between atoms: C_7  and  C_8
REMARK    5  A    between atoms: C_7  and  N_15
REMARK    6  A    between atoms: C_8  and  C_9
REMARK    7  A    between atoms: N_18  and  C_19
REMARK                            x       y       z     vdW  Elec       q    Type
REMARK                         _______ _______ _______ _____ _____    ______ ____
ROOT
ATOM      1  C   UNL     1       0.119  10.983  18.919  0.00  0.00    +0.000 C 
ENDROOT
BRANCH   1   5
ATOM      2  C   UNL     1       2.422   7.270  19.455  0.00  0.00    +0.000 A 
ATOM      3  C   UNL     1       2.420   7.884  18.191  0.00  0.00    +0.000 A 
ATOM      4  C   UNL     1       1.690   9.080  17.970  0.00  0.00    +0.000 A 
ATOM      5  C   UNL     1       0.939   9.671  19.020  0.00  0.00    +0.000 A 
ATOM      6  C   UNL     1       0.984   9.044  20.274  0.00  0.00    +0.000 A 
ATOM      7  C   UNL     1       1.692   7.873  20.488  0.00  0.00    +0.000 A 
BRANCH   2   9
ATOM      8  C   UNL     1       4.062   5.598  18.790  0.00  0.00    +0.000 C 
ATOM      9  O   UNL     1       3.127   6.129  19.667  0.00  0.00    +0.000 OA
ENDBRANCH   2   9
ENDBRANCH   1   5
BRANCH   1  10
ATOM     10  N   UNL     1       0.641  12.080  19.856  0.00  0.00    +0.000 NA
ATOM     11  C   UNL     1       1.984  12.672  19.601  0.00  0.00    +0.000 C 
ATOM     12  C   UNL     1       2.024  13.632  18.373  0.00  0.00    +0.000 C 
ATOM     13  N   UNL     1       0.958  14.681  18.374  0.00  0.00    +0.000 NA
ATOM     14  C   UNL     1      -0.343  14.045  18.704  0.00  0.00    +0.000 C 
ATOM     15  C   UNL     1      -0.260  13.244  20.021  0.00  0.00    +0.000 C 
BRANCH  13  16
ATOM     16  C   UNL     1       1.288  15.927  19.158  0.00  0.00    +0.000 C 
ATOM     17  C   UNL     1       2.548  16.652  18.589  0.00  0.00    +0.000 C 
ATOM     18  C   UNL     1       2.303  17.248  17.186  0.00  0.00    +0.000 C 
ATOM     19  C   UNL     1       1.150  18.257  17.225  0.00  0.00    +0.000 C 
ATOM     20  C   UNL     1      -0.119  17.591  17.765  0.00  0.00    +0.000 C 
ATOM     21  C   UNL     1       0.149  17.006  19.168  0.00  0.00    +0.000 C 
ENDBRANCH  13  16
ENDBRANCH   1  10
BRANCH   1  22
ATOM     22  C   UNL     1      -1.419  10.764  19.144  0.00  0.00    +0.000 C 
BRANCH  22  23
ATOM     23  C   UNL     1      -2.339  10.665  17.953  0.00  0.00    +0.000 A 
ATOM     24  C   UNL     1      -3.498  11.459  17.902  0.00  0.00    +0.000 A 
ATOM     25  C   UNL     1      -4.292  11.476  16.754  0.00  0.00    +0.000 A 
ATOM     26  C   UNL     1      -3.942  10.696  15.648  0.00  0.00    +0.000 A 
ATOM     27  C   UNL     1      -2.795   9.899  15.691  0.00  0.00    +0.000 A 
ATOM     28  C   UNL     1      -1.992   9.883  16.836  0.00  0.00    +0.000 A 
ENDBRANCH  22  23
ENDBRANCH   1  22
TORSDOF 6
ENDMDL
MODEL 2
REMARK VINA RESULT:      -7.5      0.420      1.007
REMARK  Name = 
REMARK  7 active torsions:
REMARK  status: ('A' for Active; 'I' for Inactive)
REMARK    1  A    between atoms: C_1  and  O_2
REMARK    2  A    between atoms: O_2  and  C_3
REMARK    3  A    between atoms: C_6  and  C_7
REMARK    4  A    between atoms: C_7  and  C_8
REMARK    5  A    between atoms: C_7  and  N_15
REMARK    6  A    between atoms: C_8  and  C_9
REMARK    7  A    between atoms: N_18  and  C_19
REMARK                            x       y       z     vdW  Elec       q    Type
REMARK                         _______ _______ _______ _____ _____    ______ ____
ROOT
ATOM      1  C   UNL     1       0.211  10.844  18.822  0.00  0.00    +0.000 C 
ENDROOT
BRANCH   1   5
ATOM      2  C   UNL     1       2.539   7.146  19.348  0.00  0.00    +0.000 A 
ATOM      3  C   UNL     1       2.545   7.771  18.090  0.00  0.00    +0.000 A 
ATOM      4  C   UNL     1       1.807   8.963  17.873  0.00  0.00    +0.000 A 
ATOM      5  C   UNL     1       1.041   9.538  18.920  0.00  0.00    +0.000 A 
ATOM      6  C   UNL     1       1.079   8.900  20.169  0.00  0.00    +0.000 A 
ATOM      7  C   UNL     1       1.793   7.733  20.379  0.00  0.00    +0.000 A 
BRANCH   2   9
ATOM      8  C   UNL     1       2.784   4.892  20.235  0.00  0.00    +0.000 C 
ATOM      9  O   UNL     1       3.251   6.009  19.557  0.00  0.00    +0.000 OA
ENDBRANCH   2   9
ENDBRANCH   1   5
BRANCH   1  10
ATOM     10  N   UNL     1       0.695  11.927  19.796  0.00  0.00    +0.000 NA
ATOM     11  C   UNL     1       2.024  12.560  19.572  0.00  0.00    +0.000 C 
ATOM     12  C   UNL     1       2.050  13.556  18.373  0.00  0.00    +0.000 C 
ATOM     13  N   UNL     1       0.957  14.577  18.393  0.00  0.00    +0.000 NA
ATOM     14  C   UNL     1      -0.329  13.898  18.691  0.00  0.00    +0.000 C 
ATOM     15  C   UNL     1      -0.238  13.061  19.986  0.00  0.00    +0.000 C 
BRANCH  13  16
ATOM     16  C   UNL     1       1.247  15.808  19.216  0.00  0.00    +0.000 C 
ATOM     17  C   UNL     1       2.508  16.568  18.696  0.00  0.00    +0.000 C 
ATOM     18  C   UNL     1       2.285  17.195  17.303  0.00  0.00    +0.000 C 
ATOM     19  C   UNL     1       1.114  18.184  17.340  0.00  0.00    +0.000 C 
ATOM     20  C   UNL     1      -0.156  17.483  17.833  0.00  0.00    +0.000 C 
ATOM     21  C   UNL     1       0.090  16.867  19.226  0.00  0.00    +0.000 C 
ENDBRANCH  13  16
ENDBRANCH   1  10
BRANCH   1  22
ATOM     22  C   UNL     1      -1.331  10.606  18.999  0.00  0.00    +0.000 C 
BRANCH  22  23
ATOM     23  C   UNL     1      -2.241  10.695  17.799  0.00  0.00    +0.000 A 
ATOM     24  C   UNL     1      -2.002   9.874  16.683  0.00  0.00    +0.000 A 
ATOM     25  C   UNL     1      -2.904   9.850  15.618  0.00  0.00    +0.000 A 
ATOM     26  C   UNL     1      -4.051  10.648  15.654  0.00  0.00    +0.000 A 
ATOM     27  C   UNL     1      -4.295  11.472  16.756  0.00  0.00    +0.000 A 
ATOM     28  C   UNL     1      -3.397  11.495  17.828  0.00  0.00    +0.000 A 
ENDBRANCH  22  23
ENDBRANCH   1  22
TORSDOF 6
ENDMDL
MODEL 3
REMARK VINA RESULT:      -6.8      0.988      1.736
REMARK  Name = 
REMARK  7 active torsions:
REMARK  status: ('A' for Active; 'I' for Inactive)
REMARK    1  A    between atoms: C_1  and  O_2
REMARK    2  A    between atoms: O_2  and  C_3
REMARK    3  A    between atoms: C_6  and  C_7
REMARK    4  A    between atoms: C_7  and  C_8
REMARK    5  A    between atoms: C_7  and  N_15
REMARK    6  A    between atoms: C_8  and  C_9
REMARK    7  A    between atoms: N_18  and  C_19
REMARK                            x       y       z     vdW  Elec       q    Type
REMARK                         _______ _______ _______ _____ _____    ______ ____
ROOT
ATOM      1  C   UNL     1      -0.214  11.073  19.189  0.00  0.00    +0.000 C 
ENDROOT
BRANCH   1   5
ATOM      2  C   UNL     1       2.291   7.467  19.502  0.00  0.00    +0.000 A 
ATOM      3  C   UNL     1       1.560   7.878  20.629  0.00  0.00    +0.000 A 
ATOM      4  C   UNL     1       0.742   9.036  20.576  0.00  0.00    +0.000 A 
ATOM      5  C   UNL     1       0.656   9.805  19.386  0.00  0.00    +0.000 A 
ATOM      6  C   UNL     1       1.381   9.351  18.274  0.00  0.00    +0.000 A 
ATOM      7  C   UNL     1       2.184   8.224  18.328  0.00  0.00    +0.000 A 
BRANCH   2   9
ATOM      8  C   UNL     1       2.663   5.124  20.048  0.00  0.00    +0.000 C 
ATOM      9  O   UNL     1       3.068   6.355  19.552  0.00  0.00    +0.000 OA
ENDBRANCH   2   9
ENDBRANCH   1   5
BRANCH   1  10
ATOM     10  N   UNL     1       0.134  12.190  20.183  0.00  0.00    +0.000 NA
ATOM     11  C   UNL     1       1.561  12.419  20.543  0.00  0.00    +0.000 C 
ATOM     12  C   UNL     1       2.392  13.098  19.412  0.00  0.00    +0.000 C 
ATOM     13  N   UNL     1       1.769  14.333  18.843  0.00  0.00    +0.000 NA
ATOM     14  C   UNL     1       0.334  14.065  18.572  0.00  0.00    +0.000 C 
ATOM     15  C   UNL     1      -0.387  13.529  19.828  0.00  0.00    +0.000 C 
BRANCH  13  16
ATOM     16  C   UNL     1       2.060  15.604  19.602  0.00  0.00    +0.000 C 
ATOM     17  C   UNL     1       3.435  15.536  20.339  0.00  0.00    +0.000 C 
ATOM     18  C   UNL     1       4.628  15.503  19.358  0.00  0.00    +0.000 C 
ATOM     19  C   UNL     1       4.626  16.750  18.467  0.00  0.00    +0.000 C 
ATOM     20  C   UNL     1       3.299  16.857  17.709  0.00  0.00    +0.000 C 
ATOM     21  C   UNL     1       2.123  16.892  18.708  0.00  0.00    +0.000 C 
ENDBRANCH  13  16
ENDBRANCH   1  10
BRANCH   1  22
ATOM     22  C   UNL     1      -1.754  10.773  19.228  0.00  0.00    +0.000 C 
BRANCH  22  23
ATOM     23  C   UNL     1      -2.519  10.636  17.936  0.00  0.00    +0.000 A 
ATOM     24  C   UNL     1      -3.703  11.371  17.748  0.00  0.00    +0.000 A 
ATOM     25  C   UNL     1      -4.355  11.357  16.514  0.00  0.00    +0.000 A 
ATOM     26  C   UNL     1      -3.836  10.604  15.456  0.00  0.00    +0.000 A 
ATOM     27  C   UNL     1      -2.663   9.865  15.635  0.00  0.00    +0.000 A 
ATOM     28  C   UNL     1      -2.003   9.882  16.867  0.00  0.00    +0.000 A 
ENDBRANCH  22  23
ENDBRANCH   1  22
TORSDOF 6
ENDMDL
MODEL 4
REMARK VINA RESULT:      -6.6      0.852      1.613
REMARK  Name = 
REMARK  7 active torsions:
REMARK  status: ('A' for Active; 'I' for Inactive)
REMARK    1  A    between atoms: C_1  and  O_2
REMARK    2  A    between atoms: O_2  and  C_3
REMARK    3  A    between atoms: C_6  and  C_7
REMARK    4  A    between atoms: C_7  and  C_8
REMARK    5  A    between atoms: C_7  and  N_15
REMARK    6  A    between atoms: C_8  and  C_9
REMARK    7  A    between atoms: N_18  and  C_19
REMARK                            x       y       z     vdW  Elec       q    Type
REMARK                         _______ _______ _______ _____ _____    ______ ____
ROOT
ATOM      1  C   UNL     1       0.112  10.674  18.903  0.00  0.00    +0.000 C 
ENDROOT
BRANCH   1   5
ATOM      2  C   UNL     1       2.556   7.057  19.471  0.00  0.00    +0.000 A 
ATOM      3  C   UNL     1       2.558   7.679  18.211  0.00  0.00    +0.000 A 
ATOM      4  C   UNL     1       1.783   8.845  17.980  0.00  0.00    +0.000 A 
ATOM      5  C   UNL     1       0.984   9.397  19.016  0.00  0.00    +0.000 A 
ATOM      6  C   UNL     1       1.026   8.763  20.267  0.00  0.00    +0.000 A 
ATOM      7  C   UNL     1       1.777   7.621  20.490  0.00  0.00    +0.000 A 
BRANCH   2   9
ATOM      8  C   UNL     1       2.870   4.643  19.486  0.00  0.00    +0.000 C 
ATOM      9  O   UNL     1       3.303   5.945  19.693  0.00  0.00    +0.000 OA
ENDBRANCH   2   9
ENDBRANCH   1   5
BRANCH   1  10
ATOM     10  N   UNL     1       0.501  11.748  19.928  0.00  0.00    +0.000 NA
ATOM     11  C   UNL     1       1.925  12.173  20.025  0.00  0.00    +0.000 C 
ATOM     12  C   UNL     1       2.395  13.066  18.836  0.00  0.00    +0.000 C 
ATOM     13  N   UNL     1       1.499  14.226  18.542  0.00  0.00    +0.000 NA
ATOM     14  C   UNL     1       0.091  13.755  18.528  0.00  0.00    +0.000 C 
ATOM     15  C   UNL     1      -0.266  13.011  19.833  0.00  0.00    +0.000 C 
BRANCH  13  16
ATOM     16  C   UNL     1       1.762  15.462  19.366  0.00  0.00    +0.000 C 
ATOM     17  C   UNL     1       3.128  15.378  20.117  0.00  0.00    +0.000 C 
ATOM     18  C   UNL     1       4.334  15.409  19.153  0.00  0.00    +0.000 C 
ATOM     19  C   UNL     1       4.326  16.698  18.324  0.00  0.00    +0.000 C 
ATOM     20  C   UNL     1       3.008  16.824  17.553  0.00  0.00    +0.000 C 
ATOM     21  C   UNL     1       1.819  16.793  18.537  0.00  0.00    +0.000 C 
ENDBRANCH  13  16
ENDBRANCH   1  10
BRANCH   1  22
ATOM     22  C   UNL     1      -1.427  10.375  18.988  0.00  0.00    +0.000 C 
BRANCH  22  23
ATOM     23  C   UNL     1      -2.293  10.575  17.770  0.00  0.00    +0.000 A 
ATOM     24  C   UNL     1      -2.022   9.847  16.598  0.00  0.00    +0.000 A 
ATOM     25  C   UNL     1      -2.887   9.922  15.504  0.00  0.00    +0.000 A 
ATOM     26  C   UNL     1      -4.026  10.729  15.567  0.00  0.00    +0.000 A 
ATOM     27  C   UNL     1      -4.301  11.462  16.725  0.00  0.00    +0.000 A 
ATOM     28  C   UNL     1      -3.442  11.384  17.826  0.00  0.00    +0.000 A 
ENDBRANCH  22  23
ENDBRANCH   1  22
TORSDOF 6
ENDMDL
MODEL 5
REMARK VINA RESULT:      -6.4      3.230      5.678
REMARK  Name = 
REMARK  7 active torsions:
REMARK  status: ('A' for Active; 'I' for Inactive)
REMARK    1  A    between atoms: C_1  and  O_2
REMARK    2  A    between atoms: O_2  and  C_3
REMARK    3  A    between atoms: C_6  and  C_7
REMARK    4  A    between atoms: C_7  and  C_8
REMARK    5  A    between atoms: C_7  and  N_15
REMARK    6  A    between atoms: C_8  and  C_9
REMARK    7  A    between atoms: N_18  and  C_19
REMARK                            x       y       z     vdW  Elec       q    Type
REMARK                         _______ _______ _______ _____ _____    ______ ____
ROOT
ATOM      1  C   UNL     1       0.112  12.160  20.074  0.00  0.00    +0.000 C 
ENDROOT
BRANCH   1   5
ATOM      2  C   UNL     1      -3.043  12.052  23.142  0.00  0.00    +0.000 A 
ATOM      3  C   UNL     1      -3.329  12.651  21.904  0.00  0.00    +0.000 A 
ATOM      4  C   UNL     1      -2.342  12.712  20.886  0.00  0.00    +0.000 A 
ATOM      5  C   UNL     1      -1.045  12.178  21.105  0.00  0.00    +0.000 A 
ATOM      6  C   UNL     1      -0.804  11.566  22.344  0.00  0.00    +0.000 A 
ATOM      7  C   UNL     1      -1.764  11.513  23.340  0.00  0.00    +0.000 A 
BRANCH   2   9
ATOM      8  C   UNL     1      -5.070  12.852  24.227  0.00  0.00    +0.000 C 
ATOM      9  O   UNL     1      -3.989  11.988  24.113  0.00  0.00    +0.000 OA
ENDBRANCH   2   9
ENDBRANCH   1   5
BRANCH   1  10
ATOM     10  N   UNL     1       0.317  13.519  19.391  0.00  0.00    +0.000 NA
ATOM     11  C   UNL     1       0.686  14.698  20.223  0.00  0.00    +0.000 C 
ATOM     12  C   UNL     1       2.161  14.673  20.728  0.00  0.00    +0.000 C 
ATOM     13  N   UNL     1       3.176  14.421  19.659  0.00  0.00    +0.000 NA
ATOM     14  C   UNL     1       2.720  13.283  18.821  0.00  0.00    +0.000 C 
ATOM     15  C   UNL     1       1.294  13.520  18.279  0.00  0.00    +0.000 C 
BRANCH  13  16
ATOM     16  C   UNL     1       3.624  15.646  18.902  0.00  0.00    +0.000 C 
ATOM     17  C   UNL     1       4.513  16.579  19.783  0.00  0.00    +0.000 C 
ATOM     18  C   UNL     1       5.874  15.939  20.132  0.00  0.00    +0.000 C 
ATOM     19  C   UNL     1       6.655  15.606  18.855  0.00  0.00    +0.000 C 
ATOM     20  C   UNL     1       5.829  14.679  17.957  0.00  0.00    +0.000 C 
ATOM     21  C   UNL     1       4.476  15.340  17.620  0.00  0.00    +0.000 C 
ENDBRANCH  13  16
ENDBRANCH   1  10
BRANCH   1  22
ATOM     22  C   UNL     1      -0.045  11.029  18.996  0.00  0.00    +0.000 C 
BRANCH  22  23
ATOM     23  C   UNL     1       0.857   9.822  19.046  0.00  0.00    +0.000 A 
ATOM     24  C   UNL     1       0.997   9.109  20.249  0.00  0.00    +0.000 A 
ATOM     25  C   UNL     1       1.725   7.917  20.283  0.00  0.00    +0.000 A 
ATOM     26  C   UNL     1       2.324   7.429  19.119  0.00  0.00    +0.000 A 
ATOM     27  C   UNL     1       2.196   8.134  17.919  0.00  0.00    +0.000 A 
ATOM     28  C   UNL     1       1.463   9.324  17.878  0.00  0.00    +0.000 A 
ENDBRANCH  22  23
ENDBRANCH   1  22
TORSDOF 6
ENDMDL
MODEL 6
REMARK VINA RESULT:      -6.3      1.240      1.644
REMARK  Name = 
REMARK  7 active torsions:
REMARK  status: ('A' for Active; 'I' for Inactive)
REMARK    1  A    between atoms: C_1  and  O_2
REMARK    2  A    between atoms: O_2  and  C_3
REMARK    3  A    between atoms: C_6  and  C_7
REMARK    4  A    between atoms: C_7  and  C_8
REMARK    5  A    between atoms: C_7  and  N_15
REMARK    6  A    between atoms: C_8  and  C_9
REMARK    7  A    between atoms: N_18  and  C_19
REMARK                            x       y       z     vdW  Elec       q    Type
REMARK                         _______ _______ _______ _____ _____    ______ ____
ROOT
ATOM      1  C   UNL     1       0.291  10.987  19.290  0.00  0.00    +0.000 C 
ENDROOT
BRANCH   1   5
ATOM      2  C   UNL     1       2.660   7.316  18.748  0.00  0.00    +0.000 A 
ATOM      3  C   UNL     1       2.618   8.251  17.700  0.00  0.00    +0.000 A 
ATOM      4  C   UNL     1       1.865   9.446  17.828  0.00  0.00    +0.000 A 
ATOM      5  C   UNL     1       1.132   9.715  19.014  0.00  0.00    +0.000 A 
ATOM      6  C   UNL     1       1.217   8.771  20.048  0.00  0.00    +0.000 A 
ATOM      7  C   UNL     1       1.946   7.600  19.921  0.00  0.00    +0.000 A 
BRANCH   2   9
ATOM      8  C   UNL     1       3.863   5.422  19.690  0.00  0.00    +0.000 C 
ATOM      9  O   UNL     1       3.385   6.176  18.627  0.00  0.00    +0.000 OA
ENDBRANCH   2   9
ENDBRANCH   1   5
BRANCH   1  10
ATOM     10  N   UNL     1       0.773  11.757  20.527  0.00  0.00    +0.000 NA
ATOM     11  C   UNL     1       2.023  12.562  20.437  0.00  0.00    +0.000 C 
ATOM     12  C   UNL     1       1.863  13.880  19.618  0.00  0.00    +0.000 C 
ATOM     13  N   UNL     1       0.698  14.724  20.027  0.00  0.00    +0.000 NA
ATOM     14  C   UNL     1      -0.498  13.857  20.169  0.00  0.00    +0.000 C 
ATOM     15  C   UNL     1      -0.226  12.673  21.123  0.00  0.00    +0.000 C 
BRANCH  13  16
ATOM     16  C   UNL     1       0.962  15.661  21.179  0.00  0.00    +0.000 C 
ATOM     17  C   UNL     1       2.185  16.591  20.902  0.00  0.00    +0.000 C 
ATOM     18  C   UNL     1       1.913  17.599  19.764  0.00  0.00    +0.000 C 
ATOM     19  C   UNL     1       0.710  18.485  20.108  0.00  0.00    +0.000 C 
ATOM     20  C   UNL     1      -0.525  17.619  20.377  0.00  0.00    +0.000 C 
ATOM     21  C   UNL     1      -0.230  16.623  21.518  0.00  0.00    +0.000 C 
ENDBRANCH  13  16
ENDBRANCH   1  10
BRANCH   1  22
ATOM     22  C   UNL     1      -1.247  10.694  19.399  0.00  0.00    +0.000 C 
BRANCH  22  23
ATOM     23  C   UNL     1      -2.109  10.769  18.163  0.00  0.00    +0.000 A 
ATOM     24  C   UNL     1      -1.830   9.931  17.070  0.00  0.00    +0.000 A 
ATOM     25  C   UNL     1      -2.690   9.894  15.971  0.00  0.00    +0.000 A 
ATOM     26  C   UNL     1      -3.833  10.698  15.949  0.00  0.00    +0.000 A 
ATOM     27  C   UNL     1      -4.116  11.540  17.028  0.00  0.00    +0.000 A 
ATOM     28  C   UNL     1      -3.261  11.575  18.135  0.00  0.00    +0.000 A 
ENDBRANCH  22  23
ENDBRANCH   1  22
TORSDOF 6
ENDMDL
MODEL 7
REMARK VINA RESULT:      -6.3      3.402      6.365
REMARK  Name = 
REMARK  7 active torsions:
REMARK  status: ('A' for Active; 'I' for Inactive)
REMARK    1  A    between atoms: C_1  and  O_2
REMARK    2  A    between atoms: O_2  and  C_3
REMARK    3  A    between atoms: C_6  and  C_7
REMARK    4  A    between atoms: C_7  and  C_8
REMARK    5  A    between atoms: C_7  and  N_15
REMARK    6  A    between atoms: C_8  and  C_9
REMARK    7  A    between atoms: N_18  and  C_19
REMARK                            x       y       z     vdW  Elec       q    Type
REMARK                         _______ _______ _______ _____ _____    ______ ____
ROOT
ATOM      1  C   UNL     1       1.933   7.039  18.937  0.00  0.00    +0.000 C 
ENDROOT
BRANCH   1   5
ATOM      2  C   UNL     1       4.882   4.906  16.460  0.00  0.00    +0.000 A 
ATOM      3  C   UNL     1       3.749   4.207  16.909  0.00  0.00    +0.000 A 
ATOM      4  C   UNL     1       2.774   4.852  17.712  0.00  0.00    +0.000 A 
ATOM      5  C   UNL     1       2.931   6.212  18.085  0.00  0.00    +0.000 A 
ATOM      6  C   UNL     1       4.062   6.885  17.598  0.00  0.00    +0.000 A 
ATOM      7  C   UNL     1       5.018   6.254  16.820  0.00  0.00    +0.000 A 
BRANCH   2   9
ATOM      8  C   UNL     1       7.084   4.781  15.429  0.00  0.00    +0.000 C 
ATOM      9  O   UNL     1       5.812   4.290  15.686  0.00  0.00    +0.000 OA
ENDBRANCH   2   9
ENDBRANCH   1   5
BRANCH   1  10
ATOM     10  N   UNL     1       2.245   8.541  18.920  0.00  0.00    +0.000 NA
ATOM     11  C   UNL     1       1.679   9.385  17.831  0.00  0.00    +0.000 C 
ATOM     12  C   UNL     1       0.149   9.653  17.976  0.00  0.00    +0.000 C 
ATOM     13  N   UNL     1      -0.266  10.151  19.323  0.00  0.00    +0.000 NA
ATOM     14  C   UNL     1       0.384   9.317  20.365  0.00  0.00    +0.000 C 
ATOM     15  C   UNL     1       1.915   9.263  20.169  0.00  0.00    +0.000 C 
BRANCH  13  16
ATOM     16  C   UNL     1      -0.149  11.642  19.518  0.00  0.00    +0.000 C 
ATOM     17  C   UNL     1      -1.240  12.419  18.716  0.00  0.00    +0.000 C 
ATOM     18  C   UNL     1      -2.663  12.166  19.261  0.00  0.00    +0.000 C 
ATOM     19  C   UNL     1      -2.759  12.590  20.731  0.00  0.00    +0.000 C 
ATOM     20  C   UNL     1      -1.714  11.845  21.567  0.00  0.00    +0.000 C 
ATOM     21  C   UNL     1      -0.302  12.115  21.006  0.00  0.00    +0.000 C 
ENDBRANCH  13  16
ENDBRANCH   1  10
BRANCH   1  22
ATOM     22  C   UNL     1       1.818   6.525  20.416  0.00  0.00    +0.000 C 
BRANCH  22  23
ATOM     23  C   UNL     1       1.697   5.046  20.684  0.00  0.00    +0.000 A 
ATOM     24  C   UNL     1       0.662   4.313  20.078  0.00  0.00    +0.000 A 
ATOM     25  C   UNL     1       0.610   2.924  20.211  0.00  0.00    +0.000 A 
ATOM     26  C   UNL     1       1.586   2.254  20.953  0.00  0.00    +0.000 A 
ATOM     27  C   UNL     1       2.616   2.975  21.564  0.00  0.00    +0.000 A 
ATOM     28  C   UNL     1       2.677   4.365  21.428  0.00  0.00    +0.000 A 
ENDBRANCH  22  23
ENDBRANCH   1  22
TORSDOF 6
ENDMDL
MODEL 8
REMARK VINA RESULT:      -6.2      1.078      1.991
REMARK  Name = 
REMARK  7 active torsions:
REMARK  status: ('A' for Active; 'I' for Inactive)
REMARK    1  A    between atoms: C_1  and  O_2
REMARK    2  A    between atoms: O_2  and  C_3
REMARK    3  A    between atoms: C_6  and  C_7
REMARK    4  A    between atoms: C_7  and  C_8
REMARK    5  A    between atoms: C_7  and  N_15
REMARK    6  A    between atoms: C_8  and  C_9
REMARK    7  A    between atoms: N_18  and  C_19
REMARK                            x       y       z     vdW  Elec       q    Type
REMARK                         _______ _______ _______ _____ _____    ______ ____
ROOT
ATOM      1  C   UNL     1       0.559  10.666  18.934  0.00  0.00    +0.000 C 
ENDROOT
BRANCH   1   5
ATOM      2  C   UNL     1       2.518   6.758  19.454  0.00  0.00    +0.000 A 
ATOM      3  C   UNL     1       1.850   7.327  20.551  0.00  0.00    +0.000 A 
ATOM      4  C   UNL     1       1.208   8.586  20.432  0.00  0.00    +0.000 A 
ATOM      5  C   UNL     1       1.237   9.298  19.204  0.00  0.00    +0.000 A 
ATOM      6  C   UNL     1       1.893   8.688  18.123  0.00  0.00    +0.000 A 
ATOM      7  C   UNL     1       2.526   7.462  18.242  0.00  0.00    +0.000 A 
BRANCH   2   9
ATOM      8  C   UNL     1       4.463   5.304  19.282  0.00  0.00    +0.000 C 
ATOM      9  O   UNL     1       3.127   5.551  19.567  0.00  0.00    +0.000 OA
ENDBRANCH   2   9
ENDBRANCH   1   5
BRANCH   1  10
ATOM     10  N   UNL     1       1.221  11.816  19.706  0.00  0.00    +0.000 NA
ATOM     11  C   UNL     1       1.776  12.971  18.947  0.00  0.00    +0.000 C 
ATOM     12  C   UNL     1       0.685  13.922  18.365  0.00  0.00    +0.000 C 
ATOM     13  N   UNL     1      -0.342  14.365  19.358  0.00  0.00    +0.000 NA
ATOM     14  C   UNL     1      -0.805  13.184  20.130  0.00  0.00    +0.000 C 
ATOM     15  C   UNL     1       0.382  12.425  20.763  0.00  0.00    +0.000 C 
BRANCH  13  16
ATOM     16  C   UNL     1       0.042  15.569  20.181  0.00  0.00    +0.000 C 
ATOM     17  C   UNL     1       0.463  16.775  19.283  0.00  0.00    +0.000 C 
ATOM     18  C   UNL     1      -0.719  17.344  18.469  0.00  0.00    +0.000 C 
ATOM     19  C   UNL     1      -1.839  17.815  19.404  0.00  0.00    +0.000 C 
ATOM     20  C   UNL     1      -2.299  16.663  20.302  0.00  0.00    +0.000 C 
ATOM     21  C   UNL     1      -1.103  16.112  21.107  0.00  0.00    +0.000 C 
ENDBRANCH  13  16
ENDBRANCH   1  10
BRANCH   1  22
ATOM     22  C   UNL     1      -0.987  10.649  19.206  0.00  0.00    +0.000 C 
BRANCH  22  23
ATOM     23  C   UNL     1      -1.948  10.702  18.045  0.00  0.00    +0.000 A 
ATOM     24  C   UNL     1      -1.740   9.869  16.932  0.00  0.00    +0.000 A 
ATOM     25  C   UNL     1      -2.686   9.811  15.907  0.00  0.00    +0.000 A 
ATOM     26  C   UNL     1      -3.846  10.588  15.980  0.00  0.00    +0.000 A 
ATOM     27  C   UNL     1      -4.059  11.423  17.079  0.00  0.00    +0.000 A 
ATOM     28  C   UNL     1      -3.118  11.480  18.112  0.00  0.00    +0.000 A 
ENDBRANCH  22  23
ENDBRANCH   1  22
TORSDOF 6
ENDMDL
MODEL 9
REMARK VINA RESULT:      -6.1      1.134      1.804
REMARK  Name = 
REMARK  7 active torsions:
REMARK  status: ('A' for Active; 'I' for Inactive)
REMARK    1  A    between atoms: C_1  and  O_2
REMARK    2  A    between atoms: O_2  and  C_3
REMARK    3  A    between atoms: C_6  and  C_7
REMARK    4  A    between atoms: C_7  and  C_8
REMARK    5  A    between atoms: C_7  and  N_15
REMARK    6  A    between atoms: C_8  and  C_9
REMARK    7  A    between atoms: N_18  and  C_19
REMARK                            x       y       z     vdW  Elec       q    Type
REMARK                         _______ _______ _______ _____ _____    ______ ____
ROOT
ATOM      1  C   UNL     1       0.517  10.753  18.888  0.00  0.00    +0.000 C 
ENDROOT
BRANCH   1   5
ATOM      2  C   UNL     1       2.500   6.863  19.454  0.00  0.00    +0.000 A 
ATOM      3  C   UNL     1       2.557   7.469  18.187  0.00  0.00    +0.000 A 
ATOM      4  C   UNL     1       1.929   8.721  17.957  0.00  0.00    +0.000 A 
ATOM      5  C   UNL     1       1.225   9.378  19.000  0.00  0.00    +0.000 A 
ATOM      6  C   UNL     1       1.210   8.755  20.257  0.00  0.00    +0.000 A 
ATOM      7  C   UNL     1       1.816   7.530  20.480  0.00  0.00    +0.000 A 
BRANCH   2   9
ATOM      8  C   UNL     1       2.536   4.430  19.420  0.00  0.00    +0.000 C 
ATOM      9  O   UNL     1       3.106   5.669  19.675  0.00  0.00    +0.000 OA
ENDBRANCH   2   9
ENDBRANCH   1   5
BRANCH   1  10
ATOM     10  N   UNL     1       1.169  11.826  19.770  0.00  0.00    +0.000 NA
ATOM     11  C   UNL     1       1.818  12.999  19.121  0.00  0.00    +0.000 C 
ATOM     12  C   UNL     1       0.806  14.028  18.529  0.00  0.00    +0.000 C 
ATOM     13  N   UNL     1      -0.268  14.455  19.478  0.00  0.00    +0.000 NA
ATOM     14  C   UNL     1      -0.827  13.252  20.145  0.00  0.00    +0.000 C 
ATOM     15  C   UNL     1       0.284  12.407  20.805  0.00  0.00    +0.000 C 
BRANCH  13  16
ATOM     16  C   UNL     1       0.106  15.592  20.397  0.00  0.00    +0.000 C 
ATOM     17  C   UNL     1       0.605  16.839  19.601  0.00  0.00    +0.000 C 
ATOM     18  C   UNL     1      -0.517  17.495  18.769  0.00  0.00    +0.000 C 
ATOM     19  C   UNL     1      -1.670  17.940  19.676  0.00  0.00    +0.000 C 
ATOM     20  C   UNL     1      -2.208  16.747  20.472  0.00  0.00    +0.000 C 
ATOM     21  C   UNL     1      -1.070  16.109  21.298  0.00  0.00    +0.000 C 
ENDBRANCH  13  16
ENDBRANCH   1  10
BRANCH   1  22
ATOM     22  C   UNL     1      -1.024  10.675  19.178  0.00  0.00    +0.000 C 
BRANCH  22  23
ATOM     23  C   UNL     1      -2.001  10.722  18.030  0.00  0.00    +0.000 A 
ATOM     24  C   UNL     1      -1.845   9.838  16.947  0.00  0.00    +0.000 A 
ATOM     25  C   UNL     1      -2.809   9.779  15.939  0.00  0.00    +0.000 A 
ATOM     26  C   UNL     1      -3.935  10.605  15.998  0.00  0.00    +0.000 A 
ATOM     27  C   UNL     1      -4.097  11.491  17.067  0.00  0.00    +0.000 A 
ATOM     28  C   UNL     1      -3.137  11.549  18.083  0.00  0.00    +0.000 A 
ENDBRANCH  22  23
ENDBRANCH   1  22
TORSDOF 6
ENDMDL
