MODEL 1
REMARK VINA RESULT:      -6.9      0.000      0.000
REMARK  Name = 
REMARK  8 active torsions:
REMARK  status: ('A' for Active; 'I' for Inactive)
REMARK    1  A    between atoms: N_1  and  CA_2
REMARK    2  A    between atoms: CA_2  and  C_3
REMARK    3  A    between atoms: CA_2  and  C_18
REMARK    4  A    between atoms: C_3  and  C_4
REMARK    5  A    between atoms: C_7  and  O_8
REMARK    6  A    between atoms: O_8  and  C_9
REMARK    7  A    between atoms: C_9  and  C_10
REMARK    8  A    between atoms: C_18  and  OXT_20
REMARK                            x       y       z     vdW  Elec       q    Type
REMARK                         _______ _______ _______ _____ _____    ______ ____
ROOT
ATOM      1  C   UNL     1       6.203   4.948  16.516  0.00  0.00    +0.000 A 
ATOM      2  C   UNL     1       5.183   5.842  16.202  0.00  0.00    +0.000 A 
ATOM      3  C   UNL     1       4.359   6.309  17.223  0.00  0.00    +0.000 A 
ATOM      4  C   UNL     1       4.566   5.872  18.525  0.00  0.00    +0.000 A 
ATOM      5  C   UNL     1       5.566   4.933  18.736  0.00  0.00    +0.000 A 
ATOM      6  N   UNL     1       6.405   4.487  17.773  0.00  0.00    +0.000 NA
ENDROOT
BRANCH   1   7
ATOM      7  C   UNL     1       7.188   4.482  15.478  0.00  0.00    +0.000 C 
BRANCH   7   8
ATOM      8  CA  UNL     1       6.669   4.585  14.036  0.00  0.00    +0.000 C 
BRANCH   8   9
ATOM      9  N   UNL     1       6.137   3.307  13.462  0.00  0.00    +0.000 NA
ATOM     10  H1  UNL     1       6.217   3.380  12.442  0.00  0.00    +0.000 HD
ATOM     11  H2  UNL     1       5.114   3.322  13.589  0.00  0.00    +0.000 HD
ENDBRANCH   8   9
BRANCH   8  12
ATOM     12  C   UNL     1       7.730   5.143  13.075  0.00  0.00    +0.000 C 
ATOM     13  O   UNL     1       8.609   5.938  13.367  0.00  0.00    +0.000 OA
BRANCH  12  14
ATOM     14  OXT UNL     1       7.538   4.671  11.814  0.00  0.00    +0.000 OA
ATOM     15  HXT UNL     1       6.633   4.268  11.807  0.00  0.00    +0.000 HD
ENDBRANCH  12  14
ENDBRANCH   8  12
ENDBRANCH   7   8
ENDBRANCH   1   7
BRANCH   4  16
ATOM     16  O   UNL     1       3.764   6.416  19.486  0.00  0.00    +0.000 OA
BRANCH  16  17
ATOM     17  C   UNL     1       2.361   6.294  19.230  0.00  0.00    +0.000 C 
BRANCH  17  18
ATOM     18  C   UNL     1       1.904   4.905  19.590  0.00  0.00    +0.000 A 
ATOM     19  C   UNL     1       1.457   4.021  18.600  0.00  0.00    +0.000 A 
ATOM     20  C   UNL     1       1.074   2.723  18.937  0.00  0.00    +0.000 A 
ATOM     21  C   UNL     1       1.143   2.298  20.263  0.00  0.00    +0.000 A 
ATOM     22  C   UNL     1       1.597   3.166  21.252  0.00  0.00    +0.000 A 
ATOM     23  C   UNL     1       1.980   4.464  20.919  0.00  0.00    +0.000 A 
ENDBRANCH  17  18
ENDBRANCH  16  17
ENDBRANCH   4  16
TORSDOF 8
ENDMDL
MODEL 2
REMARK VINA RESULT:      -6.8      5.078      7.663
REMARK  Name = 
REMARK  8 active torsions:
REMARK  status: ('A' for Active; 'I' for Inactive)
REMARK    1  A    between atoms: N_1  and  CA_2
REMARK    2  A    between atoms: CA_2  and  C_3
REMARK    3  A    between atoms: CA_2  and  C_18
REMARK    4  A    between atoms: C_3  and  C_4
REMARK    5  A    between atoms: C_7  and  O_8
REMARK    6  A    between atoms: O_8  and  C_9
REMARK    7  A    between atoms: C_9  and  C_10
REMARK    8  A    between atoms: C_18  and  OXT_20
REMARK                            x       y       z     vdW  Elec       q    Type
REMARK                         _______ _______ _______ _____ _____    ______ ____
ROOT
ATOM      1  C   UNL     1       5.988   5.103  17.662  0.00  0.00    +0.000 A 
ATOM      2  C   UNL     1       5.794   6.372  17.124  0.00  0.00    +0.000 A 
ATOM      3  C   UNL     1       6.691   7.387  17.450  0.00  0.00    +0.000 A 
ATOM      4  C   UNL     1       7.752   7.115  18.305  0.00  0.00    +0.000 A 
ATOM      5  C   UNL     1       7.832   5.839  18.843  0.00  0.00    +0.000 A 
ATOM      6  N   UNL     1       6.999   4.823  18.519  0.00  0.00    +0.000 NA
ENDROOT
BRANCH   1   7
ATOM      7  C   UNL     1       5.114   3.942  17.273  0.00  0.00    +0.000 C 
BRANCH   7   8
ATOM      8  CA  UNL     1       4.261   3.390  18.425  0.00  0.00    +0.000 C 
BRANCH   8   9
ATOM      9  N   UNL     1       5.034   2.966  19.637  0.00  0.00    +0.000 NA
ATOM     10  H1  UNL     1       4.523   2.183  20.059  0.00  0.00    +0.000 HD
ATOM     11  H2  UNL     1       4.907   3.701  20.349  0.00  0.00    +0.000 HD
ENDBRANCH   8   9
BRANCH   8  12
ATOM     12  C   UNL     1       3.374   2.217  17.981  0.00  0.00    +0.000 C 
ATOM     13  O   UNL     1       3.546   1.044  18.269  0.00  0.00    +0.000 OA
BRANCH  12  14
ATOM     14  OXT UNL     1       2.374   2.648  17.166  0.00  0.00    +0.000 OA
ATOM     15  HXT UNL     1       2.712   3.470  16.728  0.00  0.00    +0.000 HD
ENDBRANCH  12  14
ENDBRANCH   8  12
ENDBRANCH   7   8
ENDBRANCH   1   7
BRANCH   4  16
ATOM     16  O   UNL     1       8.628   8.136  18.533  0.00  0.00    +0.000 OA
BRANCH  16  17
ATOM     17  C   UNL     1       8.266   9.379  17.923  0.00  0.00    +0.000 C 
BRANCH  17  18
ATOM     18  C   UNL     1       9.066  10.494  18.544  0.00  0.00    +0.000 A 
ATOM     19  C   UNL     1       9.341  11.663  17.823  0.00  0.00    +0.000 A 
ATOM     20  C   UNL     1      10.048  12.707  18.421  0.00  0.00    +0.000 A 
ATOM     21  C   UNL     1      10.476  12.593  19.742  0.00  0.00    +0.000 A 
ATOM     22  C   UNL     1      10.196  11.440  20.470  0.00  0.00    +0.000 A 
ATOM     23  C   UNL     1       9.491  10.394  19.877  0.00  0.00    +0.000 A 
ENDBRANCH  17  18
ENDBRANCH  16  17
ENDBRANCH   4  16
TORSDOF 8
ENDMDL
MODEL 3
REMARK VINA RESULT:      -6.8      4.759      7.687
REMARK  Name = 
REMARK  8 active torsions:
REMARK  status: ('A' for Active; 'I' for Inactive)
REMARK    1  A    between atoms: N_1  and  CA_2
REMARK    2  A    between atoms: CA_2  and  C_3
REMARK    3  A    between atoms: CA_2  and  C_18
REMARK    4  A    between atoms: C_3  and  C_4
REMARK    5  A    between atoms: C_7  and  O_8
REMARK    6  A    between atoms: O_8  and  C_9
REMARK    7  A    between atoms: C_9  and  C_10
REMARK    8  A    between atoms: C_18  and  OXT_20
REMARK                            x       y       z     vdW  Elec       q    Type
REMARK                         _______ _______ _______ _____ _____    ______ ____
ROOT
ATOM      1  C   UNL     1       5.616   4.866  17.997  0.00  0.00    +0.000 A 
ATOM      2  C   UNL     1       5.484   6.041  17.262  0.00  0.00    +0.000 A 
ATOM      3  C   UNL     1       6.440   7.043  17.418  0.00  0.00    +0.000 A 
ATOM      4  C   UNL     1       7.494   6.854  18.302  0.00  0.00    +0.000 A 
ATOM      5  C   UNL     1       7.512   5.678  19.038  0.00  0.00    +0.000 A 
ATOM      6  N   UNL     1       6.621   4.671  18.884  0.00  0.00    +0.000 NA
ENDROOT
BRANCH   1   7
ATOM      7  C   UNL     1       4.676   3.707  17.802  0.00  0.00    +0.000 C 
BRANCH   7   8
ATOM      8  CA  UNL     1       4.135   3.117  19.113  0.00  0.00    +0.000 C 
BRANCH   8   9
ATOM      9  N   UNL     1       5.018   2.092  19.758  0.00  0.00    +0.000 NA
ATOM     10  H1  UNL     1       5.543   1.634  19.005  0.00  0.00    +0.000 HD
ATOM     11  H2  UNL     1       4.407   1.326  20.078  0.00  0.00    +0.000 HD
ENDBRANCH   8   9
BRANCH   8  12
ATOM     12  C   UNL     1       2.734   2.511  18.943  0.00  0.00    +0.000 C 
ATOM     13  O   UNL     1       1.714   2.908  19.484  0.00  0.00    +0.000 OA
BRANCH  12  14
ATOM     14  OXT UNL     1       2.773   1.419  18.134  0.00  0.00    +0.000 OA
ATOM     15  HXT UNL     1       3.713   1.107  18.139  0.00  0.00    +0.000 HD
ENDBRANCH  12  14
ENDBRANCH   8  12
ENDBRANCH   7   8
ENDBRANCH   1   7
BRANCH   4  16
ATOM     16  O   UNL     1       8.427   7.848  18.360  0.00  0.00    +0.000 OA
BRANCH  16  17
ATOM     17  C   UNL     1       8.060   9.051  17.677  0.00  0.00    +0.000 C 
BRANCH  17  18
ATOM     18  C   UNL     1       8.684  10.232  18.370  0.00  0.00    +0.000 A 
ATOM     19  C   UNL     1       9.263  10.093  19.638  0.00  0.00    +0.000 A 
ATOM     20  C   UNL     1       9.875  11.184  20.255  0.00  0.00    +0.000 A 
ATOM     21  C   UNL     1       9.920  12.417  19.607  0.00  0.00    +0.000 A 
ATOM     22  C   UNL     1       9.358  12.562  18.342  0.00  0.00    +0.000 A 
ATOM     23  C   UNL     1       8.745  11.475  17.721  0.00  0.00    +0.000 A 
ENDBRANCH  17  18
ENDBRANCH  16  17
ENDBRANCH   4  16
TORSDOF 8
ENDMDL
MODEL 4
REMARK VINA RESULT:      -6.8      2.812      3.986
REMARK  Name = 
REMARK  8 active torsions:
REMARK  status: ('A' for Active; 'I' for Inactive)
REMARK    1  A    between atoms: N_1  and  CA_2
REMARK    2  A    between atoms: CA_2  and  C_3
REMARK    3  A    between atoms: CA_2  and  C_18
REMARK    4  A    between atoms: C_3  and  C_4
REMARK    5  A    between atoms: C_7  and  O_8
REMARK    6  A    between atoms: O_8  and  C_9
REMARK    7  A    between atoms: C_9  and  C_10
REMARK    8  A    between atoms: C_18  and  OXT_20
REMARK                            x       y       z     vdW  Elec       q    Type
REMARK                         _______ _______ _______ _____ _____    ______ ____
ROOT
ATOM      1  C   UNL     1       5.807   5.741  16.980  0.00  0.00    +0.000 A 
ATOM      2  C   UNL     1       4.608   6.149  17.557  0.00  0.00    +0.000 A 
ATOM      3  C   UNL     1       3.497   5.314  17.463  0.00  0.00    +0.000 A 
ATOM      4  C   UNL     1       3.604   4.102  16.795  0.00  0.00    +0.000 A 
ATOM      5  C   UNL     1       4.821   3.804  16.197  0.00  0.00    +0.000 A 
ATOM      6  N   UNL     1       5.927   4.576  16.300  0.00  0.00    +0.000 NA
ENDROOT
BRANCH   1   7
ATOM      7  C   UNL     1       7.068   6.548  17.130  0.00  0.00    +0.000 C 
BRANCH   7   8
ATOM      8  CA  UNL     1       7.487   6.783  18.589  0.00  0.00    +0.000 C 
BRANCH   8   9
ATOM      9  N   UNL     1       8.605   7.764  18.776  0.00  0.00    +0.000 NA
ATOM     10  H1  UNL     1       8.301   8.648  18.354  0.00  0.00    +0.000 HD
ATOM     11  H2  UNL     1       9.364   7.482  18.137  0.00  0.00    +0.000 HD
ENDBRANCH   8   9
BRANCH   8  12
ATOM     12  C   UNL     1       7.864   5.476  19.302  0.00  0.00    +0.000 C 
ATOM     13  O   UNL     1       7.906   5.309  20.511  0.00  0.00    +0.000 OA
BRANCH  12  14
ATOM     14  OXT UNL     1       8.204   4.514  18.404  0.00  0.00    +0.000 OA
ATOM     15  HXT UNL     1       9.077   4.788  18.025  0.00  0.00    +0.000 HD
ENDBRANCH  12  14
ENDBRANCH   8  12
ENDBRANCH   7   8
ENDBRANCH   1   7
BRANCH   4  16
ATOM     16  O   UNL     1       2.497   3.305  16.794  0.00  0.00    +0.000 OA
BRANCH  16  17
ATOM     17  C   UNL     1       2.615   2.119  17.586  0.00  0.00    +0.000 C 
BRANCH  17  18
ATOM     18  C   UNL     1       2.329   2.448  19.027  0.00  0.00    +0.000 A 
ATOM     19  C   UNL     1       3.321   2.297  20.005  0.00  0.00    +0.000 A 
ATOM     20  C   UNL     1       3.060   2.643  21.331  0.00  0.00    +0.000 A 
ATOM     21  C   UNL     1       1.810   3.149  21.686  0.00  0.00    +0.000 A 
ATOM     22  C   UNL     1       0.823   3.315  20.720  0.00  0.00    +0.000 A 
ATOM     23  C   UNL     1       1.079   2.970  19.393  0.00  0.00    +0.000 A 
ENDBRANCH  17  18
ENDBRANCH  16  17
ENDBRANCH   4  16
TORSDOF 8
ENDMDL
MODEL 5
REMARK VINA RESULT:      -6.8      5.045      7.684
REMARK  Name = 
REMARK  8 active torsions:
REMARK  status: ('A' for Active; 'I' for Inactive)
REMARK    1  A    between atoms: N_1  and  CA_2
REMARK    2  A    between atoms: CA_2  and  C_3
REMARK    3  A    between atoms: CA_2  and  C_18
REMARK    4  A    between atoms: C_3  and  C_4
REMARK    5  A    between atoms: C_7  and  O_8
REMARK    6  A    between atoms: O_8  and  C_9
REMARK    7  A    between atoms: C_9  and  C_10
REMARK    8  A    between atoms: C_18  and  OXT_20
REMARK                            x       y       z     vdW  Elec       q    Type
REMARK                         _______ _______ _______ _____ _____    ______ ____
ROOT
ATOM      1  C   UNL     1       6.050   5.186  17.567  0.00  0.00    +0.000 A 
ATOM      2  C   UNL     1       6.027   6.427  16.937  0.00  0.00    +0.000 A 
ATOM      3  C   UNL     1       6.925   7.409  17.350  0.00  0.00    +0.000 A 
ATOM      4  C   UNL     1       7.815   7.134  18.380  0.00  0.00    +0.000 A 
ATOM      5  C   UNL     1       7.726   5.892  18.992  0.00  0.00    +0.000 A 
ATOM      6  N   UNL     1       6.891   4.906  18.591  0.00  0.00    +0.000 NA
ENDROOT
BRANCH   1   7
ATOM      7  C   UNL     1       5.176   4.052  17.104  0.00  0.00    +0.000 C 
BRANCH   7   8
ATOM      8  CA  UNL     1       4.163   3.576  18.156  0.00  0.00    +0.000 C 
BRANCH   8   9
ATOM      9  N   UNL     1       4.162   2.099  18.410  0.00  0.00    +0.000 NA
ATOM     10  H1  UNL     1       3.968   1.641  17.513  0.00  0.00    +0.000 HD
ATOM     11  H2  UNL     1       3.304   1.884  18.940  0.00  0.00    +0.000 HD
ENDBRANCH   8   9
BRANCH   8  12
ATOM     12  C   UNL     1       2.729   4.011  17.820  0.00  0.00    +0.000 C 
ATOM     13  O   UNL     1       2.124   4.936  18.337  0.00  0.00    +0.000 OA
BRANCH  12  14
ATOM     14  OXT UNL     1       2.179   3.188  16.886  0.00  0.00    +0.000 OA
ATOM     15  HXT UNL     1       1.198   3.289  16.975  0.00  0.00    +0.000 HD
ENDBRANCH  12  14
ENDBRANCH   8  12
ENDBRANCH   7   8
ENDBRANCH   1   7
BRANCH   4  16
ATOM     16  O   UNL     1       8.708   8.117  18.693  0.00  0.00    +0.000 OA
BRANCH  16  17
ATOM     17  C   UNL     1       8.389   9.405  18.155  0.00  0.00    +0.000 C 
BRANCH  17  18
ATOM     18  C   UNL     1       9.333  10.432  18.720  0.00  0.00    +0.000 A 
ATOM     19  C   UNL     1      10.149  11.195  17.875  0.00  0.00    +0.000 A 
ATOM     20  C   UNL     1      10.991  12.173  18.405  0.00  0.00    +0.000 A 
ATOM     21  C   UNL     1      11.017  12.400  19.780  0.00  0.00    +0.000 A 
ATOM     22  C   UNL     1      10.201  11.656  20.627  0.00  0.00    +0.000 A 
ATOM     23  C   UNL     1       9.358  10.677  20.102  0.00  0.00    +0.000 A 
ENDBRANCH  17  18
ENDBRANCH  16  17
ENDBRANCH   4  16
TORSDOF 8
ENDMDL
MODEL 6
REMARK VINA RESULT:      -6.8      5.121      7.854
REMARK  Name = 
REMARK  8 active torsions:
REMARK  status: ('A' for Active; 'I' for Inactive)
REMARK    1  A    between atoms: N_1  and  CA_2
REMARK    2  A    between atoms: CA_2  and  C_3
REMARK    3  A    between atoms: CA_2  and  C_18
REMARK    4  A    between atoms: C_3  and  C_4
REMARK    5  A    between atoms: C_7  and  O_8
REMARK    6  A    between atoms: O_8  and  C_9
REMARK    7  A    between atoms: C_9  and  C_10
REMARK    8  A    between atoms: C_18  and  OXT_20
REMARK                            x       y       z     vdW  Elec       q    Type
REMARK                         _______ _______ _______ _____ _____    ______ ____
ROOT
ATOM      1  C   UNL     1       5.868   5.153  17.853  0.00  0.00    +0.000 A 
ATOM      2  C   UNL     1       5.893   6.305  17.073  0.00  0.00    +0.000 A 
ATOM      3  C   UNL     1       6.859   7.274  17.335  0.00  0.00    +0.000 A 
ATOM      4  C   UNL     1       7.769   7.075  18.365  0.00  0.00    +0.000 A 
ATOM      5  C   UNL     1       7.631   5.925  19.130  0.00  0.00    +0.000 A 
ATOM      6  N   UNL     1       6.727   4.950  18.880  0.00  0.00    +0.000 NA
ENDROOT
BRANCH   1   7
ATOM      7  C   UNL     1       4.914   4.026  17.561  0.00  0.00    +0.000 C 
BRANCH   7   8
ATOM      8  CA  UNL     1       3.852   3.809  18.649  0.00  0.00    +0.000 C 
BRANCH   8   9
ATOM      9  N   UNL     1       3.792   4.880  19.696  0.00  0.00    +0.000 NA
ATOM     10  H1  UNL     1       3.320   5.686  19.273  0.00  0.00    +0.000 HD
ATOM     11  H2  UNL     1       4.751   5.242  19.813  0.00  0.00    +0.000 HD
ENDBRANCH   8   9
BRANCH   8  12
ATOM     12  C   UNL     1       4.009   2.452  19.352  0.00  0.00    +0.000 C 
ATOM     13  O   UNL     1       4.014   2.270  20.559  0.00  0.00    +0.000 OA
BRANCH  12  14
ATOM     14  OXT UNL     1       4.196   1.456  18.446  0.00  0.00    +0.000 OA
ATOM     15  HXT UNL     1       3.851   1.800  17.583  0.00  0.00    +0.000 HD
ENDBRANCH  12  14
ENDBRANCH   8  12
ENDBRANCH   7   8
ENDBRANCH   1   7
BRANCH   4  16
ATOM     16  O   UNL     1       8.727   8.033  18.527  0.00  0.00    +0.000 OA
BRANCH  16  17
ATOM     17  C   UNL     1       8.311   9.356  18.174  0.00  0.00    +0.000 C 
BRANCH  17  18
ATOM     18  C   UNL     1       9.293  10.354  18.729  0.00  0.00    +0.000 A 
ATOM     19  C   UNL     1      10.123  11.091  17.874  0.00  0.00    +0.000 A 
ATOM     20  C   UNL     1      11.001  12.042  18.394  0.00  0.00    +0.000 A 
ATOM     21  C   UNL     1      11.049  12.269  19.769  0.00  0.00    +0.000 A 
ATOM     22  C   UNL     1      10.219  11.551  20.624  0.00  0.00    +0.000 A 
ATOM     23  C   UNL     1       9.340  10.599  20.109  0.00  0.00    +0.000 A 
ENDBRANCH  17  18
ENDBRANCH  16  17
ENDBRANCH   4  16
TORSDOF 8
ENDMDL
MODEL 7
REMARK VINA RESULT:      -6.8      5.006      7.705
REMARK  Name = 
REMARK  8 active torsions:
REMARK  status: ('A' for Active; 'I' for Inactive)
REMARK    1  A    between atoms: N_1  and  CA_2
REMARK    2  A    between atoms: CA_2  and  C_3
REMARK    3  A    between atoms: CA_2  and  C_18
REMARK    4  A    between atoms: C_3  and  C_4
REMARK    5  A    between atoms: C_7  and  O_8
REMARK    6  A    between atoms: O_8  and  C_9
REMARK    7  A    between atoms: C_9  and  C_10
REMARK    8  A    between atoms: C_18  and  OXT_20
REMARK                            x       y       z     vdW  Elec       q    Type
REMARK                         _______ _______ _______ _____ _____    ______ ____
ROOT
ATOM      1  C   UNL     1       6.022   5.161  17.553  0.00  0.00    +0.000 A 
ATOM      2  C   UNL     1       5.987   6.392  16.904  0.00  0.00    +0.000 A 
ATOM      3  C   UNL     1       6.892   7.380  17.285  0.00  0.00    +0.000 A 
ATOM      4  C   UNL     1       7.802   7.121  18.302  0.00  0.00    +0.000 A 
ATOM      5  C   UNL     1       7.725   5.888  18.934  0.00  0.00    +0.000 A 
ATOM      6  N   UNL     1       6.882   4.896  18.565  0.00  0.00    +0.000 NA
ENDROOT
BRANCH   1   7
ATOM      7  C   UNL     1       5.140   4.020  17.123  0.00  0.00    +0.000 C 
BRANCH   7   8
ATOM      8  CA  UNL     1       4.070   3.637  18.157  0.00  0.00    +0.000 C 
BRANCH   8   9
ATOM      9  N   UNL     1       3.973   2.171  18.454  0.00  0.00    +0.000 NA
ATOM     10  H1  UNL     1       4.629   1.694  17.825  0.00  0.00    +0.000 HD
ATOM     11  H2  UNL     1       3.065   1.847  18.087  0.00  0.00    +0.000 HD
ENDBRANCH   8   9
BRANCH   8  12
ATOM     12  C   UNL     1       2.674   4.145  17.763  0.00  0.00    +0.000 C 
ATOM     13  O   UNL     1       2.276   5.293  17.871  0.00  0.00    +0.000 OA
BRANCH  12  14
ATOM     14  OXT UNL     1       1.896   3.124  17.314  0.00  0.00    +0.000 OA
ATOM     15  HXT UNL     1       1.098   3.546  16.906  0.00  0.00    +0.000 HD
ENDBRANCH  12  14
ENDBRANCH   8  12
ENDBRANCH   7   8
ENDBRANCH   1   7
BRANCH   4  16
ATOM     16  O   UNL     1       8.701   8.109  18.583  0.00  0.00    +0.000 OA
BRANCH  16  17
ATOM     17  C   UNL     1       8.333   9.404  18.097  0.00  0.00    +0.000 C 
BRANCH  17  18
ATOM     18  C   UNL     1       9.225  10.444  18.720  0.00  0.00    +0.000 A 
ATOM     19  C   UNL     1       9.301  10.581  20.112  0.00  0.00    +0.000 A 
ATOM     20  C   UNL     1      10.160  11.520  20.681  0.00  0.00    +0.000 A 
ATOM     21  C   UNL     1      10.955  12.323  19.865  0.00  0.00    +0.000 A 
ATOM     22  C   UNL     1      10.896  12.187  18.481  0.00  0.00    +0.000 A 
ATOM     23  C   UNL     1      10.038  11.249  17.907  0.00  0.00    +0.000 A 
ENDBRANCH  17  18
ENDBRANCH  16  17
ENDBRANCH   4  16
TORSDOF 8
ENDMDL
MODEL 8
REMARK VINA RESULT:      -6.8      0.210      1.311
REMARK  Name = 
REMARK  8 active torsions:
REMARK  status: ('A' for Active; 'I' for Inactive)
REMARK    1  A    between atoms: N_1  and  CA_2
REMARK    2  A    between atoms: CA_2  and  C_3
REMARK    3  A    between atoms: CA_2  and  C_18
REMARK    4  A    between atoms: C_3  and  C_4
REMARK    5  A    between atoms: C_7  and  O_8
REMARK    6  A    between atoms: O_8  and  C_9
REMARK    7  A    between atoms: C_9  and  C_10
REMARK    8  A    between atoms: C_18  and  OXT_20
REMARK                            x       y       z     vdW  Elec       q    Type
REMARK                         _______ _______ _______ _____ _____    ______ ____
ROOT
ATOM      1  C   UNL     1       6.284   5.068  16.409  0.00  0.00    +0.000 A 
ATOM      2  C   UNL     1       5.217   5.920  16.141  0.00  0.00    +0.000 A 
ATOM      3  C   UNL     1       4.385   6.308  17.190  0.00  0.00    +0.000 A 
ATOM      4  C   UNL     1       4.632   5.835  18.471  0.00  0.00    +0.000 A 
ATOM      5  C   UNL     1       5.681   4.940  18.635  0.00  0.00    +0.000 A 
ATOM      6  N   UNL     1       6.527   4.573  17.646  0.00  0.00    +0.000 NA
ENDROOT
BRANCH   1   7
ATOM      7  C   UNL     1       7.276   4.691  15.342  0.00  0.00    +0.000 C 
BRANCH   7   8
ATOM      8  CA  UNL     1       6.665   4.566  13.939  0.00  0.00    +0.000 C 
BRANCH   8   9
ATOM      9  N   UNL     1       6.218   3.185  13.564  0.00  0.00    +0.000 NA
ATOM     10  H1  UNL     1       5.201   3.152  13.699  0.00  0.00    +0.000 HD
ATOM     11  H2  UNL     1       6.544   2.549  14.308  0.00  0.00    +0.000 HD
ENDBRANCH   8   9
BRANCH   8  12
ATOM     12  C   UNL     1       7.611   5.082  12.844  0.00  0.00    +0.000 C 
ATOM     13  O   UNL     1       7.534   4.824  11.654  0.00  0.00    +0.000 OA
BRANCH  12  14
ATOM     14  OXT UNL     1       8.603   5.843  13.381  0.00  0.00    +0.000 OA
ATOM     15  HXT UNL     1       9.419   5.639  12.857  0.00  0.00    +0.000 HD
ENDBRANCH  12  14
ENDBRANCH   8  12
ENDBRANCH   7   8
ENDBRANCH   1   7
BRANCH   4  16
ATOM     16  O   UNL     1       3.818   6.302  19.462  0.00  0.00    +0.000 OA
BRANCH  16  17
ATOM     17  C   UNL     1       2.419   6.218  19.172  0.00  0.00    +0.000 C 
BRANCH  17  18
ATOM     18  C   UNL     1       1.933   4.820  19.446  0.00  0.00    +0.000 A 
ATOM     19  C   UNL     1       1.857   4.334  20.757  0.00  0.00    +0.000 A 
ATOM     20  C   UNL     1       1.367   3.051  21.005  0.00  0.00    +0.000 A 
ATOM     21  C   UNL     1       0.943   2.250  19.946  0.00  0.00    +0.000 A 
ATOM     22  C   UNL     1       1.003   2.729  18.640  0.00  0.00    +0.000 A 
ATOM     23  C   UNL     1       1.492   4.010  18.388  0.00  0.00    +0.000 A 
ENDBRANCH  17  18
ENDBRANCH  16  17
ENDBRANCH   4  16
TORSDOF 8
ENDMDL
MODEL 9
REMARK VINA RESULT:      -6.7      2.653      7.336
REMARK  Name = 
REMARK  8 active torsions:
REMARK  status: ('A' for Active; 'I' for Inactive)
REMARK    1  A    between atoms: N_1  and  CA_2
REMARK    2  A    between atoms: CA_2  and  C_3
REMARK    3  A    between atoms: CA_2  and  C_18
REMARK    4  A    between atoms: C_3  and  C_4
REMARK    5  A    between atoms: C_7  and  O_8
REMARK    6  A    between atoms: O_8  and  C_9
REMARK    7  A    between atoms: C_9  and  C_10
REMARK    8  A    between atoms: C_18  and  OXT_20
REMARK                            x       y       z     vdW  Elec       q    Type
REMARK                         _______ _______ _______ _____ _____    ______ ____
ROOT
ATOM      1  C   UNL     1       2.964   4.960  19.242  0.00  0.00    +0.000 A 
ATOM      2  C   UNL     1       2.828   5.010  17.857  0.00  0.00    +0.000 A 
ATOM      3  C   UNL     1       3.947   4.770  17.062  0.00  0.00    +0.000 A 
ATOM      4  C   UNL     1       5.168   4.494  17.663  0.00  0.00    +0.000 A 
ATOM      5  C   UNL     1       5.224   4.526  19.049  0.00  0.00    +0.000 A 
ATOM      6  N   UNL     1       4.150   4.720  19.849  0.00  0.00    +0.000 NA
ENDROOT
BRANCH   1   7
ATOM      7  C   UNL     1       1.777   5.112  20.154  0.00  0.00    +0.000 C 
BRANCH   7   8
ATOM      8  CA  UNL     1       1.296   3.792  20.776  0.00  0.00    +0.000 C 
BRANCH   8   9
ATOM      9  N   UNL     1       2.165   3.255  21.872  0.00  0.00    +0.000 NA
ATOM     10  H1  UNL     1       3.025   2.911  21.431  0.00  0.00    +0.000 HD
ATOM     11  H2  UNL     1       1.735   2.376  22.197  0.00  0.00    +0.000 HD
ENDBRANCH   8   9
BRANCH   8  12
ATOM     12  C   UNL     1       1.107   2.689  19.723  0.00  0.00    +0.000 C 
ATOM     13  O   UNL     1       0.145   2.567  18.982  0.00  0.00    +0.000 OA
BRANCH  12  14
ATOM     14  OXT UNL     1       2.145   1.810  19.751  0.00  0.00    +0.000 OA
ATOM     15  HXT UNL     1       1.847   1.051  20.313  0.00  0.00    +0.000 HD
ENDBRANCH  12  14
ENDBRANCH   8  12
ENDBRANCH   7   8
ENDBRANCH   1   7
BRANCH   4  16
ATOM     16  O   UNL     1       6.208   4.208  16.827  0.00  0.00    +0.000 OA
BRANCH  16  17
ATOM     17  C   UNL     1       6.630   5.301  16.005  0.00  0.00    +0.000 C 
BRANCH  17  18
ATOM     18  C   UNL     1       6.758   4.835  14.579  0.00  0.00    +0.000 A 
ATOM     19  C   UNL     1       5.925   3.826  14.078  0.00  0.00    +0.000 A 
ATOM     20  C   UNL     1       6.023   3.429  12.745  0.00  0.00    +0.000 A 
ATOM     21  C   UNL     1       6.949   4.043  11.901  0.00  0.00    +0.000 A 
ATOM     22  C   UNL     1       7.773   5.054  12.386  0.00  0.00    +0.000 A 
ATOM     23  C   UNL     1       7.678   5.454  13.719  0.00  0.00    +0.000 A 
ENDBRANCH  17  18
ENDBRANCH  16  17
ENDBRANCH   4  16
TORSDOF 8
ENDMDL
