MODEL 1
REMARK VINA RESULT:      -7.4      0.000      0.000
REMARK  Name = 
REMARK  8 active torsions:
REMARK  status: ('A' for Active; 'I' for Inactive)
REMARK    1  A    between atoms: C_1  and  O_2
REMARK    2  A    between atoms: O_2  and  C_3
REMARK    3  A    between atoms: C_3  and  C_5
REMARK    4  A    between atoms: C_6  and  N_7
REMARK    5  A    between atoms: N_7  and  C_8
REMARK    6  A    between atoms: C_8  and  N_10
REMARK    7  A    between atoms: N_10  and  C_11
REMARK    8  A    between atoms: C_14  and  C_15
REMARK                            x       y       z     vdW  Elec       q    Type
REMARK                         _______ _______ _______ _____ _____    ______ ____
ROOT
ATOM      1  C   UNL     1       3.543   4.167  19.090  0.00  0.00    +0.000 A 
ATOM      2  C   UNL     1       4.103   4.509  17.857  0.00  0.00    +0.000 A 
ATOM      3  S   UNL     1       3.712   6.098  17.401  0.00  0.00    +0.000 S 
ATOM      4  C   UNL     1       2.883   6.407  18.829  0.00  0.00    +0.000 A 
ATOM      5  C   UNL     1       2.812   5.301  19.652  0.00  0.00    +0.000 A 
ATOM      6  C   UNL     1       2.034   5.374  20.942  0.00  0.00    +0.000 C 
ATOM      7  C   UNL     1       1.054   6.562  20.957  0.00  0.00    +0.000 C 
ATOM      8  C   UNL     1       1.721   7.859  20.487  0.00  0.00    +0.000 C 
ATOM      9  C   UNL     1       2.233   7.734  19.051  0.00  0.00    +0.000 C 
ENDROOT
BRANCH   1  10
ATOM     10  C   UNL     1       3.684   2.827  19.681  0.00  0.00    +0.000 C 
ATOM     11  O   UNL     1       4.772   2.304  19.897  0.00  0.00    +0.000 OA
BRANCH  10  13
ATOM     12  C   UNL     1       1.662   1.931  18.812  0.00  0.00    +0.000 C 
ATOM     13  O   UNL     1       2.485   2.232  19.940  0.00  0.00    +0.000 OA
ENDBRANCH  10  13
ENDBRANCH   1  10
BRANCH   2  14
ATOM     14  N   UNL     1       4.788   3.683  16.963  0.00  0.00    +0.000 N 
ATOM     15  H   UNL     1       4.482   2.712  16.960  0.00  0.00    +0.000 HD
BRANCH  14  16
ATOM     16  C   UNL     1       5.955   3.929  16.222  0.00  0.00    +0.000 C 
ATOM     17  S   UNL     1       6.134   3.878  14.546  0.00  0.00    +0.000 S 
BRANCH  16  18
ATOM     18  N   UNL     1       7.009   4.223  17.113  0.00  0.00    +0.000 N 
ATOM     19  H   UNL     1       7.761   3.545  17.077  0.00  0.00    +0.000 HD
BRANCH  18  20
ATOM     20  C   UNL     1       7.364   5.518  17.572  0.00  0.00    +0.000 A 
ATOM     21  C   UNL     1       7.168   6.645  16.774  0.00  0.00    +0.000 A 
ATOM     22  C   UNL     1       7.633   7.896  17.174  0.00  0.00    +0.000 A 
ATOM     23  C   UNL     1       8.265   8.049  18.409  0.00  0.00    +0.000 A 
ATOM     24  C   UNL     1       8.840   9.377  18.799  0.00  0.00    +0.000 C 
ATOM     25  C   UNL     1       8.371   6.941  19.258  0.00  0.00    +0.000 A 
ATOM     26  C   UNL     1       7.914   5.678  18.845  0.00  0.00    +0.000 A 
ENDBRANCH  18  20
ENDBRANCH  16  18
ENDBRANCH  14  16
ENDBRANCH   2  14
TORSDOF 6
ENDMDL
MODEL 2
REMARK VINA RESULT:      -7.3      2.748      4.784
REMARK  Name = 
REMARK  8 active torsions:
REMARK  status: ('A' for Active; 'I' for Inactive)
REMARK    1  A    between atoms: C_1  and  O_2
REMARK    2  A    between atoms: O_2  and  C_3
REMARK    3  A    between atoms: C_3  and  C_5
REMARK    4  A    between atoms: C_6  and  N_7
REMARK    5  A    between atoms: N_7  and  C_8
REMARK    6  A    between atoms: C_8  and  N_10
REMARK    7  A    between atoms: N_10  and  C_11
REMARK    8  A    between atoms: C_14  and  C_15
REMARK                            x       y       z     vdW  Elec       q    Type
REMARK                         _______ _______ _______ _____ _____    ______ ____
ROOT
ATOM      1  C   UNL     1       3.809   5.447  18.276  0.00  0.00    +0.000 A 
ATOM      2  C   UNL     1       5.052   5.066  18.786  0.00  0.00    +0.000 A 
ATOM      3  S   UNL     1       5.012   3.504  19.453  0.00  0.00    +0.000 S 
ATOM      4  C   UNL     1       3.409   3.255  19.021  0.00  0.00    +0.000 A 
ATOM      5  C   UNL     1       2.838   4.366  18.433  0.00  0.00    +0.000 A 
ATOM      6  C   UNL     1       1.378   4.348  18.053  0.00  0.00    +0.000 C 
ATOM      7  C   UNL     1       0.609   3.228  18.777  0.00  0.00    +0.000 C 
ATOM      8  C   UNL     1       1.349   1.889  18.706  0.00  0.00    +0.000 C 
ATOM      9  C   UNL     1       2.724   1.974  19.372  0.00  0.00    +0.000 C 
ENDROOT
BRANCH   1  10
ATOM     10  C   UNL     1       3.564   6.778  17.696  0.00  0.00    +0.000 C 
ATOM     11  O   UNL     1       4.223   7.232  16.768  0.00  0.00    +0.000 OA
BRANCH  10  13
ATOM     12  C   UNL     1       2.289   8.776  17.859  0.00  0.00    +0.000 C 
ATOM     13  O   UNL     1       2.547   7.446  18.312  0.00  0.00    +0.000 OA
ENDBRANCH  10  13
ENDBRANCH   1  10
BRANCH   2  14
ATOM     14  N   UNL     1       6.206   5.842  18.913  0.00  0.00    +0.000 N 
ATOM     15  H   UNL     1       6.308   6.309  19.813  0.00  0.00    +0.000 HD
BRANCH  14  16
ATOM     16  C   UNL     1       7.136   6.241  17.939  0.00  0.00    +0.000 C 
ATOM     17  S   UNL     1       7.713   7.800  17.653  0.00  0.00    +0.000 S 
BRANCH  16  18
ATOM     18  N   UNL     1       7.527   5.111  17.190  0.00  0.00    +0.000 N 
ATOM     19  H   UNL     1       7.871   4.351  17.767  0.00  0.00    +0.000 HD
BRANCH  18  20
ATOM     20  C   UNL     1       7.006   4.741  15.924  0.00  0.00    +0.000 A 
ATOM     21  C   UNL     1       5.922   3.869  15.817  0.00  0.00    +0.000 A 
ATOM     22  C   UNL     1       5.494   3.408  14.574  0.00  0.00    +0.000 A 
ATOM     23  C   UNL     1       6.119   3.849  13.407  0.00  0.00    +0.000 A 
ATOM     24  C   UNL     1       5.714   3.285  12.078  0.00  0.00    +0.000 C 
ATOM     25  C   UNL     1       7.140   4.802  13.504  0.00  0.00    +0.000 A 
ATOM     26  C   UNL     1       7.579   5.254  14.759  0.00  0.00    +0.000 A 
ENDBRANCH  18  20
ENDBRANCH  16  18
ENDBRANCH  14  16
ENDBRANCH   2  14
TORSDOF 6
ENDMDL
MODEL 3
REMARK VINA RESULT:      -7.1      0.351      1.043
REMARK  Name = 
REMARK  8 active torsions:
REMARK  status: ('A' for Active; 'I' for Inactive)
REMARK    1  A    between atoms: C_1  and  O_2
REMARK    2  A    between atoms: O_2  and  C_3
REMARK    3  A    between atoms: C_3  and  C_5
REMARK    4  A    between atoms: C_6  and  N_7
REMARK    5  A    between atoms: N_7  and  C_8
REMARK    6  A    between atoms: C_8  and  N_10
REMARK    7  A    between atoms: N_10  and  C_11
REMARK    8  A    between atoms: C_14  and  C_15
REMARK                            x       y       z     vdW  Elec       q    Type
REMARK                         _______ _______ _______ _____ _____    ______ ____
ROOT
ATOM      1  C   UNL     1       3.184   4.368  19.017  0.00  0.00    +0.000 A 
ATOM      2  C   UNL     1       3.790   4.721  17.809  0.00  0.00    +0.000 A 
ATOM      3  S   UNL     1       3.530   6.355  17.423  0.00  0.00    +0.000 S 
ATOM      4  C   UNL     1       2.702   6.662  18.851  0.00  0.00    +0.000 A 
ATOM      5  C   UNL     1       2.531   5.528  19.621  0.00  0.00    +0.000 A 
ATOM      6  C   UNL     1       1.738   5.602  20.902  0.00  0.00    +0.000 C 
ATOM      7  C   UNL     1       0.851   6.860  20.957  0.00  0.00    +0.000 C 
ATOM      8  C   UNL     1       1.623   8.121  20.559  0.00  0.00    +0.000 C 
ATOM      9  C   UNL     1       2.151   8.024  19.126  0.00  0.00    +0.000 C 
ENDROOT
BRANCH   1  10
ATOM     10  C   UNL     1       3.211   2.995  19.546  0.00  0.00    +0.000 C 
ATOM     11  O   UNL     1       4.250   2.365  19.714  0.00  0.00    +0.000 OA
BRANCH  10  13
ATOM     12  C   UNL     1       1.138   2.226  18.678  0.00  0.00    +0.000 C 
ATOM     13  O   UNL     1       1.967   2.502  19.808  0.00  0.00    +0.000 OA
ENDBRANCH  10  13
ENDBRANCH   1  10
BRANCH   2  14
ATOM     14  N   UNL     1       4.426   3.887  16.888  0.00  0.00    +0.000 N 
ATOM     15  H   UNL     1       3.978   2.982  16.753  0.00  0.00    +0.000 HD
BRANCH  14  16
ATOM     16  C   UNL     1       5.684   4.013  16.276  0.00  0.00    +0.000 C 
ATOM     17  S   UNL     1       6.034   3.921  14.628  0.00  0.00    +0.000 S 
BRANCH  16  18
ATOM     18  N   UNL     1       6.659   4.221  17.274  0.00  0.00    +0.000 N 
ATOM     19  H   UNL     1       7.226   3.400  17.453  0.00  0.00    +0.000 HD
BRANCH  18  20
ATOM     20  C   UNL     1       7.254   5.467  17.598  0.00  0.00    +0.000 A 
ATOM     21  C   UNL     1       7.933   5.650  18.804  0.00  0.00    +0.000 A 
ATOM     22  C   UNL     1       8.405   6.907  19.176  0.00  0.00    +0.000 A 
ATOM     23  C   UNL     1       8.244   7.999  18.323  0.00  0.00    +0.000 A 
ATOM     24  C   UNL     1       8.675   9.366  18.763  0.00  0.00    +0.000 C 
ATOM     25  C   UNL     1       7.655   7.799  17.069  0.00  0.00    +0.000 A 
ATOM     26  C   UNL     1       7.167   6.534  16.702  0.00  0.00    +0.000 A 
ENDBRANCH  18  20
ENDBRANCH  16  18
ENDBRANCH  14  16
ENDBRANCH   2  14
TORSDOF 6
ENDMDL
MODEL 4
REMARK VINA RESULT:      -7.1      4.262      7.573
REMARK  Name = 
REMARK  8 active torsions:
REMARK  status: ('A' for Active; 'I' for Inactive)
REMARK    1  A    between atoms: C_1  and  O_2
REMARK    2  A    between atoms: O_2  and  C_3
REMARK    3  A    between atoms: C_3  and  C_5
REMARK    4  A    between atoms: C_6  and  N_7
REMARK    5  A    between atoms: N_7  and  C_8
REMARK    6  A    between atoms: C_8  and  N_10
REMARK    7  A    between atoms: N_10  and  C_11
REMARK    8  A    between atoms: C_14  and  C_15
REMARK                            x       y       z     vdW  Elec       q    Type
REMARK                         _______ _______ _______ _____ _____    ______ ____
ROOT
ATOM      1  C   UNL     1       2.819   6.243  18.801  0.00  0.00    +0.000 A 
ATOM      2  C   UNL     1       2.268   6.645  20.021  0.00  0.00    +0.000 A 
ATOM      3  S   UNL     1       1.587   5.341  20.869  0.00  0.00    +0.000 S 
ATOM      4  C   UNL     1       2.066   4.215  19.719  0.00  0.00    +0.000 A 
ATOM      5  C   UNL     1       2.682   4.798  18.629  0.00  0.00    +0.000 A 
ATOM      6  C   UNL     1       3.106   3.944  17.461  0.00  0.00    +0.000 C 
ATOM      7  C   UNL     1       2.396   2.578  17.458  0.00  0.00    +0.000 C 
ATOM      8  C   UNL     1       2.431   1.913  18.838  0.00  0.00    +0.000 C 
ATOM      9  C   UNL     1       1.723   2.771  19.889  0.00  0.00    +0.000 C 
ENDROOT
BRANCH   1  10
ATOM     10  C   UNL     1       3.419   7.193  17.851  0.00  0.00    +0.000 C 
ATOM     11  O   UNL     1       2.823   8.175  17.423  0.00  0.00    +0.000 OA
BRANCH  10  13
ATOM     12  C   UNL     1       4.958   6.777  16.089  0.00  0.00    +0.000 C 
ATOM     13  O   UNL     1       4.689   6.853  17.490  0.00  0.00    +0.000 OA
ENDBRANCH  10  13
ENDBRANCH   1  10
BRANCH   2  14
ATOM     14  N   UNL     1       2.113   7.944  20.510  0.00  0.00    +0.000 N 
ATOM     15  H   UNL     1       2.922   8.311  21.009  0.00  0.00    +0.000 HD
BRANCH  14  16
ATOM     16  C   UNL     1       0.960   8.741  20.601  0.00  0.00    +0.000 C 
ATOM     17  S   UNL     1      -0.270   8.634  21.750  0.00  0.00    +0.000 S 
BRANCH  16  18
ATOM     18  N   UNL     1       0.965   9.674  19.543  0.00  0.00    +0.000 N 
ATOM     19  H   UNL     1       1.809   9.636  18.983  0.00  0.00    +0.000 HD
BRANCH  18  20
ATOM     20  C   UNL     1      -0.186  10.191  18.894  0.00  0.00    +0.000 A 
ATOM     21  C   UNL     1      -0.866  11.297  19.406  0.00  0.00    +0.000 A 
ATOM     22  C   UNL     1      -2.066  11.724  18.840  0.00  0.00    +0.000 A 
ATOM     23  C   UNL     1      -2.584  11.076  17.719  0.00  0.00    +0.000 A 
ATOM     24  C   UNL     1      -3.918  11.482  17.166  0.00  0.00    +0.000 C 
ATOM     25  C   UNL     1      -1.853  10.032  17.141  0.00  0.00    +0.000 A 
ATOM     26  C   UNL     1      -0.651   9.594  17.722  0.00  0.00    +0.000 A 
ENDBRANCH  18  20
ENDBRANCH  16  18
ENDBRANCH  14  16
ENDBRANCH   2  14
TORSDOF 6
ENDMDL
MODEL 5
REMARK VINA RESULT:      -7.1      1.955      3.162
REMARK  Name = 
REMARK  8 active torsions:
REMARK  status: ('A' for Active; 'I' for Inactive)
REMARK    1  A    between atoms: C_1  and  O_2
REMARK    2  A    between atoms: O_2  and  C_3
REMARK    3  A    between atoms: C_3  and  C_5
REMARK    4  A    between atoms: C_6  and  N_7
REMARK    5  A    between atoms: N_7  and  C_8
REMARK    6  A    between atoms: C_8  and  N_10
REMARK    7  A    between atoms: N_10  and  C_11
REMARK    8  A    between atoms: C_14  and  C_15
REMARK                            x       y       z     vdW  Elec       q    Type
REMARK                         _______ _______ _______ _____ _____    ______ ____
ROOT
ATOM      1  C   UNL     1       3.229   5.052  18.137  0.00  0.00    +0.000 A 
ATOM      2  C   UNL     1       3.604   4.106  17.181  0.00  0.00    +0.000 A 
ATOM      3  S   UNL     1       3.320   2.518  17.714  0.00  0.00    +0.000 S 
ATOM      4  C   UNL     1       2.627   3.023  19.157  0.00  0.00    +0.000 A 
ATOM      5  C   UNL     1       2.660   4.394  19.312  0.00  0.00    +0.000 A 
ATOM      6  C   UNL     1       2.152   5.019  20.587  0.00  0.00    +0.000 C 
ATOM      7  C   UNL     1       2.061   3.994  21.733  0.00  0.00    +0.000 C 
ATOM      8  C   UNL     1       1.376   2.699  21.288  0.00  0.00    +0.000 C 
ATOM      9  C   UNL     1       2.149   2.019  20.156  0.00  0.00    +0.000 C 
ENDROOT
BRANCH   1  10
ATOM     10  C   UNL     1       3.427   6.498  17.943  0.00  0.00    +0.000 C 
ATOM     11  O   UNL     1       4.103   6.961  17.031  0.00  0.00    +0.000 OA
BRANCH  10  13
ATOM     12  C   UNL     1       2.021   8.353  18.417  0.00  0.00    +0.000 C 
ATOM     13  O   UNL     1       2.798   7.252  18.889  0.00  0.00    +0.000 OA
ENDBRANCH  10  13
ENDBRANCH   1  10
BRANCH   2  14
ATOM     14  N   UNL     1       4.270   4.319  15.972  0.00  0.00    +0.000 N 
ATOM     15  H   UNL     1       3.660   4.505  15.177  0.00  0.00    +0.000 HD
BRANCH  14  16
ATOM     16  C   UNL     1       5.619   4.120  15.638  0.00  0.00    +0.000 C 
ATOM     17  S   UNL     1       6.262   3.823  14.107  0.00  0.00    +0.000 S 
BRANCH  16  18
ATOM     18  N   UNL     1       6.396   4.189  16.813  0.00  0.00    +0.000 N 
ATOM     19  H   UNL     1       6.813   3.300  17.067  0.00  0.00    +0.000 HD
BRANCH  18  20
ATOM     20  C   UNL     1       7.060   5.345  17.296  0.00  0.00    +0.000 A 
ATOM     21  C   UNL     1       7.652   5.363  18.560  0.00  0.00    +0.000 A 
ATOM     22  C   UNL     1       8.192   6.537  19.081  0.00  0.00    +0.000 A 
ATOM     23  C   UNL     1       8.188   7.709  18.324  0.00  0.00    +0.000 A 
ATOM     24  C   UNL     1       8.691   8.990  18.921  0.00  0.00    +0.000 C 
ATOM     25  C   UNL     1       7.690   7.670  17.017  0.00  0.00    +0.000 A 
ATOM     26  C   UNL     1       7.133   6.489  16.499  0.00  0.00    +0.000 A 
ENDBRANCH  18  20
ENDBRANCH  16  18
ENDBRANCH  14  16
ENDBRANCH   2  14
TORSDOF 6
ENDMDL
MODEL 6
REMARK VINA RESULT:      -7.0      2.834      4.929
REMARK  Name = 
REMARK  8 active torsions:
REMARK  status: ('A' for Active; 'I' for Inactive)
REMARK    1  A    between atoms: C_1  and  O_2
REMARK    2  A    between atoms: O_2  and  C_3
REMARK    3  A    between atoms: C_3  and  C_5
REMARK    4  A    between atoms: C_6  and  N_7
REMARK    5  A    between atoms: N_7  and  C_8
REMARK    6  A    between atoms: C_8  and  N_10
REMARK    7  A    between atoms: N_10  and  C_11
REMARK    8  A    between atoms: C_14  and  C_15
REMARK                            x       y       z     vdW  Elec       q    Type
REMARK                         _______ _______ _______ _____ _____    ______ ____
ROOT
ATOM      1  C   UNL     1       2.937   5.772  18.651  0.00  0.00    +0.000 A 
ATOM      2  C   UNL     1       4.042   5.413  17.874  0.00  0.00    +0.000 A 
ATOM      3  S   UNL     1       4.268   3.730  17.833  0.00  0.00    +0.000 S 
ATOM      4  C   UNL     1       2.894   3.425  18.747  0.00  0.00    +0.000 A 
ATOM      5  C   UNL     1       2.271   4.581  19.173  0.00  0.00    +0.000 A 
ATOM      6  C   UNL     1       1.064   4.496  20.074  0.00  0.00    +0.000 C 
ATOM      7  C   UNL     1       0.949   3.119  20.754  0.00  0.00    +0.000 C 
ATOM      8  C   UNL     1       1.138   1.972  19.756  0.00  0.00    +0.000 C 
ATOM      9  C   UNL     1       2.521   2.022  19.104  0.00  0.00    +0.000 C 
ENDROOT
BRANCH   1  10
ATOM     10  C   UNL     1       2.561   7.174  18.894  0.00  0.00    +0.000 C 
ATOM     11  O   UNL     1       2.228   7.594  19.997  0.00  0.00    +0.000 OA
BRANCH  10  13
ATOM     12  C   UNL     1       2.026   9.242  17.854  0.00  0.00    +0.000 C 
ATOM     13  O   UNL     1       2.605   7.939  17.766  0.00  0.00    +0.000 OA
ENDBRANCH  10  13
ENDBRANCH   1  10
BRANCH   2  14
ATOM     14  N   UNL     1       4.989   6.252  17.284  0.00  0.00    +0.000 N 
ATOM     15  H   UNL     1       4.599   7.009  16.724  0.00  0.00    +0.000 HD
BRANCH  14  16
ATOM     16  C   UNL     1       6.381   6.102  17.172  0.00  0.00    +0.000 C 
ATOM     17  S   UNL     1       7.483   5.813  18.417  0.00  0.00    +0.000 S 
BRANCH  16  18
ATOM     18  N   UNL     1       6.750   6.248  15.818  0.00  0.00    +0.000 N 
ATOM     19  H   UNL     1       7.522   6.890  15.683  0.00  0.00    +0.000 HD
BRANCH  18  20
ATOM     20  C   UNL     1       6.573   5.270  14.806  0.00  0.00    +0.000 A 
ATOM     21  C   UNL     1       7.482   5.147  13.755  0.00  0.00    +0.000 A 
ATOM     22  C   UNL     1       7.240   4.274  12.697  0.00  0.00    +0.000 A 
ATOM     23  C   UNL     1       6.099   3.473  12.694  0.00  0.00    +0.000 A 
ATOM     24  C   UNL     1       5.796   2.598  11.513  0.00  0.00    +0.000 C 
ATOM     25  C   UNL     1       5.236   3.517  13.796  0.00  0.00    +0.000 A 
ATOM     26  C   UNL     1       5.475   4.409  14.855  0.00  0.00    +0.000 A 
ENDBRANCH  18  20
ENDBRANCH  16  18
ENDBRANCH  14  16
ENDBRANCH   2  14
TORSDOF 6
ENDMDL
MODEL 7
REMARK VINA RESULT:      -7.0      1.960      3.032
REMARK  Name = 
REMARK  8 active torsions:
REMARK  status: ('A' for Active; 'I' for Inactive)
REMARK    1  A    between atoms: C_1  and  O_2
REMARK    2  A    between atoms: O_2  and  C_3
REMARK    3  A    between atoms: C_3  and  C_5
REMARK    4  A    between atoms: C_6  and  N_7
REMARK    5  A    between atoms: N_7  and  C_8
REMARK    6  A    between atoms: C_8  and  N_10
REMARK    7  A    between atoms: N_10  and  C_11
REMARK    8  A    between atoms: C_14  and  C_15
REMARK                            x       y       z     vdW  Elec       q    Type
REMARK                         _______ _______ _______ _____ _____    ______ ____
ROOT
ATOM      1  C   UNL     1       3.227   5.244  18.061  0.00  0.00    +0.000 A 
ATOM      2  C   UNL     1       3.772   4.352  17.134  0.00  0.00    +0.000 A 
ATOM      3  S   UNL     1       3.655   2.741  17.659  0.00  0.00    +0.000 S 
ATOM      4  C   UNL     1       2.820   3.155  19.056  0.00  0.00    +0.000 A 
ATOM      5  C   UNL     1       2.675   4.520  19.204  0.00  0.00    +0.000 A 
ATOM      6  C   UNL     1       2.020   5.075  20.444  0.00  0.00    +0.000 C 
ATOM      7  C   UNL     1       1.988   4.046  21.588  0.00  0.00    +0.000 C 
ATOM      8  C   UNL     1       1.495   2.676  21.111  0.00  0.00    +0.000 C 
ATOM      9  C   UNL     1       2.411   2.098  20.031  0.00  0.00    +0.000 C 
ENDROOT
BRANCH   1  10
ATOM     10  C   UNL     1       3.257   6.703  17.870  0.00  0.00    +0.000 C 
ATOM     11  O   UNL     1       4.298   7.336  17.727  0.00  0.00    +0.000 OA
BRANCH  10  13
ATOM     12  C   UNL     1       1.919   8.585  18.430  0.00  0.00    +0.000 C 
ATOM     13  O   UNL     1       2.016   7.266  17.888  0.00  0.00    +0.000 OA
ENDBRANCH  10  13
ENDBRANCH   1  10
BRANCH   2  14
ATOM     14  N   UNL     1       4.477   4.648  15.965  0.00  0.00    +0.000 N 
ATOM     15  H   UNL     1       3.914   5.057  15.220  0.00  0.00    +0.000 HD
BRANCH  14  16
ATOM     16  C   UNL     1       5.779   4.288  15.582  0.00  0.00    +0.000 C 
ATOM     17  S   UNL     1       6.305   3.834  14.045  0.00  0.00    +0.000 S 
BRANCH  16  18
ATOM     18  N   UNL     1       6.620   4.347  16.712  0.00  0.00    +0.000 N 
ATOM     19  H   UNL     1       7.209   3.527  16.813  0.00  0.00    +0.000 HD
BRANCH  18  20
ATOM     20  C   UNL     1       7.103   5.534  17.321  0.00  0.00    +0.000 A 
ATOM     21  C   UNL     1       7.050   6.759  16.655  0.00  0.00    +0.000 A 
ATOM     22  C   UNL     1       7.638   7.897  17.203  0.00  0.00    +0.000 A 
ATOM     23  C   UNL     1       8.253   7.838  18.453  0.00  0.00    +0.000 A 
ATOM     24  C   UNL     1       8.960   9.042  19.001  0.00  0.00    +0.000 C 
ATOM     25  C   UNL     1       8.218   6.637  19.171  0.00  0.00    +0.000 A 
ATOM     26  C   UNL     1       7.637   5.487  18.610  0.00  0.00    +0.000 A 
ENDBRANCH  18  20
ENDBRANCH  16  18
ENDBRANCH  14  16
ENDBRANCH   2  14
TORSDOF 6
ENDMDL
MODEL 8
REMARK VINA RESULT:      -7.0      2.937      5.008
REMARK  Name = 
REMARK  8 active torsions:
REMARK  status: ('A' for Active; 'I' for Inactive)
REMARK    1  A    between atoms: C_1  and  O_2
REMARK    2  A    between atoms: O_2  and  C_3
REMARK    3  A    between atoms: C_3  and  C_5
REMARK    4  A    between atoms: C_6  and  N_7
REMARK    5  A    between atoms: N_7  and  C_8
REMARK    6  A    between atoms: C_8  and  N_10
REMARK    7  A    between atoms: N_10  and  C_11
REMARK    8  A    between atoms: C_14  and  C_15
REMARK                            x       y       z     vdW  Elec       q    Type
REMARK                         _______ _______ _______ _____ _____    ______ ____
ROOT
ATOM      1  C   UNL     1       3.149   5.689  18.279  0.00  0.00    +0.000 A 
ATOM      2  C   UNL     1       4.153   5.166  17.459  0.00  0.00    +0.000 A 
ATOM      3  S   UNL     1       4.202   3.470  17.520  0.00  0.00    +0.000 S 
ATOM      4  C   UNL     1       2.872   3.370  18.540  0.00  0.00    +0.000 A 
ATOM      5  C   UNL     1       2.403   4.611  18.924  0.00  0.00    +0.000 A 
ATOM      6  C   UNL     1       1.261   4.711  19.904  0.00  0.00    +0.000 C 
ATOM      7  C   UNL     1       1.055   3.399  20.684  0.00  0.00    +0.000 C 
ATOM      8  C   UNL     1       1.054   2.179  19.758  0.00  0.00    +0.000 C 
ATOM      9  C   UNL     1       2.384   2.040  19.016  0.00  0.00    +0.000 C 
ENDROOT
BRANCH   1  10
ATOM     10  C   UNL     1       2.937   7.135  18.448  0.00  0.00    +0.000 C 
ATOM     11  O   UNL     1       3.250   7.960  17.597  0.00  0.00    +0.000 OA
BRANCH  10  13
ATOM     12  C   UNL     1       1.511   8.588  19.674  0.00  0.00    +0.000 C 
ATOM     13  O   UNL     1       2.377   7.452  19.651  0.00  0.00    +0.000 OA
ENDBRANCH  10  13
ENDBRANCH   1  10
BRANCH   2  14
ATOM     14  N   UNL     1       5.137   5.861  16.752  0.00  0.00    +0.000 N 
ATOM     15  H   UNL     1       4.786   6.445  15.996  0.00  0.00    +0.000 HD
BRANCH  14  16
ATOM     16  C   UNL     1       6.535   5.726  16.786  0.00  0.00    +0.000 C 
ATOM     17  S   UNL     1       7.506   5.467  18.140  0.00  0.00    +0.000 S 
BRANCH  16  18
ATOM     18  N   UNL     1       7.038   5.860  15.474  0.00  0.00    +0.000 N 
ATOM     19  H   UNL     1       7.960   6.279  15.443  0.00  0.00    +0.000 HD
BRANCH  18  20
ATOM     20  C   UNL     1       6.695   5.035  14.372  0.00  0.00    +0.000 A 
ATOM     21  C   UNL     1       5.476   4.358  14.329  0.00  0.00    +0.000 A 
ATOM     22  C   UNL     1       5.196   3.452  13.309  0.00  0.00    +0.000 A 
ATOM     23  C   UNL     1       6.118   3.241  12.283  0.00  0.00    +0.000 A 
ATOM     24  C   UNL     1       5.851   2.203  11.234  0.00  0.00    +0.000 C 
ATOM     25  C   UNL     1       7.297   3.995  12.266  0.00  0.00    +0.000 A 
ATOM     26  C   UNL     1       7.584   4.897  13.304  0.00  0.00    +0.000 A 
ENDBRANCH  18  20
ENDBRANCH  16  18
ENDBRANCH  14  16
ENDBRANCH   2  14
TORSDOF 6
ENDMDL
MODEL 9
REMARK VINA RESULT:      -7.0      5.762      8.957
REMARK  Name = 
REMARK  8 active torsions:
REMARK  status: ('A' for Active; 'I' for Inactive)
REMARK    1  A    between atoms: C_1  and  O_2
REMARK    2  A    between atoms: O_2  and  C_3
REMARK    3  A    between atoms: C_3  and  C_5
REMARK    4  A    between atoms: C_6  and  N_7
REMARK    5  A    between atoms: N_7  and  C_8
REMARK    6  A    between atoms: C_8  and  N_10
REMARK    7  A    between atoms: N_10  and  C_11
REMARK    8  A    between atoms: C_14  and  C_15
REMARK                            x       y       z     vdW  Elec       q    Type
REMARK                         _______ _______ _______ _____ _____    ______ ____
ROOT
ATOM      1  C   UNL     1       0.853   8.984  20.433  0.00  0.00    +0.000 A 
ATOM      2  C   UNL     1       0.923  10.137  19.647  0.00  0.00    +0.000 A 
ATOM      3  S   UNL     1       1.913   9.917  18.285  0.00  0.00    +0.000 S 
ATOM      4  C   UNL     1       2.203   8.301  18.636  0.00  0.00    +0.000 A 
ATOM      5  C   UNL     1       1.627   7.904  19.826  0.00  0.00    +0.000 A 
ATOM      6  C   UNL     1       1.852   6.503  20.339  0.00  0.00    +0.000 C 
ATOM      7  C   UNL     1       3.065   5.832  19.667  0.00  0.00    +0.000 C 
ATOM      8  C   UNL     1       3.044   6.007  18.145  0.00  0.00    +0.000 C 
ATOM      9  C   UNL     1       3.090   7.485  17.752  0.00  0.00    +0.000 C 
ENDROOT
BRANCH   1  10
ATOM     10  C   UNL     1       0.106   8.933  21.701  0.00  0.00    +0.000 C 
ATOM     11  O   UNL     1      -0.697   8.046  21.966  0.00  0.00    +0.000 OA
BRANCH  10  13
ATOM     12  C   UNL     1      -0.719  10.617  23.159  0.00  0.00    +0.000 C 
ATOM     13  O   UNL     1       0.392   9.978  22.528  0.00  0.00    +0.000 OA
ENDBRANCH  10  13
ENDBRANCH   1  10
BRANCH   2  14
ATOM     14  N   UNL     1       0.406  11.404  19.928  0.00  0.00    +0.000 N 
ATOM     15  H   UNL     1       0.662  11.777  20.840  0.00  0.00    +0.000 HD
BRANCH  14  16
ATOM     16  C   UNL     1      -0.568  12.151  19.245  0.00  0.00    +0.000 C 
ATOM     17  S   UNL     1      -0.420  13.720  18.644  0.00  0.00    +0.000 S 
BRANCH  16  18
ATOM     18  N   UNL     1      -1.745  11.380  19.140  0.00  0.00    +0.000 N 
ATOM     19  H   UNL     1      -2.368  11.496  19.931  0.00  0.00    +0.000 HD
BRANCH  18  20
ATOM     20  C   UNL     1      -2.354  10.966  17.927  0.00  0.00    +0.000 A 
ATOM     21  C   UNL     1      -1.776   9.975  17.132  0.00  0.00    +0.000 A 
ATOM     22  C   UNL     1      -2.307   9.660  15.883  0.00  0.00    +0.000 A 
ATOM     23  C   UNL     1      -3.457  10.304  15.425  0.00  0.00    +0.000 A 
ATOM     24  C   UNL     1      -3.975  10.025  14.045  0.00  0.00    +0.000 C 
ATOM     25  C   UNL     1      -4.098  11.224  16.263  0.00  0.00    +0.000 A 
ATOM     26  C   UNL     1      -3.553  11.550  17.516  0.00  0.00    +0.000 A 
ENDBRANCH  18  20
ENDBRANCH  16  18
ENDBRANCH  14  16
ENDBRANCH   2  14
TORSDOF 6
ENDMDL
