MODEL 1
REMARK VINA RESULT:      -8.1      0.000      0.000
REMARK  Name = 
REMARK  1 active torsions:
REMARK  status: ('A' for Active; 'I' for Inactive)
REMARK    1  A    between atoms: C_4  and  C_5
REMARK                            x       y       z     vdW  Elec       q    Type
REMARK                         _______ _______ _______ _____ _____    ______ ____
ROOT
ATOM      1  O   UNL     1       2.988   8.509  16.914  0.00  0.00    +0.000 OA
ATOM      2  C   UNL     1       2.581   8.086  17.988  0.00  0.00    +0.000 A 
ATOM      3  C   UNL     1       1.820   8.948  18.902  0.00  0.00    +0.000 A 
ATOM      4  C   UNL     1       1.407   8.435  20.066  0.00  0.00    +0.000 A 
ATOM      5  O   UNL     1       1.638   7.141  20.496  0.00  0.00    +0.000 OA
ATOM      6  C   UNL     1       2.336   6.286  19.670  0.00  0.00    +0.000 A 
ATOM      7  C   UNL     1       2.822   6.702  18.430  0.00  0.00    +0.000 A 
ATOM      8  C   UNL     1       3.522   5.818  17.615  0.00  0.00    +0.000 A 
ATOM      9  C   UNL     1       3.736   4.508  18.051  0.00  0.00    +0.000 A 
ATOM     10  C   UNL     1       3.268   4.060  19.278  0.00  0.00    +0.000 A 
ATOM     11  N   UNL     1       3.515   2.786  19.624  0.00  0.00    +0.000 NA
ATOM     12  C   UNL     1       3.059   2.348  20.816  0.00  0.00    +0.000 A 
ATOM     13  C   UNL     1       2.355   3.135  21.703  0.00  0.00    +0.000 A 
ATOM     14  C   UNL     1       2.101   4.455  21.345  0.00  0.00    +0.000 A 
ATOM     15  C   UNL     1       2.558   4.957  20.108  0.00  0.00    +0.000 A 
ENDROOT
BRANCH   4  16
ATOM     16  C   UNL     1       0.646   9.252  21.016  0.00  0.00    +0.000 A 
ATOM     17  C   UNL     1      -0.036  10.398  20.583  0.00  0.00    +0.000 A 
ATOM     18  C   UNL     1      -0.803  11.141  21.482  0.00  0.00    +0.000 A 
ATOM     19  C   UNL     1      -0.885  10.753  22.819  0.00  0.00    +0.000 A 
ATOM     20  C   UNL     1      -0.187   9.632  23.262  0.00  0.00    +0.000 A 
ATOM     21  C   UNL     1       0.578   8.883  22.366  0.00  0.00    +0.000 A 
ENDBRANCH   4  16
TORSDOF 1
ENDMDL
MODEL 2
REMARK VINA RESULT:      -8.1      0.087      1.058
REMARK  Name = 
REMARK  1 active torsions:
REMARK  status: ('A' for Active; 'I' for Inactive)
REMARK    1  A    between atoms: C_4  and  C_5
REMARK                            x       y       z     vdW  Elec       q    Type
REMARK                         _______ _______ _______ _____ _____    ______ ____
ROOT
ATOM      1  O   UNL     1       2.961   8.446  16.889  0.00  0.00    +0.000 OA
ATOM      2  C   UNL     1       2.550   8.042  17.969  0.00  0.00    +0.000 A 
ATOM      3  C   UNL     1       1.783   8.918  18.864  0.00  0.00    +0.000 A 
ATOM      4  C   UNL     1       1.366   8.426  20.035  0.00  0.00    +0.000 A 
ATOM      5  O   UNL     1       1.600   7.141  20.491  0.00  0.00    +0.000 OA
ATOM      6  C   UNL     1       2.305   6.273  19.684  0.00  0.00    +0.000 A 
ATOM      7  C   UNL     1       2.794   6.668  18.439  0.00  0.00    +0.000 A 
ATOM      8  C   UNL     1       3.501   5.770  17.643  0.00  0.00    +0.000 A 
ATOM      9  C   UNL     1       3.718   4.470  18.104  0.00  0.00    +0.000 A 
ATOM     10  C   UNL     1       3.247   4.044  19.338  0.00  0.00    +0.000 A 
ATOM     11  N   UNL     1       3.497   2.777  19.709  0.00  0.00    +0.000 NA
ATOM     12  C   UNL     1       3.037   2.360  20.907  0.00  0.00    +0.000 A 
ATOM     13  C   UNL     1       2.327   3.161  21.776  0.00  0.00    +0.000 A 
ATOM     14  C   UNL     1       2.069   4.473  21.392  0.00  0.00    +0.000 A 
ATOM     15  C   UNL     1       2.529   4.954  20.148  0.00  0.00    +0.000 A 
ENDROOT
BRANCH   4  16
ATOM     16  C   UNL     1       0.598   9.258  20.966  0.00  0.00    +0.000 A 
ATOM     17  C   UNL     1       0.560   8.948  22.332  0.00  0.00    +0.000 A 
ATOM     18  C   UNL     1      -0.129   9.775  23.221  0.00  0.00    +0.000 A 
ATOM     19  C   UNL     1      -0.793  10.908  22.752  0.00  0.00    +0.000 A 
ATOM     20  C   UNL     1      -0.784  11.206  21.391  0.00  0.00    +0.000 A 
ATOM     21  C   UNL     1      -0.092  10.385  20.499  0.00  0.00    +0.000 A 
ENDBRANCH   4  16
TORSDOF 1
ENDMDL
MODEL 3
REMARK VINA RESULT:      -7.9      2.213      6.093
REMARK  Name = 
REMARK  1 active torsions:
REMARK  status: ('A' for Active; 'I' for Inactive)
REMARK    1  A    between atoms: C_4  and  C_5
REMARK                            x       y       z     vdW  Elec       q    Type
REMARK                         _______ _______ _______ _____ _____    ______ ____
ROOT
ATOM      1  O   UNL     1       2.746   8.622  16.858  0.00  0.00    +0.000 OA
ATOM      2  C   UNL     1       2.407   8.218  17.963  0.00  0.00    +0.000 A 
ATOM      3  C   UNL     1       2.732   6.855  18.404  0.00  0.00    +0.000 A 
ATOM      4  C   UNL     1       2.329   6.465  19.618  0.00  0.00    +0.000 A 
ATOM      5  O   UNL     1       1.618   7.245  20.513  0.00  0.00    +0.000 OA
ATOM      6  C   UNL     1       1.299   8.537  20.153  0.00  0.00    +0.000 A 
ATOM      7  C   UNL     1       1.662   9.061  18.913  0.00  0.00    +0.000 A 
ATOM      8  C   UNL     1       1.328  10.370  18.577  0.00  0.00    +0.000 A 
ATOM      9  C   UNL     1       0.626  11.154  19.493  0.00  0.00    +0.000 A 
ATOM     10  C   UNL     1       0.247  10.666  20.736  0.00  0.00    +0.000 A 
ATOM     11  N   UNL     1      -0.426  11.484  21.561  0.00  0.00    +0.000 NA
ATOM     12  C   UNL     1      -0.793  11.011  22.770  0.00  0.00    +0.000 A 
ATOM     13  C   UNL     1      -0.517   9.733  23.209  0.00  0.00    +0.000 A 
ATOM     14  C   UNL     1       0.180   8.886  22.353  0.00  0.00    +0.000 A 
ATOM     15  C   UNL     1       0.584   9.336  21.079  0.00  0.00    +0.000 A 
ENDROOT
BRANCH   4  16
ATOM     16  C   UNL     1       2.625   5.115  20.107  0.00  0.00    +0.000 A 
ATOM     17  C   UNL     1       1.849   4.541  21.123  0.00  0.00    +0.000 A 
ATOM     18  C   UNL     1       2.102   3.235  21.547  0.00  0.00    +0.000 A 
ATOM     19  C   UNL     1       3.135   2.499  20.968  0.00  0.00    +0.000 A 
ATOM     20  C   UNL     1       3.930   3.074  19.978  0.00  0.00    +0.000 A 
ATOM     21  C   UNL     1       3.678   4.378  19.548  0.00  0.00    +0.000 A 
ENDBRANCH   4  16
TORSDOF 1
ENDMDL
MODEL 4
REMARK VINA RESULT:      -7.9      1.229      1.739
REMARK  Name = 
REMARK  1 active torsions:
REMARK  status: ('A' for Active; 'I' for Inactive)
REMARK    1  A    between atoms: C_4  and  C_5
REMARK                            x       y       z     vdW  Elec       q    Type
REMARK                         _______ _______ _______ _____ _____    ______ ____
ROOT
ATOM      1  O   UNL     1       4.725   7.114  16.370  0.00  0.00    +0.000 OA
ATOM      2  C   UNL     1       3.965   7.006  17.325  0.00  0.00    +0.000 A 
ATOM      3  C   UNL     1       3.066   8.103  17.705  0.00  0.00    +0.000 A 
ATOM      4  C   UNL     1       2.265   7.933  18.761  0.00  0.00    +0.000 A 
ATOM      5  O   UNL     1       2.206   6.794  19.545  0.00  0.00    +0.000 OA
ATOM      6  C   UNL     1       3.020   5.729  19.223  0.00  0.00    +0.000 A 
ATOM      7  C   UNL     1       3.902   5.784  18.144  0.00  0.00    +0.000 A 
ATOM      8  C   UNL     1       4.711   4.693  17.840  0.00  0.00    +0.000 A 
ATOM      9  C   UNL     1       4.633   3.542  18.627  0.00  0.00    +0.000 A 
ATOM     10  C   UNL     1       3.767   3.453  19.708  0.00  0.00    +0.000 A 
ATOM     11  N   UNL     1       3.751   2.310  20.415  0.00  0.00    +0.000 NA
ATOM     12  C   UNL     1       2.909   2.221  21.465  0.00  0.00    +0.000 A 
ATOM     13  C   UNL     1       2.064   3.238  21.857  0.00  0.00    +0.000 A 
ATOM     14  C   UNL     1       2.082   4.420  21.126  0.00  0.00    +0.000 A 
ATOM     15  C   UNL     1       2.946   4.560  20.019  0.00  0.00    +0.000 A 
ENDROOT
BRANCH   4  16
ATOM     16  C   UNL     1       1.349   8.997  19.186  0.00  0.00    +0.000 A 
ATOM     17  C   UNL     1       0.862   9.928  18.259  0.00  0.00    +0.000 A 
ATOM     18  C   UNL     1      -0.052  10.905  18.658  0.00  0.00    +0.000 A 
ATOM     19  C   UNL     1      -0.476  10.966  19.985  0.00  0.00    +0.000 A 
ATOM     20  C   UNL     1       0.027  10.061  20.919  0.00  0.00    +0.000 A 
ATOM     21  C   UNL     1       0.937   9.079  20.523  0.00  0.00    +0.000 A 
ENDBRANCH   4  16
TORSDOF 1
ENDMDL
MODEL 5
REMARK VINA RESULT:      -7.9      2.226      6.067
REMARK  Name = 
REMARK  1 active torsions:
REMARK  status: ('A' for Active; 'I' for Inactive)
REMARK    1  A    between atoms: C_4  and  C_5
REMARK                            x       y       z     vdW  Elec       q    Type
REMARK                         _______ _______ _______ _____ _____    ______ ____
ROOT
ATOM      1  O   UNL     1       2.762   8.641  16.948  0.00  0.00    +0.000 OA
ATOM      2  C   UNL     1       2.394   8.225  18.039  0.00  0.00    +0.000 A 
ATOM      3  C   UNL     1       2.671   6.844  18.457  0.00  0.00    +0.000 A 
ATOM      4  C   UNL     1       2.238   6.442  19.656  0.00  0.00    +0.000 A 
ATOM      5  O   UNL     1       1.536   7.223  20.556  0.00  0.00    +0.000 OA
ATOM      6  C   UNL     1       1.260   8.531  20.218  0.00  0.00    +0.000 A 
ATOM      7  C   UNL     1       1.658   9.069  18.994  0.00  0.00    +0.000 A 
ATOM      8  C   UNL     1       1.368  10.394  18.680  0.00  0.00    +0.000 A 
ATOM      9  C   UNL     1       0.674  11.180  19.602  0.00  0.00    +0.000 A 
ATOM     10  C   UNL     1       0.262  10.678  20.828  0.00  0.00    +0.000 A 
ATOM     11  N   UNL     1      -0.401  11.499  21.660  0.00  0.00    +0.000 NA
ATOM     12  C   UNL     1      -0.801  11.013  22.853  0.00  0.00    +0.000 A 
ATOM     13  C   UNL     1      -0.570   9.718  23.269  0.00  0.00    +0.000 A 
ATOM     14  C   UNL     1       0.116   8.869  22.407  0.00  0.00    +0.000 A 
ATOM     15  C   UNL     1       0.554   9.332  21.149  0.00  0.00    +0.000 A 
ENDROOT
BRANCH   4  16
ATOM     16  C   UNL     1       2.486   5.074  20.121  0.00  0.00    +0.000 A 
ATOM     17  C   UNL     1       3.567   4.336  19.619  0.00  0.00    +0.000 A 
ATOM     18  C   UNL     1       3.830   3.055  20.106  0.00  0.00    +0.000 A 
ATOM     19  C   UNL     1       3.011   2.497  21.088  0.00  0.00    +0.000 A 
ATOM     20  C   UNL     1       1.917   3.214  21.570  0.00  0.00    +0.000 A 
ATOM     21  C   UNL     1       1.653   4.497  21.089  0.00  0.00    +0.000 A 
ENDBRANCH   4  16
TORSDOF 1
ENDMDL
MODEL 6
REMARK VINA RESULT:      -7.9      1.832      3.719
REMARK  Name = 
REMARK  1 active torsions:
REMARK  status: ('A' for Active; 'I' for Inactive)
REMARK    1  A    between atoms: C_4  and  C_5
REMARK                            x       y       z     vdW  Elec       q    Type
REMARK                         _______ _______ _______ _____ _____    ______ ____
ROOT
ATOM      1  O   UNL     1       1.515   3.461  21.137  0.00  0.00    +0.000 OA
ATOM      2  C   UNL     1       1.883   4.435  20.494  0.00  0.00    +0.000 A 
ATOM      3  C   UNL     1       1.443   5.789  20.853  0.00  0.00    +0.000 A 
ATOM      4  C   UNL     1       1.870   6.816  20.110  0.00  0.00    +0.000 A 
ATOM      5  O   UNL     1       2.705   6.715  19.012  0.00  0.00    +0.000 OA
ATOM      6  C   UNL     1       3.158   5.467  18.641  0.00  0.00    +0.000 A 
ATOM      7  C   UNL     1       2.782   4.317  19.335  0.00  0.00    +0.000 A 
ATOM      8  C   UNL     1       3.256   3.069  18.939  0.00  0.00    +0.000 A 
ATOM      9  C   UNL     1       4.112   2.979  17.839  0.00  0.00    +0.000 A 
ATOM     10  C   UNL     1       4.506   4.102  17.125  0.00  0.00    +0.000 A 
ATOM     11  N   UNL     1       5.332   3.931  16.079  0.00  0.00    +0.000 NA
ATOM     12  C   UNL     1       5.717   5.021  15.385  0.00  0.00    +0.000 A 
ATOM     13  C   UNL     1       5.310   6.304  15.686  0.00  0.00    +0.000 A 
ATOM     14  C   UNL     1       4.455   6.480  16.768  0.00  0.00    +0.000 A 
ATOM     15  C   UNL     1       4.025   5.370  17.524  0.00  0.00    +0.000 A 
ENDROOT
BRANCH   4  16
ATOM     16  C   UNL     1       1.460   8.188  20.423  0.00  0.00    +0.000 A 
ATOM     17  C   UNL     1       1.338   9.144  19.405  0.00  0.00    +0.000 A 
ATOM     18  C   UNL     1       0.895  10.434  19.702  0.00  0.00    +0.000 A 
ATOM     19  C   UNL     1       0.581  10.781  21.016  0.00  0.00    +0.000 A 
ATOM     20  C   UNL     1       0.728   9.845  22.037  0.00  0.00    +0.000 A 
ATOM     21  C   UNL     1       1.167   8.552  21.744  0.00  0.00    +0.000 A 
ENDBRANCH   4  16
TORSDOF 1
ENDMDL
MODEL 7
REMARK VINA RESULT:      -7.8      1.221      2.001
REMARK  Name = 
REMARK  1 active torsions:
REMARK  status: ('A' for Active; 'I' for Inactive)
REMARK    1  A    between atoms: C_4  and  C_5
REMARK                            x       y       z     vdW  Elec       q    Type
REMARK                         _______ _______ _______ _____ _____    ______ ____
ROOT
ATOM      1  O   UNL     1       4.713   7.103  16.412  0.00  0.00    +0.000 OA
ATOM      2  C   UNL     1       3.944   6.998  17.359  0.00  0.00    +0.000 A 
ATOM      3  C   UNL     1       3.050   8.101  17.735  0.00  0.00    +0.000 A 
ATOM      4  C   UNL     1       2.238   7.934  18.783  0.00  0.00    +0.000 A 
ATOM      5  O   UNL     1       2.162   6.794  19.563  0.00  0.00    +0.000 OA
ATOM      6  C   UNL     1       2.971   5.724  19.245  0.00  0.00    +0.000 A 
ATOM      7  C   UNL     1       3.864   5.775  18.174  0.00  0.00    +0.000 A 
ATOM      8  C   UNL     1       4.667   4.678  17.875  0.00  0.00    +0.000 A 
ATOM      9  C   UNL     1       4.572   3.525  18.657  0.00  0.00    +0.000 A 
ATOM     10  C   UNL     1       3.696   3.440  19.730  0.00  0.00    +0.000 A 
ATOM     11  N   UNL     1       3.665   2.295  20.433  0.00  0.00    +0.000 NA
ATOM     12  C   UNL     1       2.813   2.210  21.475  0.00  0.00    +0.000 A 
ATOM     13  C   UNL     1       1.971   3.232  21.863  0.00  0.00    +0.000 A 
ATOM     14  C   UNL     1       2.005   4.416  21.135  0.00  0.00    +0.000 A 
ATOM     15  C   UNL     1       2.880   4.552  20.037  0.00  0.00    +0.000 A 
ENDROOT
BRANCH   4  16
ATOM     16  C   UNL     1       1.326   9.004  19.202  0.00  0.00    +0.000 A 
ATOM     17  C   UNL     1       0.932   9.119  20.541  0.00  0.00    +0.000 A 
ATOM     18  C   UNL     1       0.108  10.171  20.944  0.00  0.00    +0.000 A 
ATOM     19  C   UNL     1      -0.337  11.107  20.011  0.00  0.00    +0.000 A 
ATOM     20  C   UNL     1       0.027  10.983  18.672  0.00  0.00    +0.000 A 
ATOM     21  C   UNL     1       0.855   9.934  18.266  0.00  0.00    +0.000 A 
ENDBRANCH   4  16
TORSDOF 1
ENDMDL
MODEL 8
REMARK VINA RESULT:      -7.8      1.836      3.852
REMARK  Name = 
REMARK  1 active torsions:
REMARK  status: ('A' for Active; 'I' for Inactive)
REMARK    1  A    between atoms: C_4  and  C_5
REMARK                            x       y       z     vdW  Elec       q    Type
REMARK                         _______ _______ _______ _____ _____    ______ ____
ROOT
ATOM      1  O   UNL     1       1.582   3.472  21.179  0.00  0.00    +0.000 OA
ATOM      2  C   UNL     1       1.930   4.445  20.523  0.00  0.00    +0.000 A 
ATOM      3  C   UNL     1       1.468   5.796  20.869  0.00  0.00    +0.000 A 
ATOM      4  C   UNL     1       1.872   6.821  20.113  0.00  0.00    +0.000 A 
ATOM      5  O   UNL     1       2.702   6.723  19.010  0.00  0.00    +0.000 OA
ATOM      6  C   UNL     1       3.176   5.479  18.651  0.00  0.00    +0.000 A 
ATOM      7  C   UNL     1       2.824   4.330  19.359  0.00  0.00    +0.000 A 
ATOM      8  C   UNL     1       3.318   3.087  18.975  0.00  0.00    +0.000 A 
ATOM      9  C   UNL     1       4.170   3.000  17.871  0.00  0.00    +0.000 A 
ATOM     10  C   UNL     1       4.539   4.121  17.142  0.00  0.00    +0.000 A 
ATOM     11  N   UNL     1       5.362   3.953  16.094  0.00  0.00    +0.000 NA
ATOM     12  C   UNL     1       5.724   5.042  15.385  0.00  0.00    +0.000 A 
ATOM     13  C   UNL     1       5.296   6.322  15.674  0.00  0.00    +0.000 A 
ATOM     14  C   UNL     1       4.444   6.494  16.759  0.00  0.00    +0.000 A 
ATOM     15  C   UNL     1       4.038   5.385  17.530  0.00  0.00    +0.000 A 
ENDROOT
BRANCH   4  16
ATOM     16  C   UNL     1       1.439   8.190  20.412  0.00  0.00    +0.000 A 
ATOM     17  C   UNL     1       1.148   8.572  21.728  0.00  0.00    +0.000 A 
ATOM     18  C   UNL     1       0.789   9.890  22.015  0.00  0.00    +0.000 A 
ATOM     19  C   UNL     1       0.706  10.831  20.988  0.00  0.00    +0.000 A 
ATOM     20  C   UNL     1       0.965  10.451  19.673  0.00  0.00    +0.000 A 
ATOM     21  C   UNL     1       1.329   9.134  19.383  0.00  0.00    +0.000 A 
ENDBRANCH   4  16
TORSDOF 1
ENDMDL
MODEL 9
REMARK VINA RESULT:      -7.7      2.961      7.320
REMARK  Name = 
REMARK  1 active torsions:
REMARK  status: ('A' for Active; 'I' for Inactive)
REMARK    1  A    between atoms: C_4  and  C_5
REMARK                            x       y       z     vdW  Elec       q    Type
REMARK                         _______ _______ _______ _____ _____    ______ ____
ROOT
ATOM      1  O   UNL     1       3.489   3.066  20.257  0.00  0.00    +0.000 OA
ATOM      2  C   UNL     1       3.610   3.959  19.429  0.00  0.00    +0.000 A 
ATOM      3  C   UNL     1       4.444   3.777  18.234  0.00  0.00    +0.000 A 
ATOM      4  C   UNL     1       4.548   4.789  17.368  0.00  0.00    +0.000 A 
ATOM      5  O   UNL     1       3.929   6.020  17.499  0.00  0.00    +0.000 OA
ATOM      6  C   UNL     1       3.124   6.239  18.597  0.00  0.00    +0.000 A 
ATOM      7  C   UNL     1       2.937   5.261  19.573  0.00  0.00    +0.000 A 
ATOM      8  C   UNL     1       2.117   5.508  20.670  0.00  0.00    +0.000 A 
ATOM      9  C   UNL     1       1.483   6.747  20.785  0.00  0.00    +0.000 A 
ATOM     10  C   UNL     1       1.647   7.745  19.834  0.00  0.00    +0.000 A 
ATOM     11  N   UNL     1       1.003   8.909  20.018  0.00  0.00    +0.000 NA
ATOM     12  C   UNL     1       1.160   9.878  19.093  0.00  0.00    +0.000 A 
ATOM     13  C   UNL     1       1.947   9.744  17.968  0.00  0.00    +0.000 A 
ATOM     14  C   UNL     1       2.614   8.539  17.780  0.00  0.00    +0.000 A 
ATOM     15  C   UNL     1       2.481   7.495  18.720  0.00  0.00    +0.000 A 
ENDROOT
BRANCH   4  16
ATOM     16  C   UNL     1       5.368   4.661  16.159  0.00  0.00    +0.000 A 
ATOM     17  C   UNL     1       4.832   4.104  14.991  0.00  0.00    +0.000 A 
ATOM     18  C   UNL     1       5.601   4.034  13.828  0.00  0.00    +0.000 A 
ATOM     19  C   UNL     1       6.913   4.509  13.827  0.00  0.00    +0.000 A 
ATOM     20  C   UNL     1       7.462   5.037  14.994  0.00  0.00    +0.000 A 
ATOM     21  C   UNL     1       6.695   5.113  16.158  0.00  0.00    +0.000 A 
ENDBRANCH   4  16
TORSDOF 1
ENDMDL
