MODEL 1
REMARK VINA RESULT:      -6.4      0.000      0.000
REMARK  Name = 
REMARK  4 active torsions:
REMARK  status: ('A' for Active; 'I' for Inactive)
REMARK    1  A    between atoms: C_2  and  C_3
REMARK    2  A    between atoms: C_5  and  O_6
REMARK    3  A    between atoms: O_6  and  P_7
REMARK    4  A    between atoms: C_13  and  O_14
REMARK                            x       y       z     vdW  Elec       q    Type
REMARK                         _______ _______ _______ _____ _____    ______ ____
ROOT
ATOM      1  C   UNL     1       2.792   3.020  19.657  0.00  0.00    +0.000 A 
ATOM      2  C   UNL     1       4.131   3.365  19.756  0.00  0.00    +0.000 A 
ATOM      3  C   UNL     1       4.837   3.809  18.633  0.00  0.00    +0.000 A 
ATOM      4  C   UNL     1       4.197   3.833  17.391  0.00  0.00    +0.000 A 
ATOM      5  C   UNL     1       2.851   3.462  17.280  0.00  0.00    +0.000 A 
ATOM      6  C   UNL     1       2.146   3.063  18.420  0.00  0.00    +0.000 A 
ENDROOT
BRANCH   1   8
ATOM      7  O   UNL     1       2.182   3.050  21.993  0.00  0.00    +0.000 OA
ATOM      8  C   UNL     1       2.000   2.637  20.848  0.00  0.00    +0.000 C 
ENDBRANCH   1   8
BRANCH   6   9
ATOM      9  O   UNL     1       0.829   2.721  18.320  0.00  0.00    +0.000 OA
ATOM     10  H   UNL     1       0.354   3.103  19.079  0.00  0.00    +0.000 HD
ENDBRANCH   6   9
BRANCH   3  11
ATOM     11  O   UNL     1       6.138   4.282  18.655  0.00  0.00    +0.000 OA
BRANCH  11  12
ATOM     12  P   UNL     1       6.829   5.155  17.331  0.00  0.00    +0.000 P 
ATOM     13  O   UNL     1       7.154   6.371  18.246  0.00  0.00    +0.000 OA
ATOM     14  O   UNL     1       8.049   4.199  17.279  0.00  0.00    +0.000 OA
ATOM     15  O   UNL     1       7.519   6.028  16.006  0.00  0.00    +0.000 OA
ENDBRANCH  11  12
ENDBRANCH   3  11
TORSDOF 4
ENDMDL
MODEL 2
REMARK VINA RESULT:      -6.3      1.160      1.219
REMARK  Name = 
REMARK  4 active torsions:
REMARK  status: ('A' for Active; 'I' for Inactive)
REMARK    1  A    between atoms: C_2  and  C_3
REMARK    2  A    between atoms: C_5  and  O_6
REMARK    3  A    between atoms: O_6  and  P_7
REMARK    4  A    between atoms: C_13  and  O_14
REMARK                            x       y       z     vdW  Elec       q    Type
REMARK                         _______ _______ _______ _____ _____    ______ ____
ROOT
ATOM      1  C   UNL     1       3.386   3.635  19.745  0.00  0.00    +0.000 A 
ATOM      2  C   UNL     1       4.706   3.925  19.437  0.00  0.00    +0.000 A 
ATOM      3  C   UNL     1       5.016   4.856  18.440  0.00  0.00    +0.000 A 
ATOM      4  C   UNL     1       3.980   5.439  17.704  0.00  0.00    +0.000 A 
ATOM      5  C   UNL     1       2.645   5.131  17.994  0.00  0.00    +0.000 A 
ATOM      6  C   UNL     1       2.350   4.232  19.025  0.00  0.00    +0.000 A 
ENDROOT
BRANCH   1   8
ATOM      7  O   UNL     1       2.404   3.038  21.869  0.00  0.00    +0.000 OA
ATOM      8  C   UNL     1       3.032   2.725  20.859  0.00  0.00    +0.000 C 
ENDBRANCH   1   8
BRANCH   6   9
ATOM      9  O   UNL     1       1.049   3.946  19.325  0.00  0.00    +0.000 OA
ATOM     10  H   UNL     1       0.735   3.264  18.706  0.00  0.00    +0.000 HD
ENDBRANCH   6   9
BRANCH   3  11
ATOM     11  O   UNL     1       6.295   5.294  18.139  0.00  0.00    +0.000 OA
BRANCH  11  12
ATOM     12  P   UNL     1       6.933   5.257  16.531  0.00  0.00    +0.000 P 
ATOM     13  O   UNL     1       7.501   6.699  16.677  0.00  0.00    +0.000 OA
ATOM     14  O   UNL     1       8.017   4.225  16.937  0.00  0.00    +0.000 OA
ATOM     15  O   UNL     1       7.570   5.220  14.924  0.00  0.00    +0.000 OA
ENDBRANCH  11  12
ENDBRANCH   3  11
TORSDOF 4
ENDMDL
MODEL 3
REMARK VINA RESULT:      -6.1      1.602      1.937
REMARK  Name = 
REMARK  4 active torsions:
REMARK  status: ('A' for Active; 'I' for Inactive)
REMARK    1  A    between atoms: C_2  and  C_3
REMARK    2  A    between atoms: C_5  and  O_6
REMARK    3  A    between atoms: O_6  and  P_7
REMARK    4  A    between atoms: C_13  and  O_14
REMARK                            x       y       z     vdW  Elec       q    Type
REMARK                         _______ _______ _______ _____ _____    ______ ____
ROOT
ATOM      1  C   UNL     1       2.039   3.834  19.255  0.00  0.00    +0.000 A 
ATOM      2  C   UNL     1       2.756   4.972  18.916  0.00  0.00    +0.000 A 
ATOM      3  C   UNL     1       3.588   4.981  17.792  0.00  0.00    +0.000 A 
ATOM      4  C   UNL     1       3.748   3.806  17.052  0.00  0.00    +0.000 A 
ATOM      5  C   UNL     1       3.045   2.646  17.404  0.00  0.00    +0.000 A 
ATOM      6  C   UNL     1       2.182   2.667  18.504  0.00  0.00    +0.000 A 
ENDROOT
BRANCH   1   8
ATOM      7  O   UNL     1       1.041   2.995  21.286  0.00  0.00    +0.000 OA
ATOM      8  C   UNL     1       1.081   3.830  20.384  0.00  0.00    +0.000 C 
ENDBRANCH   1   8
BRANCH   6   9
ATOM      9  O   UNL     1       1.479   1.545  18.837  0.00  0.00    +0.000 OA
ATOM     10  H   UNL     1       0.637   1.553  18.348  0.00  0.00    +0.000 HD
ENDBRANCH   6   9
BRANCH   3  11
ATOM     11  O   UNL     1       4.253   6.096  17.311  0.00  0.00    +0.000 OA
BRANCH  11  12
ATOM     12  P   UNL     1       5.794   5.992  16.531  0.00  0.00    +0.000 P 
ATOM     13  O   UNL     1       5.245   6.696  15.256  0.00  0.00    +0.000 OA
ATOM     14  O   UNL     1       6.401   7.047  17.491  0.00  0.00    +0.000 OA
ATOM     15  O   UNL     1       7.334   5.887  15.751  0.00  0.00    +0.000 OA
ENDBRANCH  11  12
ENDBRANCH   3  11
TORSDOF 4
ENDMDL
MODEL 4
REMARK VINA RESULT:      -6.1      2.455      5.380
REMARK  Name = 
REMARK  4 active torsions:
REMARK  status: ('A' for Active; 'I' for Inactive)
REMARK    1  A    between atoms: C_2  and  C_3
REMARK    2  A    between atoms: C_5  and  O_6
REMARK    3  A    between atoms: O_6  and  P_7
REMARK    4  A    between atoms: C_13  and  O_14
REMARK                            x       y       z     vdW  Elec       q    Type
REMARK                         _______ _______ _______ _____ _____    ______ ____
ROOT
ATOM      1  C   UNL     1       6.261   5.228  18.531  0.00  0.00    +0.000 A 
ATOM      2  C   UNL     1       5.002   5.262  19.110  0.00  0.00    +0.000 A 
ATOM      3  C   UNL     1       3.907   4.673  18.470  0.00  0.00    +0.000 A 
ATOM      4  C   UNL     1       4.080   4.111  17.202  0.00  0.00    +0.000 A 
ATOM      5  C   UNL     1       5.344   4.096  16.600  0.00  0.00    +0.000 A 
ATOM      6  C   UNL     1       6.438   4.649  17.273  0.00  0.00    +0.000 A 
ENDROOT
BRANCH   1   8
ATOM      7  O   UNL     1       8.377   5.091  19.686  0.00  0.00    +0.000 OA
ATOM      8  C   UNL     1       7.451   5.762  19.232  0.00  0.00    +0.000 C 
ENDBRANCH   1   8
BRANCH   6   9
ATOM      9  O   UNL     1       7.677   4.617  16.699  0.00  0.00    +0.000 OA
ATOM     10  H   UNL     1       7.580   4.325  15.776  0.00  0.00    +0.000 HD
ENDBRANCH   6   9
BRANCH   3  11
ATOM     11  O   UNL     1       2.641   4.556  19.018  0.00  0.00    +0.000 OA
BRANCH  11  12
ATOM     12  P   UNL     1       2.369   3.886  20.590  0.00  0.00    +0.000 P 
ATOM     13  O   UNL     1       0.826   3.968  20.406  0.00  0.00    +0.000 OA
ATOM     14  O   UNL     1       2.878   2.495  20.133  0.00  0.00    +0.000 OA
ATOM     15  O   UNL     1       2.099   3.217  22.162  0.00  0.00    +0.000 OA
ENDBRANCH  11  12
ENDBRANCH   3  11
TORSDOF 4
ENDMDL
MODEL 5
REMARK VINA RESULT:      -6.1      1.701      1.987
REMARK  Name = 
REMARK  4 active torsions:
REMARK  status: ('A' for Active; 'I' for Inactive)
REMARK    1  A    between atoms: C_2  and  C_3
REMARK    2  A    between atoms: C_5  and  O_6
REMARK    3  A    between atoms: O_6  and  P_7
REMARK    4  A    between atoms: C_13  and  O_14
REMARK                            x       y       z     vdW  Elec       q    Type
REMARK                         _______ _______ _______ _____ _____    ______ ____
ROOT
ATOM      1  C   UNL     1       2.942   4.005  20.281  0.00  0.00    +0.000 A 
ATOM      2  C   UNL     1       4.090   3.518  19.674  0.00  0.00    +0.000 A 
ATOM      3  C   UNL     1       4.880   4.350  18.874  0.00  0.00    +0.000 A 
ATOM      4  C   UNL     1       4.462   5.662  18.632  0.00  0.00    +0.000 A 
ATOM      5  C   UNL     1       3.291   6.152  19.223  0.00  0.00    +0.000 A 
ATOM      6  C   UNL     1       2.535   5.321  20.057  0.00  0.00    +0.000 A 
ENDROOT
BRANCH   1   8
ATOM      7  O   UNL     1       2.587   2.510  22.143  0.00  0.00    +0.000 OA
ATOM      8  C   UNL     1       2.141   3.171  21.206  0.00  0.00    +0.000 C 
ENDBRANCH   1   8
BRANCH   6   9
ATOM      9  O   UNL     1       1.404   5.802  20.651  0.00  0.00    +0.000 OA
ATOM     10  H   UNL     1       1.454   6.774  20.664  0.00  0.00    +0.000 HD
ENDBRANCH   6   9
BRANCH   3  11
ATOM     11  O   UNL     1       6.098   3.989  18.321  0.00  0.00    +0.000 OA
BRANCH  11  12
ATOM     12  P   UNL     1       6.784   4.821  16.968  0.00  0.00    +0.000 P 
ATOM     13  O   UNL     1       8.192   4.229  17.263  0.00  0.00    +0.000 OA
ATOM     14  O   UNL     1       6.031   3.908  15.967  0.00  0.00    +0.000 OA
ATOM     15  O   UNL     1       7.469   5.655  15.616  0.00  0.00    +0.000 OA
ENDBRANCH  11  12
ENDBRANCH   3  11
TORSDOF 4
ENDMDL
MODEL 6
REMARK VINA RESULT:      -6.0      1.256      1.572
REMARK  Name = 
REMARK  4 active torsions:
REMARK  status: ('A' for Active; 'I' for Inactive)
REMARK    1  A    between atoms: C_2  and  C_3
REMARK    2  A    between atoms: C_5  and  O_6
REMARK    3  A    between atoms: O_6  and  P_7
REMARK    4  A    between atoms: C_13  and  O_14
REMARK                            x       y       z     vdW  Elec       q    Type
REMARK                         _______ _______ _______ _____ _____    ______ ____
ROOT
ATOM      1  C   UNL     1       3.123   3.504  19.802  0.00  0.00    +0.000 A 
ATOM      2  C   UNL     1       4.344   3.554  19.146  0.00  0.00    +0.000 A 
ATOM      3  C   UNL     1       4.532   4.410  18.057  0.00  0.00    +0.000 A 
ATOM      4  C   UNL     1       3.453   5.166  17.588  0.00  0.00    +0.000 A 
ATOM      5  C   UNL     1       2.211   5.102  18.231  0.00  0.00    +0.000 A 
ATOM      6  C   UNL     1       2.051   4.274  19.347  0.00  0.00    +0.000 A 
ENDROOT
BRANCH   1   8
ATOM      7  O   UNL     1       2.341   3.027  22.035  0.00  0.00    +0.000 OA
ATOM      8  C   UNL     1       2.928   2.675  21.014  0.00  0.00    +0.000 C 
ENDBRANCH   1   8
BRANCH   6   9
ATOM      9  O   UNL     1       0.848   4.225  19.990  0.00  0.00    +0.000 OA
ATOM     10  H   UNL     1       0.888   4.817  20.762  0.00  0.00    +0.000 HD
ENDBRANCH   6   9
BRANCH   3  11
ATOM     11  O   UNL     1       5.741   4.613  17.411  0.00  0.00    +0.000 OA
BRANCH  11  12
ATOM     12  P   UNL     1       6.907   5.764  17.967  0.00  0.00    +0.000 P 
ATOM     13  O   UNL     1       7.819   4.634  18.526  0.00  0.00    +0.000 OA
ATOM     14  O   UNL     1       7.328   6.105  16.514  0.00  0.00    +0.000 OA
ATOM     15  O   UNL     1       8.072   6.915  18.523  0.00  0.00    +0.000 OA
ENDBRANCH  11  12
ENDBRANCH   3  11
TORSDOF 4
ENDMDL
MODEL 7
REMARK VINA RESULT:      -6.0      2.557      5.534
REMARK  Name = 
REMARK  4 active torsions:
REMARK  status: ('A' for Active; 'I' for Inactive)
REMARK    1  A    between atoms: C_2  and  C_3
REMARK    2  A    between atoms: C_5  and  O_6
REMARK    3  A    between atoms: O_6  and  P_7
REMARK    4  A    between atoms: C_13  and  O_14
REMARK                            x       y       z     vdW  Elec       q    Type
REMARK                         _______ _______ _______ _____ _____    ______ ____
ROOT
ATOM      1  C   UNL     1       6.412   5.303  18.428  0.00  0.00    +0.000 A 
ATOM      2  C   UNL     1       5.112   5.494  18.873  0.00  0.00    +0.000 A 
ATOM      3  C   UNL     1       4.032   4.947  18.173  0.00  0.00    +0.000 A 
ATOM      4  C   UNL     1       4.270   4.264  16.977  0.00  0.00    +0.000 A 
ATOM      5  C   UNL     1       5.578   4.088  16.509  0.00  0.00    +0.000 A 
ATOM      6  C   UNL     1       6.651   4.603  17.244  0.00  0.00    +0.000 A 
ENDROOT
BRANCH   1   8
ATOM      7  O   UNL     1       8.298   6.737  18.888  0.00  0.00    +0.000 OA
ATOM      8  C   UNL     1       7.575   5.793  19.202  0.00  0.00    +0.000 C 
ENDBRANCH   1   8
BRANCH   6   9
ATOM      9  O   UNL     1       7.929   4.416  16.803  0.00  0.00    +0.000 OA
ATOM     10  H   UNL     1       8.029   4.873  15.949  0.00  0.00    +0.000 HD
ENDBRANCH   6   9
BRANCH   3  11
ATOM     11  O   UNL     1       2.714   4.987  18.597  0.00  0.00    +0.000 OA
BRANCH  11  12
ATOM     12  P   UNL     1       1.705   3.582  18.618  0.00  0.00    +0.000 P 
ATOM     13  O   UNL     1       0.957   4.085  19.887  0.00  0.00    +0.000 OA
ATOM     14  O   UNL     1       0.951   4.050  17.347  0.00  0.00    +0.000 OA
ATOM     15  O   UNL     1       0.696   2.177  18.639  0.00  0.00    +0.000 OA
ENDBRANCH  11  12
ENDBRANCH   3  11
TORSDOF 4
ENDMDL
MODEL 8
REMARK VINA RESULT:      -6.0      2.485      5.592
REMARK  Name = 
REMARK  4 active torsions:
REMARK  status: ('A' for Active; 'I' for Inactive)
REMARK    1  A    between atoms: C_2  and  C_3
REMARK    2  A    between atoms: C_5  and  O_6
REMARK    3  A    between atoms: O_6  and  P_7
REMARK    4  A    between atoms: C_13  and  O_14
REMARK                            x       y       z     vdW  Elec       q    Type
REMARK                         _______ _______ _______ _____ _____    ______ ____
ROOT
ATOM      1  C   UNL     1       6.036   5.169  18.166  0.00  0.00    +0.000 A 
ATOM      2  C   UNL     1       5.232   4.466  19.051  0.00  0.00    +0.000 A 
ATOM      3  C   UNL     1       3.869   4.759  19.162  0.00  0.00    +0.000 A 
ATOM      4  C   UNL     1       3.337   5.820  18.423  0.00  0.00    +0.000 A 
ATOM      5  C   UNL     1       4.149   6.550  17.546  0.00  0.00    +0.000 A 
ATOM      6  C   UNL     1       5.500   6.215  17.412  0.00  0.00    +0.000 A 
ENDROOT
BRANCH   1   8
ATOM      7  O   UNL     1       7.955   4.415  16.911  0.00  0.00    +0.000 OA
ATOM      8  C   UNL     1       7.459   4.815  17.963  0.00  0.00    +0.000 C 
ENDBRANCH   1   8
BRANCH   6   9
ATOM      9  O   UNL     1       6.290   6.910  16.542  0.00  0.00    +0.000 OA
ATOM     10  H   UNL     1       7.002   6.321  16.237  0.00  0.00    +0.000 HD
ENDBRANCH   6   9
BRANCH   3  11
ATOM     11  O   UNL     1       2.967   4.042  19.930  0.00  0.00    +0.000 OA
BRANCH  11  12
ATOM     12  P   UNL     1       1.651   3.160  19.233  0.00  0.00    +0.000 P 
ATOM     13  O   UNL     1       2.573   1.947  18.920  0.00  0.00    +0.000 OA
ATOM     14  O   UNL     1       0.987   2.968  20.620  0.00  0.00    +0.000 OA
ATOM     15  O   UNL     1       0.336   2.280  18.535  0.00  0.00    +0.000 OA
ENDBRANCH  11  12
ENDBRANCH   3  11
TORSDOF 4
ENDMDL
MODEL 9
REMARK VINA RESULT:      -6.0      2.695      5.867
REMARK  Name = 
REMARK  4 active torsions:
REMARK  status: ('A' for Active; 'I' for Inactive)
REMARK    1  A    between atoms: C_2  and  C_3
REMARK    2  A    between atoms: C_5  and  O_6
REMARK    3  A    between atoms: O_6  and  P_7
REMARK    4  A    between atoms: C_13  and  O_14
REMARK                            x       y       z     vdW  Elec       q    Type
REMARK                         _______ _______ _______ _____ _____    ______ ____
ROOT
ATOM      1  C   UNL     1       5.382   4.811  16.223  0.00  0.00    +0.000 A 
ATOM      2  C   UNL     1       4.447   3.831  16.519  0.00  0.00    +0.000 A 
ATOM      3  C   UNL     1       3.318   4.133  17.287  0.00  0.00    +0.000 A 
ATOM      4  C   UNL     1       3.177   5.419  17.818  0.00  0.00    +0.000 A 
ATOM      5  C   UNL     1       4.132   6.406  17.543  0.00  0.00    +0.000 A 
ATOM      6  C   UNL     1       5.232   6.100  16.735  0.00  0.00    +0.000 A 
ENDROOT
BRANCH   1   8
ATOM      7  O   UNL     1       7.712   4.789  15.590  0.00  0.00    +0.000 OA
ATOM      8  C   UNL     1       6.535   4.538  15.335  0.00  0.00    +0.000 C 
ENDBRANCH   1   8
BRANCH   6   9
ATOM      9  O   UNL     1       6.153   7.066  16.448  0.00  0.00    +0.000 OA
ATOM     10  H   UNL     1       6.953   6.634  16.099  0.00  0.00    +0.000 HD
ENDBRANCH   6   9
BRANCH   3  11
ATOM     11  O   UNL     1       2.276   3.256  17.539  0.00  0.00    +0.000 OA
BRANCH  11  12
ATOM     12  P   UNL     1       1.564   3.088  19.107  0.00  0.00    +0.000 P 
ATOM     13  O   UNL     1       0.364   2.286  18.524  0.00  0.00    +0.000 OA
ATOM     14  O   UNL     1       2.678   2.109  19.557  0.00  0.00    +0.000 OA
ATOM     15  O   UNL     1       0.852   2.922  20.675  0.00  0.00    +0.000 OA
ENDBRANCH  11  12
ENDBRANCH   3  11
TORSDOF 4
ENDMDL
