MODEL 1
REMARK VINA RESULT:      -6.1      0.000      0.000
REMARK  Name = 
REMARK  8 active torsions:
REMARK  status: ('A' for Active; 'I' for Inactive)
REMARK    1  A    between atoms: C_1  and  O_2
REMARK    2  A    between atoms: O_2  and  C_3
REMARK    3  A    between atoms: C_5  and  C_6
REMARK    4  A    between atoms: N_7  and  N_8
REMARK    5  A    between atoms: N_8  and  C_9
REMARK    6  A    between atoms: C_9  and  N_10
REMARK    7  A    between atoms: C_13  and  O_14
REMARK    8  A    between atoms: O_14  and  C_15
REMARK                            x       y       z     vdW  Elec       q    Type
REMARK                         _______ _______ _______ _____ _____    ______ ____
ROOT
ATOM      1  C   UNL     1       7.109   4.568  17.550  0.00  0.00    +0.000 A 
ATOM      2  N   UNL     1       5.882   4.191  17.869  0.00  0.00    +0.000 NA
ATOM      3  C   UNL     1       5.059   4.115  16.827  0.00  0.00    +0.000 A 
ATOM      4  N   UNL     1       5.355   4.369  15.556  0.00  0.00    +0.000 NA
ATOM      5  C   UNL     1       6.618   4.731  15.376  0.00  0.00    +0.000 A 
ATOM      6  N   UNL     1       7.539   4.849  16.327  0.00  0.00    +0.000 NA
ENDROOT
BRANCH   1   8
ATOM      7  C   UNL     1       7.841   5.835  19.371  0.00  0.00    +0.000 C 
ATOM      8  O   UNL     1       8.060   4.703  18.538  0.00  0.00    +0.000 OA
ENDBRANCH   1   8
BRANCH   3   9
ATOM      9  C   UNL     1       3.662   3.720  17.101  0.00  0.00    +0.000 C 
ATOM     10  N   UNL     1       2.793   4.549  17.597  0.00  0.00    +0.000 NA
BRANCH  10  11
ATOM     11  N   UNL     1       1.540   4.041  17.789  0.00  0.00    +0.000 N 
ATOM     12  H   UNL     1       0.792   4.228  17.128  0.00  0.00    +0.000 HD
BRANCH  11  13
ATOM     13  C   UNL     1       1.258   3.268  18.883  0.00  0.00    +0.000 C 
ATOM     14  S   UNL     1       1.111   3.906  20.407  0.00  0.00    +0.000 S 
BRANCH  13  15
ATOM     15  N   UNL     1       1.108   1.945  18.639  0.00  0.00    +0.000 N 
ATOM     16  H   UNL     1       0.188   1.635  18.349  0.00  0.00    +0.000 HD
ATOM     17  H   UNL     1       1.875   1.296  18.722  0.00  0.00    +0.000 HD
ENDBRANCH  13  15
ENDBRANCH  11  13
ENDBRANCH  10  11
ENDBRANCH   3   9
BRANCH   5  18
ATOM     18  O   UNL     1       6.950   5.004  14.066  0.00  0.00    +0.000 OA
ATOM     19  C   UNL     1       6.487   4.016  13.153  0.00  0.00    +0.000 C 
ENDBRANCH   5  18
TORSDOF 6
ENDMDL
MODEL 2
REMARK VINA RESULT:      -6.0      1.750      1.848
REMARK  Name = 
REMARK  8 active torsions:
REMARK  status: ('A' for Active; 'I' for Inactive)
REMARK    1  A    between atoms: C_1  and  O_2
REMARK    2  A    between atoms: O_2  and  C_3
REMARK    3  A    between atoms: C_5  and  C_6
REMARK    4  A    between atoms: N_7  and  N_8
REMARK    5  A    between atoms: N_8  and  C_9
REMARK    6  A    between atoms: C_9  and  N_10
REMARK    7  A    between atoms: C_13  and  O_14
REMARK    8  A    between atoms: O_14  and  C_15
REMARK                            x       y       z     vdW  Elec       q    Type
REMARK                         _______ _______ _______ _____ _____    ______ ____
ROOT
ATOM      1  C   UNL     1       7.445   6.530  17.905  0.00  0.00    +0.000 A 
ATOM      2  N   UNL     1       6.726   5.746  18.691  0.00  0.00    +0.000 NA
ATOM      3  C   UNL     1       6.055   4.804  18.034  0.00  0.00    +0.000 A 
ATOM      4  N   UNL     1       6.053   4.594  16.722  0.00  0.00    +0.000 NA
ATOM      5  C   UNL     1       6.819   5.446  16.055  0.00  0.00    +0.000 A 
ATOM      6  N   UNL     1       7.536   6.431  16.586  0.00  0.00    +0.000 NA
ENDROOT
BRANCH   1   8
ATOM      7  C   UNL     1       7.991   8.798  17.780  0.00  0.00    +0.000 C 
ATOM      8  O   UNL     1       8.179   7.559  18.455  0.00  0.00    +0.000 OA
ENDBRANCH   1   8
BRANCH   3   9
ATOM      9  C   UNL     1       5.208   3.898  18.838  0.00  0.00    +0.000 C 
ATOM     10  N   UNL     1       3.975   3.642  18.522  0.00  0.00    +0.000 NA
BRANCH  10  11
ATOM     11  N   UNL     1       3.321   2.781  19.358  0.00  0.00    +0.000 N 
ATOM     12  H   UNL     1       3.835   2.162  19.978  0.00  0.00    +0.000 HD
BRANCH  11  13
ATOM     13  C   UNL     1       1.953   2.726  19.375  0.00  0.00    +0.000 C 
ATOM     14  S   UNL     1       1.032   3.810  20.227  0.00  0.00    +0.000 S 
BRANCH  13  15
ATOM     15  N   UNL     1       1.401   1.726  18.650  0.00  0.00    +0.000 N 
ATOM     16  H   UNL     1       0.727   1.993  17.942  0.00  0.00    +0.000 HD
ATOM     17  H   UNL     1       1.658   0.760  18.789  0.00  0.00    +0.000 HD
ENDBRANCH  13  15
ENDBRANCH  11  13
ENDBRANCH  10  11
ENDBRANCH   3   9
BRANCH   5  18
ATOM     18  O   UNL     1       6.831   5.251  14.689  0.00  0.00    +0.000 OA
ATOM     19  C   UNL     1       6.104   4.098  14.281  0.00  0.00    +0.000 C 
ENDBRANCH   5  18
TORSDOF 6
ENDMDL
MODEL 3
REMARK VINA RESULT:      -5.9      1.963      3.463
REMARK  Name = 
REMARK  8 active torsions:
REMARK  status: ('A' for Active; 'I' for Inactive)
REMARK    1  A    between atoms: C_1  and  O_2
REMARK    2  A    between atoms: O_2  and  C_3
REMARK    3  A    between atoms: C_5  and  C_6
REMARK    4  A    between atoms: N_7  and  N_8
REMARK    5  A    between atoms: N_8  and  C_9
REMARK    6  A    between atoms: C_9  and  N_10
REMARK    7  A    between atoms: C_13  and  O_14
REMARK    8  A    between atoms: O_14  and  C_15
REMARK                            x       y       z     vdW  Elec       q    Type
REMARK                         _______ _______ _______ _____ _____    ______ ____
ROOT
ATOM      1  C   UNL     1       6.737   5.245  15.755  0.00  0.00    +0.000 A 
ATOM      2  N   UNL     1       5.916   4.388  16.339  0.00  0.00    +0.000 NA
ATOM      3  C   UNL     1       5.841   4.534  17.658  0.00  0.00    +0.000 A 
ATOM      4  N   UNL     1       6.487   5.428  18.400  0.00  0.00    +0.000 NA
ATOM      5  C   UNL     1       7.271   6.227  17.690  0.00  0.00    +0.000 A 
ATOM      6  N   UNL     1       7.438   6.187  16.373  0.00  0.00    +0.000 NA
ENDROOT
BRANCH   1   8
ATOM      7  C   UNL     1       6.333   4.045  13.793  0.00  0.00    +0.000 C 
ATOM      8  O   UNL     1       6.920   5.195  14.391  0.00  0.00    +0.000 OA
ENDBRANCH   1   8
BRANCH   3   9
ATOM      9  C   UNL     1       4.960   3.599  18.389  0.00  0.00    +0.000 C 
ATOM     10  N   UNL     1       4.422   3.905  19.531  0.00  0.00    +0.000 NA
BRANCH  10  11
ATOM     11  N   UNL     1       3.627   2.940  20.082  0.00  0.00    +0.000 N 
ATOM     12  H   UNL     1       3.896   1.962  20.057  0.00  0.00    +0.000 HD
BRANCH  11  13
ATOM     13  C   UNL     1       2.440   3.270  20.681  0.00  0.00    +0.000 C 
ATOM     14  S   UNL     1       1.176   3.937  19.840  0.00  0.00    +0.000 S 
BRANCH  13  15
ATOM     15  N   UNL     1       2.367   3.015  22.008  0.00  0.00    +0.000 N 
ATOM     16  H   UNL     1       1.477   3.192  22.460  0.00  0.00    +0.000 HD
ATOM     17  H   UNL     1       3.151   2.649  22.526  0.00  0.00    +0.000 HD
ENDBRANCH  13  15
ENDBRANCH  11  13
ENDBRANCH  10  11
ENDBRANCH   3   9
BRANCH   5  18
ATOM     18  O   UNL     1       7.956   7.163  18.437  0.00  0.00    +0.000 OA
ATOM     19  C   UNL     1       8.000   8.446  17.824  0.00  0.00    +0.000 C 
ENDBRANCH   5  18
TORSDOF 6
ENDMDL
MODEL 4
REMARK VINA RESULT:      -5.8      1.726      3.336
REMARK  Name = 
REMARK  8 active torsions:
REMARK  status: ('A' for Active; 'I' for Inactive)
REMARK    1  A    between atoms: C_1  and  O_2
REMARK    2  A    between atoms: O_2  and  C_3
REMARK    3  A    between atoms: C_5  and  C_6
REMARK    4  A    between atoms: N_7  and  N_8
REMARK    5  A    between atoms: N_8  and  C_9
REMARK    6  A    between atoms: C_9  and  N_10
REMARK    7  A    between atoms: C_13  and  O_14
REMARK    8  A    between atoms: O_14  and  C_15
REMARK                            x       y       z     vdW  Elec       q    Type
REMARK                         _______ _______ _______ _____ _____    ______ ____
ROOT
ATOM      1  C   UNL     1       6.821   4.996  15.777  0.00  0.00    +0.000 A 
ATOM      2  N   UNL     1       5.887   4.273  16.372  0.00  0.00    +0.000 NA
ATOM      3  C   UNL     1       5.703   4.588  17.651  0.00  0.00    +0.000 A 
ATOM      4  N   UNL     1       6.344   5.525  18.343  0.00  0.00    +0.000 NA
ATOM      5  C   UNL     1       7.248   6.177  17.625  0.00  0.00    +0.000 A 
ATOM      6  N   UNL     1       7.532   5.961  16.345  0.00  0.00    +0.000 NA
ENDROOT
BRANCH   1   8
ATOM      7  C   UNL     1       6.177   3.922  13.805  0.00  0.00    +0.000 C 
ATOM      8  O   UNL     1       7.124   4.764  14.453  0.00  0.00    +0.000 OA
ENDBRANCH   1   8
BRANCH   3   9
ATOM      9  C   UNL     1       4.691   3.811  18.396  0.00  0.00    +0.000 C 
ATOM     10  N   UNL     1       4.974   3.178  19.494  0.00  0.00    +0.000 NA
BRANCH  10  11
ATOM     11  N   UNL     1       3.932   2.509  20.072  0.00  0.00    +0.000 N 
ATOM     12  H   UNL     1       4.066   1.958  20.914  0.00  0.00    +0.000 HD
BRANCH  11  13
ATOM     13  C   UNL     1       2.678   2.560  19.524  0.00  0.00    +0.000 C 
ATOM     14  S   UNL     1       1.574   3.724  19.942  0.00  0.00    +0.000 S 
BRANCH  13  15
ATOM     15  N   UNL     1       2.400   1.596  18.617  0.00  0.00    +0.000 N 
ATOM     16  H   UNL     1       2.704   0.655  18.840  0.00  0.00    +0.000 HD
ATOM     17  H   UNL     1       1.898   1.793  17.764  0.00  0.00    +0.000 HD
ENDBRANCH  13  15
ENDBRANCH  11  13
ENDBRANCH  10  11
ENDBRANCH   3   9
BRANCH   5  18
ATOM     18  O   UNL     1       7.931   7.153  18.321  0.00  0.00    +0.000 OA
ATOM     19  C   UNL     1       7.858   8.434  17.706  0.00  0.00    +0.000 C 
ENDBRANCH   5  18
TORSDOF 6
ENDMDL
MODEL 5
REMARK VINA RESULT:      -5.8      0.951      3.237
REMARK  Name = 
REMARK  8 active torsions:
REMARK  status: ('A' for Active; 'I' for Inactive)
REMARK    1  A    between atoms: C_1  and  O_2
REMARK    2  A    between atoms: O_2  and  C_3
REMARK    3  A    between atoms: C_5  and  C_6
REMARK    4  A    between atoms: N_7  and  N_8
REMARK    5  A    between atoms: N_8  and  C_9
REMARK    6  A    between atoms: C_9  and  N_10
REMARK    7  A    between atoms: C_13  and  O_14
REMARK    8  A    between atoms: O_14  and  C_15
REMARK                            x       y       z     vdW  Elec       q    Type
REMARK                         _______ _______ _______ _____ _____    ______ ____
ROOT
ATOM      1  C   UNL     1       6.619   4.820  15.277  0.00  0.00    +0.000 A 
ATOM      2  N   UNL     1       5.336   4.608  15.519  0.00  0.00    +0.000 NA
ATOM      3  C   UNL     1       5.063   4.404  16.805  0.00  0.00    +0.000 A 
ATOM      4  N   UNL     1       5.928   4.400  17.814  0.00  0.00    +0.000 NA
ATOM      5  C   UNL     1       7.177   4.630  17.432  0.00  0.00    +0.000 A 
ATOM      6  N   UNL     1       7.585   4.846  16.186  0.00  0.00    +0.000 NA
ENDROOT
BRANCH   1   8
ATOM      7  C   UNL     1       6.574   4.043  13.074  0.00  0.00    +0.000 C 
ATOM      8  O   UNL     1       7.044   5.033  13.983  0.00  0.00    +0.000 OA
ENDBRANCH   1   8
BRANCH   3   9
ATOM      9  C   UNL     1       3.653   4.137  17.158  0.00  0.00    +0.000 C 
ATOM     10  N   UNL     1       2.898   5.034  17.717  0.00  0.00    +0.000 NA
BRANCH  10  11
ATOM     11  N   UNL     1       1.615   4.642  17.978  0.00  0.00    +0.000 N 
ATOM     12  H   UNL     1       0.849   4.925  17.375  0.00  0.00    +0.000 HD
BRANCH  11  13
ATOM     13  C   UNL     1       1.331   3.860  19.065  0.00  0.00    +0.000 C 
ATOM     14  S   UNL     1       1.021   2.237  18.934  0.00  0.00    +0.000 S 
BRANCH  13  15
ATOM     15  N   UNL     1       1.319   4.502  20.256  0.00  0.00    +0.000 N 
ATOM     16  H   UNL     1       0.949   5.446  20.264  0.00  0.00    +0.000 HD
ATOM     17  H   UNL     1       1.644   4.062  21.104  0.00  0.00    +0.000 HD
ENDBRANCH  13  15
ENDBRANCH  11  13
ENDBRANCH  10  11
ENDBRANCH   3   9
BRANCH   5  18
ATOM     18  O   UNL     1       8.096   4.627  18.461  0.00  0.00    +0.000 OA
ATOM     19  C   UNL     1       7.915   5.702  19.376  0.00  0.00    +0.000 C 
ENDBRANCH   5  18
TORSDOF 6
ENDMDL
MODEL 6
REMARK VINA RESULT:      -5.8      1.844      3.416
REMARK  Name = 
REMARK  8 active torsions:
REMARK  status: ('A' for Active; 'I' for Inactive)
REMARK    1  A    between atoms: C_1  and  O_2
REMARK    2  A    between atoms: O_2  and  C_3
REMARK    3  A    between atoms: C_5  and  C_6
REMARK    4  A    between atoms: N_7  and  N_8
REMARK    5  A    between atoms: N_8  and  C_9
REMARK    6  A    between atoms: C_9  and  N_10
REMARK    7  A    between atoms: C_13  and  O_14
REMARK    8  A    between atoms: O_14  and  C_15
REMARK                            x       y       z     vdW  Elec       q    Type
REMARK                         _______ _______ _______ _____ _____    ______ ____
ROOT
ATOM      1  C   UNL     1       6.650   5.365  15.782  0.00  0.00    +0.000 A 
ATOM      2  N   UNL     1       5.648   4.734  16.371  0.00  0.00    +0.000 NA
ATOM      3  C   UNL     1       5.531   5.010  17.667  0.00  0.00    +0.000 A 
ATOM      4  N   UNL     1       6.297   5.829  18.381  0.00  0.00    +0.000 NA
ATOM      5  C   UNL     1       7.259   6.399  17.668  0.00  0.00    +0.000 A 
ATOM      6  N   UNL     1       7.487   6.209  16.373  0.00  0.00    +0.000 NA
ENDROOT
BRANCH   1   8
ATOM      7  C   UNL     1       6.226   4.014  13.925  0.00  0.00    +0.000 C 
ATOM      8  O   UNL     1       6.894   5.159  14.442  0.00  0.00    +0.000 OA
ENDBRANCH   1   8
BRANCH   3   9
ATOM      9  C   UNL     1       4.447   4.328  18.404  0.00  0.00    +0.000 C 
ATOM     10  N   UNL     1       3.229   4.777  18.416  0.00  0.00    +0.000 NA
BRANCH  10  11
ATOM     11  N   UNL     1       2.336   4.035  19.136  0.00  0.00    +0.000 N 
ATOM     12  H   UNL     1       1.745   3.343  18.685  0.00  0.00    +0.000 HD
BRANCH  11  13
ATOM     13  C   UNL     1       2.212   4.209  20.489  0.00  0.00    +0.000 C 
ATOM     14  S   UNL     1       2.028   2.936  21.535  0.00  0.00    +0.000 S 
BRANCH  13  15
ATOM     15  N   UNL     1       2.250   5.493  20.916  0.00  0.00    +0.000 N 
ATOM     16  H   UNL     1       3.143   5.968  20.857  0.00  0.00    +0.000 HD
ATOM     17  H   UNL     1       1.428   5.965  21.261  0.00  0.00    +0.000 HD
ENDBRANCH  13  15
ENDBRANCH  11  13
ENDBRANCH  10  11
ENDBRANCH   3   9
BRANCH   5  18
ATOM     18  O   UNL     1       8.070   7.251  18.387  0.00  0.00    +0.000 OA
ATOM     19  C   UNL     1       8.075   8.581  17.880  0.00  0.00    +0.000 C 
ENDBRANCH   5  18
TORSDOF 6
ENDMDL
MODEL 7
REMARK VINA RESULT:      -5.8      3.522      5.200
REMARK  Name = 
REMARK  8 active torsions:
REMARK  status: ('A' for Active; 'I' for Inactive)
REMARK    1  A    between atoms: C_1  and  O_2
REMARK    2  A    between atoms: O_2  and  C_3
REMARK    3  A    between atoms: C_5  and  C_6
REMARK    4  A    between atoms: N_7  and  N_8
REMARK    5  A    between atoms: N_8  and  C_9
REMARK    6  A    between atoms: C_9  and  N_10
REMARK    7  A    between atoms: C_13  and  O_14
REMARK    8  A    between atoms: O_14  and  C_15
REMARK                            x       y       z     vdW  Elec       q    Type
REMARK                         _______ _______ _______ _____ _____    ______ ____
ROOT
ATOM      1  C   UNL     1       7.055   6.242  17.556  0.00  0.00    +0.000 A 
ATOM      2  N   UNL     1       7.396   5.776  16.367  0.00  0.00    +0.000 NA
ATOM      3  C   UNL     1       6.525   4.905  15.865  0.00  0.00    +0.000 A 
ATOM      4  N   UNL     1       5.395   4.490  16.430  0.00  0.00    +0.000 NA
ATOM      5  C   UNL     1       5.172   5.039  17.616  0.00  0.00    +0.000 A 
ATOM      6  N   UNL     1       5.959   5.917  18.230  0.00  0.00    +0.000 NA
ENDROOT
BRANCH   1   8
ATOM      7  C   UNL     1       7.846   8.439  17.614  0.00  0.00    +0.000 C 
ATOM      8  O   UNL     1       7.877   7.142  18.199  0.00  0.00    +0.000 OA
ENDBRANCH   1   8
BRANCH   3   9
ATOM      9  C   UNL     1       6.843   4.320  14.546  0.00  0.00    +0.000 C 
ATOM     10  N   UNL     1       5.920   3.918  13.725  0.00  0.00    +0.000 NA
BRANCH  10  11
ATOM     11  N   UNL     1       6.370   3.405  12.541  0.00  0.00    +0.000 N 
ATOM     12  H   UNL     1       7.314   3.586  12.217  0.00  0.00    +0.000 HD
BRANCH  11  13
ATOM     13  C   UNL     1       5.552   2.636  11.758  0.00  0.00    +0.000 C 
ATOM     14  S   UNL     1       4.072   3.164  11.231  0.00  0.00    +0.000 S 
BRANCH  13  15
ATOM     15  N   UNL     1       6.034   1.411  11.440  0.00  0.00    +0.000 N 
ATOM     16  H   UNL     1       5.417   0.623  11.593  0.00  0.00    +0.000 HD
ATOM     17  H   UNL     1       6.957   1.284  11.053  0.00  0.00    +0.000 HD
ENDBRANCH  13  15
ENDBRANCH  11  13
ENDBRANCH  10  11
ENDBRANCH   3   9
BRANCH   5  18
ATOM     18  O   UNL     1       4.008   4.622  18.226  0.00  0.00    +0.000 OA
ATOM     19  C   UNL     1       3.152   3.889  17.357  0.00  0.00    +0.000 C 
ENDBRANCH   5  18
TORSDOF 6
ENDMDL
MODEL 8
REMARK VINA RESULT:      -5.8      1.284      1.411
REMARK  Name = 
REMARK  8 active torsions:
REMARK  status: ('A' for Active; 'I' for Inactive)
REMARK    1  A    between atoms: C_1  and  O_2
REMARK    2  A    between atoms: O_2  and  C_3
REMARK    3  A    between atoms: C_5  and  C_6
REMARK    4  A    between atoms: N_7  and  N_8
REMARK    5  A    between atoms: N_8  and  C_9
REMARK    6  A    between atoms: C_9  and  N_10
REMARK    7  A    between atoms: C_13  and  O_14
REMARK    8  A    between atoms: O_14  and  C_15
REMARK                            x       y       z     vdW  Elec       q    Type
REMARK                         _______ _______ _______ _____ _____    ______ ____
ROOT
ATOM      1  C   UNL     1       6.774   4.478  17.807  0.00  0.00    +0.000 A 
ATOM      2  N   UNL     1       5.704   4.005  18.425  0.00  0.00    +0.000 NA
ATOM      3  C   UNL     1       4.651   3.853  17.627  0.00  0.00    +0.000 A 
ATOM      4  N   UNL     1       4.590   4.119  16.326  0.00  0.00    +0.000 NA
ATOM      5  C   UNL     1       5.730   4.581  15.833  0.00  0.00    +0.000 A 
ATOM      6  N   UNL     1       6.852   4.782  16.518  0.00  0.00    +0.000 NA
ENDROOT
BRANCH   1   8
ATOM      7  C   UNL     1       7.838   5.806  19.407  0.00  0.00    +0.000 C 
ATOM      8  O   UNL     1       7.933   4.698  18.519  0.00  0.00    +0.000 OA
ENDBRANCH   1   8
BRANCH   3   9
ATOM      9  C   UNL     1       3.407   3.348  18.245  0.00  0.00    +0.000 C 
ATOM     10  N   UNL     1       3.246   2.097  18.555  0.00  0.00    +0.000 NA
BRANCH  10  11
ATOM     11  N   UNL     1       2.045   1.784  19.126  0.00  0.00    +0.000 N 
ATOM     12  H   UNL     1       1.515   0.974  18.819  0.00  0.00    +0.000 HD
BRANCH  11  13
ATOM     13  C   UNL     1       1.522   2.559  20.126  0.00  0.00    +0.000 C 
ATOM     14  S   UNL     1       2.271   2.739  21.594  0.00  0.00    +0.000 S 
BRANCH  13  15
ATOM     15  N   UNL     1       0.350   3.170  19.835  0.00  0.00    +0.000 N 
ATOM     16  H   UNL     1       0.064   3.926  20.447  0.00  0.00    +0.000 HD
ATOM     17  H   UNL     1      -0.209   2.903  19.039  0.00  0.00    +0.000 HD
ENDBRANCH  13  15
ENDBRANCH  11  13
ENDBRANCH  10  11
ENDBRANCH   3   9
BRANCH   5  18
ATOM     18  O   UNL     1       5.692   4.869  14.485  0.00  0.00    +0.000 OA
ATOM     19  C   UNL     1       6.309   3.870  13.681  0.00  0.00    +0.000 C 
ENDBRANCH   5  18
TORSDOF 6
ENDMDL
MODEL 9
REMARK VINA RESULT:      -5.8      1.918      2.041
REMARK  Name = 
REMARK  8 active torsions:
REMARK  status: ('A' for Active; 'I' for Inactive)
REMARK    1  A    between atoms: C_1  and  O_2
REMARK    2  A    between atoms: O_2  and  C_3
REMARK    3  A    between atoms: C_5  and  C_6
REMARK    4  A    between atoms: N_7  and  N_8
REMARK    5  A    between atoms: N_8  and  C_9
REMARK    6  A    between atoms: C_9  and  N_10
REMARK    7  A    between atoms: C_13  and  O_14
REMARK    8  A    between atoms: O_14  and  C_15
REMARK                            x       y       z     vdW  Elec       q    Type
REMARK                         _______ _______ _______ _____ _____    ______ ____
ROOT
ATOM      1  C   UNL     1       7.304   6.507  17.800  0.00  0.00    +0.000 A 
ATOM      2  N   UNL     1       6.341   5.932  18.501  0.00  0.00    +0.000 NA
ATOM      3  C   UNL     1       5.573   5.116  17.785  0.00  0.00    +0.000 A 
ATOM      4  N   UNL     1       5.691   4.842  16.489  0.00  0.00    +0.000 NA
ATOM      5  C   UNL     1       6.698   5.481  15.910  0.00  0.00    +0.000 A 
ATOM      6  N   UNL     1       7.536   6.322  16.507  0.00  0.00    +0.000 NA
ENDROOT
BRANCH   1   8
ATOM      7  C   UNL     1       8.079   8.709  17.892  0.00  0.00    +0.000 C 
ATOM      8  O   UNL     1       8.164   7.389  18.417  0.00  0.00    +0.000 OA
ENDBRANCH   1   8
BRANCH   3   9
ATOM      9  C   UNL     1       4.459   4.449  18.490  0.00  0.00    +0.000 C 
ATOM     10  N   UNL     1       3.238   4.885  18.424  0.00  0.00    +0.000 NA
BRANCH  10  11
ATOM     11  N   UNL     1       2.316   4.160  19.124  0.00  0.00    +0.000 N 
ATOM     12  H   UNL     1       1.707   3.496  18.656  0.00  0.00    +0.000 HD
BRANCH  11  13
ATOM     13  C   UNL     1       2.187   4.314  20.478  0.00  0.00    +0.000 C 
ATOM     14  S   UNL     1       2.059   3.023  21.511  0.00  0.00    +0.000 S 
BRANCH  13  15
ATOM     15  N   UNL     1       2.171   5.593  20.919  0.00  0.00    +0.000 N 
ATOM     16  H   UNL     1       2.371   5.741  21.902  0.00  0.00    +0.000 HD
ATOM     17  H   UNL     1       1.986   6.369  20.302  0.00  0.00    +0.000 HD
ENDBRANCH  13  15
ENDBRANCH  11  13
ENDBRANCH  10  11
ENDBRANCH   3   9
BRANCH   5  18
ATOM     18  O   UNL     1       6.841   5.217  14.564  0.00  0.00    +0.000 OA
ATOM     19  C   UNL     1       6.194   4.016  14.157  0.00  0.00    +0.000 C 
ENDBRANCH   5  18
TORSDOF 6
ENDMDL
