MODEL 1
REMARK VINA RESULT:      -8.4      0.000      0.000
REMARK  Name = 
REMARK  9 active torsions:
REMARK  status: ('A' for Active; 'I' for Inactive)
REMARK    1  A    between atoms: C_1  and  O_2
REMARK    2  A    between atoms: O_2  and  C_3
REMARK    3  A    between atoms: C_6  and  C_7
REMARK    4  A    between atoms: C_7  and  C_9
REMARK    5  A    between atoms: N_13  and  C_14
REMARK    6  A    between atoms: C_14  and  C_15
REMARK    7  A    between atoms: C_19  and  C_20
REMARK    8  A    between atoms: C_23  and  O_24
REMARK    9  A    between atoms: O_24  and  C_25
REMARK                            x       y       z     vdW  Elec       q    Type
REMARK                         _______ _______ _______ _____ _____    ______ ____
ROOT
ATOM      1  C   UNL     1       3.171   3.929  20.062  0.00  0.00    +0.000 C 
ATOM      2  C   UNL     1       1.789   3.421  19.654  0.00  0.00    +0.000 C 
ATOM      3  C   UNL     1       1.477   3.761  18.202  0.00  0.00    +0.000 C 
ATOM      4  C   UNL     1       1.663   5.253  17.913  0.00  0.00    +0.000 C 
ATOM      5  N   UNL     1       2.951   5.771  18.385  0.00  0.00    +0.000 NA
ATOM      6  C   UNL     1       3.224   5.450  19.791  0.00  0.00    +0.000 C 
ENDROOT
BRANCH   1   7
ATOM      7  C   UNL     1       4.399   3.242  19.438  0.00  0.00    +0.000 C 
ATOM      8  O   UNL     1       4.749   2.105  19.782  0.00  0.00    +0.000 OA
BRANCH   7  12
ATOM      9  C   UNL     1       6.442   4.964  16.065  0.00  0.00    +0.000 A 
ATOM     10  C   UNL     1       5.328   4.136  15.906  0.00  0.00    +0.000 A 
ATOM     11  C   UNL     1       4.693   3.573  17.018  0.00  0.00    +0.000 A 
ATOM     12  C   UNL     1       5.163   3.836  18.311  0.00  0.00    +0.000 A 
ATOM     13  C   UNL     1       6.238   4.719  18.472  0.00  0.00    +0.000 A 
ATOM     14  C   UNL     1       6.915   5.230  17.352  0.00  0.00    +0.000 A 
BRANCH   9  16
ATOM     15  C   UNL     1       6.873   4.600  13.756  0.00  0.00    +0.000 C 
ATOM     16  O   UNL     1       6.965   5.445  14.898  0.00  0.00    +0.000 OA
ENDBRANCH   9  16
BRANCH  13  17
ATOM     17  O   UNL     1       6.698   5.122  19.698  0.00  0.00    +0.000 OA
ATOM     18  C   UNL     1       7.947   5.819  19.603  0.00  0.00    +0.000 C 
ENDBRANCH  13  17
ENDBRANCH   7  12
ENDBRANCH   1   7
BRANCH   5  19
ATOM     19  C   UNL     1       3.123   7.211  18.076  0.00  0.00    +0.000 C 
BRANCH  19  20
ATOM     20  C   UNL     1       2.072   8.169  18.624  0.00  0.00    +0.000 A 
ATOM     21  C   UNL     1       1.398   9.049  17.781  0.00  0.00    +0.000 A 
ATOM     22  C   UNL     1       0.514   9.969  18.339  0.00  0.00    +0.000 A 
ATOM     23  C   UNL     1       0.313   9.977  19.715  0.00  0.00    +0.000 A 
ATOM     24  C   UNL     1       0.988   9.047  20.494  0.00  0.00    +0.000 A 
ATOM     25  C   UNL     1       0.770   8.978  21.976  0.00  0.00    +0.000 C 
ATOM     26  N   UNL     1       1.861   8.156  19.968  0.00  0.00    +0.000 NA
ENDBRANCH  19  20
ENDBRANCH   5  19
TORSDOF 6
ENDMDL
MODEL 2
REMARK VINA RESULT:      -8.3      1.351      1.781
REMARK  Name = 
REMARK  9 active torsions:
REMARK  status: ('A' for Active; 'I' for Inactive)
REMARK    1  A    between atoms: C_1  and  O_2
REMARK    2  A    between atoms: O_2  and  C_3
REMARK    3  A    between atoms: C_6  and  C_7
REMARK    4  A    between atoms: C_7  and  C_9
REMARK    5  A    between atoms: N_13  and  C_14
REMARK    6  A    between atoms: C_14  and  C_15
REMARK    7  A    between atoms: C_19  and  C_20
REMARK    8  A    between atoms: C_23  and  O_24
REMARK    9  A    between atoms: O_24  and  C_25
REMARK                            x       y       z     vdW  Elec       q    Type
REMARK                         _______ _______ _______ _____ _____    ______ ____
ROOT
ATOM      1  C   UNL     1       3.711   3.464  19.268  0.00  0.00    +0.000 C 
ATOM      2  C   UNL     1       2.768   2.395  19.817  0.00  0.00    +0.000 C 
ATOM      3  C   UNL     1       1.318   2.862  19.784  0.00  0.00    +0.000 C 
ATOM      4  C   UNL     1       1.139   4.214  20.479  0.00  0.00    +0.000 C 
ATOM      5  N   UNL     1       2.102   5.222  20.024  0.00  0.00    +0.000 NA
ATOM      6  C   UNL     1       3.495   4.761  20.081  0.00  0.00    +0.000 C 
ENDROOT
BRANCH   1   7
ATOM      7  C   UNL     1       3.645   3.773  17.761  0.00  0.00    +0.000 C 
ATOM      8  O   UNL     1       2.565   3.817  17.157  0.00  0.00    +0.000 OA
BRANCH   7  12
ATOM      9  C   UNL     1       6.987   4.980  15.334  0.00  0.00    +0.000 A 
ATOM     10  C   UNL     1       5.721   4.757  14.785  0.00  0.00    +0.000 A 
ATOM     11  C   UNL     1       4.656   4.347  15.593  0.00  0.00    +0.000 A 
ATOM     12  C   UNL     1       4.841   4.158  16.968  0.00  0.00    +0.000 A 
ATOM     13  C   UNL     1       6.092   4.445  17.527  0.00  0.00    +0.000 A 
ATOM     14  C   UNL     1       7.177   4.792  16.705  0.00  0.00    +0.000 A 
BRANCH   9  16
ATOM     15  C   UNL     1       7.697   5.059  13.068  0.00  0.00    +0.000 C 
ATOM     16  O   UNL     1       7.937   5.375  14.435  0.00  0.00    +0.000 OA
ENDBRANCH   9  16
BRANCH  13  17
ATOM     17  O   UNL     1       6.339   4.395  18.874  0.00  0.00    +0.000 OA
ATOM     18  C   UNL     1       7.109   5.517  19.323  0.00  0.00    +0.000 C 
ENDBRANCH  13  17
ENDBRANCH   7  12
ENDBRANCH   1   7
BRANCH   5  19
ATOM     19  C   UNL     1       1.899   6.532  20.690  0.00  0.00    +0.000 C 
BRANCH  19  20
ATOM     20  C   UNL     1       1.723   7.749  19.789  0.00  0.00    +0.000 A 
ATOM     21  C   UNL     1       2.266   7.774  18.508  0.00  0.00    +0.000 A 
ATOM     22  C   UNL     1       2.160   8.942  17.757  0.00  0.00    +0.000 A 
ATOM     23  C   UNL     1       1.502  10.044  18.292  0.00  0.00    +0.000 A 
ATOM     24  C   UNL     1       0.949   9.938  19.562  0.00  0.00    +0.000 A 
ATOM     25  C   UNL     1       0.185  11.077  20.167  0.00  0.00    +0.000 C 
ATOM     26  N   UNL     1       1.057   8.815  20.311  0.00  0.00    +0.000 NA
ENDBRANCH  19  20
ENDBRANCH   5  19
TORSDOF 6
ENDMDL
MODEL 3
REMARK VINA RESULT:      -8.0      1.704      2.749
REMARK  Name = 
REMARK  9 active torsions:
REMARK  status: ('A' for Active; 'I' for Inactive)
REMARK    1  A    between atoms: C_1  and  O_2
REMARK    2  A    between atoms: O_2  and  C_3
REMARK    3  A    between atoms: C_6  and  C_7
REMARK    4  A    between atoms: C_7  and  C_9
REMARK    5  A    between atoms: N_13  and  C_14
REMARK    6  A    between atoms: C_14  and  C_15
REMARK    7  A    between atoms: C_19  and  C_20
REMARK    8  A    between atoms: C_23  and  O_24
REMARK    9  A    between atoms: O_24  and  C_25
REMARK                            x       y       z     vdW  Elec       q    Type
REMARK                         _______ _______ _______ _____ _____    ______ ____
ROOT
ATOM      1  C   UNL     1       3.643   3.007  18.894  0.00  0.00    +0.000 C 
ATOM      2  C   UNL     1       2.515   1.994  19.081  0.00  0.00    +0.000 C 
ATOM      3  C   UNL     1       1.148   2.651  18.939  0.00  0.00    +0.000 C 
ATOM      4  C   UNL     1       1.001   3.867  19.858  0.00  0.00    +0.000 C 
ATOM      5  N   UNL     1       2.127   4.801  19.754  0.00  0.00    +0.000 NA
ATOM      6  C   UNL     1       3.434   4.153  19.912  0.00  0.00    +0.000 C 
ENDROOT
BRANCH   1   7
ATOM      7  C   UNL     1       3.857   3.590  17.486  0.00  0.00    +0.000 C 
ATOM      8  O   UNL     1       3.069   3.353  16.561  0.00  0.00    +0.000 OA
BRANCH   7  12
ATOM      9  C   UNL     1       7.008   6.436  16.789  0.00  0.00    +0.000 A 
ATOM     10  C   UNL     1       6.190   6.507  17.919  0.00  0.00    +0.000 A 
ATOM     11  C   UNL     1       5.160   5.581  18.113  0.00  0.00    +0.000 A 
ATOM     12  C   UNL     1       4.937   4.563  17.177  0.00  0.00    +0.000 A 
ATOM     13  C   UNL     1       5.799   4.454  16.079  0.00  0.00    +0.000 A 
ATOM     14  C   UNL     1       6.790   5.423  15.852  0.00  0.00    +0.000 A 
BRANCH   9  16
ATOM     15  C   UNL     1       7.913   8.437  17.697  0.00  0.00    +0.000 C 
ATOM     16  O   UNL     1       7.973   7.402  16.722  0.00  0.00    +0.000 OA
ENDBRANCH   9  16
BRANCH  13  17
ATOM     17  O   UNL     1       5.728   3.430  15.171  0.00  0.00    +0.000 OA
ATOM     18  C   UNL     1       6.256   3.806  13.893  0.00  0.00    +0.000 C 
ENDBRANCH  13  17
ENDBRANCH   7  12
ENDBRANCH   1   7
BRANCH   5  19
ATOM     19  C   UNL     1       1.957   5.983  20.632  0.00  0.00    +0.000 C 
BRANCH  19  20
ATOM     20  C   UNL     1       1.735   7.328  19.951  0.00  0.00    +0.000 A 
ATOM     21  C   UNL     1       2.178   7.553  18.651  0.00  0.00    +0.000 A 
ATOM     22  C   UNL     1       2.036   8.825  18.103  0.00  0.00    +0.000 A 
ATOM     23  C   UNL     1       1.443   9.833  18.856  0.00  0.00    +0.000 A 
ATOM     24  C   UNL     1       0.989   9.532  20.133  0.00  0.00    +0.000 A 
ATOM     25  C   UNL     1       0.297  10.566  20.969  0.00  0.00    +0.000 C 
ATOM     26  N   UNL     1       1.132   8.303  20.685  0.00  0.00    +0.000 NA
ENDBRANCH  19  20
ENDBRANCH   5  19
TORSDOF 6
ENDMDL
MODEL 4
REMARK VINA RESULT:      -8.0      3.068      5.293
REMARK  Name = 
REMARK  9 active torsions:
REMARK  status: ('A' for Active; 'I' for Inactive)
REMARK    1  A    between atoms: C_1  and  O_2
REMARK    2  A    between atoms: O_2  and  C_3
REMARK    3  A    between atoms: C_6  and  C_7
REMARK    4  A    between atoms: C_7  and  C_9
REMARK    5  A    between atoms: N_13  and  C_14
REMARK    6  A    between atoms: C_14  and  C_15
REMARK    7  A    between atoms: C_19  and  C_20
REMARK    8  A    between atoms: C_23  and  O_24
REMARK    9  A    between atoms: O_24  and  C_25
REMARK                            x       y       z     vdW  Elec       q    Type
REMARK                         _______ _______ _______ _____ _____    ______ ____
ROOT
ATOM      1  C   UNL     1       7.033   6.367  16.656  0.00  0.00    +0.000 C 
ATOM      2  C   UNL     1       7.715   6.799  17.953  0.00  0.00    +0.000 C 
ATOM      3  C   UNL     1       7.251   5.955  19.133  0.00  0.00    +0.000 C 
ATOM      4  C   UNL     1       5.724   5.932  19.253  0.00  0.00    +0.000 C 
ATOM      5  N   UNL     1       5.057   5.609  17.988  0.00  0.00    +0.000 NA
ATOM      6  C   UNL     1       5.503   6.445  16.867  0.00  0.00    +0.000 C 
ENDROOT
BRANCH   1   7
ATOM      7  C   UNL     1       7.411   4.995  16.069  0.00  0.00    +0.000 C 
ATOM      8  O   UNL     1       8.068   4.172  16.721  0.00  0.00    +0.000 OA
BRANCH   7  12
ATOM      9  C   UNL     1       5.788   3.629  12.326  0.00  0.00    +0.000 A 
ATOM     10  C   UNL     1       5.175   3.332  13.545  0.00  0.00    +0.000 A 
ATOM     11  C   UNL     1       5.732   3.772  14.750  0.00  0.00    +0.000 A 
ATOM     12  C   UNL     1       6.915   4.523  14.751  0.00  0.00    +0.000 A 
ATOM     13  C   UNL     1       7.493   4.875  13.525  0.00  0.00    +0.000 A 
ATOM     14  C   UNL     1       6.968   4.377  12.321  0.00  0.00    +0.000 A 
BRANCH   9  16
ATOM     15  C   UNL     1       3.717   3.150  11.263  0.00  0.00    +0.000 C 
ATOM     16  O   UNL     1       5.139   3.138  11.227  0.00  0.00    +0.000 OA
ENDBRANCH   9  16
BRANCH  13  17
ATOM     17  O   UNL     1       8.585   5.695  13.421  0.00  0.00    +0.000 OA
ATOM     18  C   UNL     1       8.676   6.310  12.129  0.00  0.00    +0.000 C 
ENDBRANCH  13  17
ENDBRANCH   7  12
ENDBRANCH   1   7
BRANCH   5  19
ATOM     19  C   UNL     1       3.581   5.568  18.128  0.00  0.00    +0.000 C 
BRANCH  19  20
ATOM     20  C   UNL     1       2.953   4.221  18.467  0.00  0.00    +0.000 A 
ATOM     21  C   UNL     1       2.846   3.220  17.506  0.00  0.00    +0.000 A 
ATOM     22  C   UNL     1       2.182   2.041  17.835  0.00  0.00    +0.000 A 
ATOM     23  C   UNL     1       1.659   1.883  19.114  0.00  0.00    +0.000 A 
ATOM     24  C   UNL     1       1.835   2.906  20.037  0.00  0.00    +0.000 A 
ATOM     25  C   UNL     1       1.336   2.768  21.444  0.00  0.00    +0.000 C 
ATOM     26  N   UNL     1       2.465   4.064  19.728  0.00  0.00    +0.000 NA
ENDBRANCH  19  20
ENDBRANCH   5  19
TORSDOF 6
ENDMDL
MODEL 5
REMARK VINA RESULT:      -7.9      2.624      6.516
REMARK  Name = 
REMARK  9 active torsions:
REMARK  status: ('A' for Active; 'I' for Inactive)
REMARK    1  A    between atoms: C_1  and  O_2
REMARK    2  A    between atoms: O_2  and  C_3
REMARK    3  A    between atoms: C_6  and  C_7
REMARK    4  A    between atoms: C_7  and  C_9
REMARK    5  A    between atoms: N_13  and  C_14
REMARK    6  A    between atoms: C_14  and  C_15
REMARK    7  A    between atoms: C_19  and  C_20
REMARK    8  A    between atoms: C_23  and  O_24
REMARK    9  A    between atoms: O_24  and  C_25
REMARK                            x       y       z     vdW  Elec       q    Type
REMARK                         _______ _______ _______ _____ _____    ______ ____
ROOT
ATOM      1  C   UNL     1       1.531   5.164  19.181  0.00  0.00    +0.000 C 
ATOM      2  C   UNL     1       1.142   4.149  20.255  0.00  0.00    +0.000 C 
ATOM      3  C   UNL     1       2.345   3.332  20.710  0.00  0.00    +0.000 C 
ATOM      4  C   UNL     1       3.075   2.686  19.529  0.00  0.00    +0.000 C 
ATOM      5  N   UNL     1       3.370   3.635  18.452  0.00  0.00    +0.000 NA
ATOM      6  C   UNL     1       2.196   4.399  18.014  0.00  0.00    +0.000 C 
ENDROOT
BRANCH   1   7
ATOM      7  C   UNL     1       2.418   6.349  19.603  0.00  0.00    +0.000 C 
ATOM      8  O   UNL     1       3.566   6.177  20.032  0.00  0.00    +0.000 OA
BRANCH   7  12
ATOM      9  C   UNL     1       1.213  10.410  18.846  0.00  0.00    +0.000 A 
ATOM     10  C   UNL     1       1.876   9.647  17.881  0.00  0.00    +0.000 A 
ATOM     11  C   UNL     1       2.274   8.336  18.158  0.00  0.00    +0.000 A 
ATOM     12  C   UNL     1       2.009   7.765  19.410  0.00  0.00    +0.000 A 
ATOM     13  C   UNL     1       1.287   8.507  20.352  0.00  0.00    +0.000 A 
ATOM     14  C   UNL     1       0.947   9.846  20.096  0.00  0.00    +0.000 A 
BRANCH   9  16
ATOM     15  C   UNL     1       1.915  12.654  18.494  0.00  0.00    +0.000 C 
ATOM     16  O   UNL     1       0.883  11.675  18.445  0.00  0.00    +0.000 OA
ENDBRANCH   9  16
BRANCH  13  17
ATOM     17  O   UNL     1       0.887   7.997  21.559  0.00  0.00    +0.000 OA
ATOM     18  C   UNL     1      -0.319   8.611  22.031  0.00  0.00    +0.000 C 
ENDBRANCH  13  17
ENDBRANCH   7  12
ENDBRANCH   1   7
BRANCH   5  19
ATOM     19  C   UNL     1       4.098   2.998  17.328  0.00  0.00    +0.000 C 
BRANCH  19  20
ATOM     20  C   UNL     1       5.168   3.831  16.631  0.00  0.00    +0.000 A 
ATOM     21  C   UNL     1       5.549   3.554  15.322  0.00  0.00    +0.000 A 
ATOM     22  C   UNL     1       6.594   4.282  14.759  0.00  0.00    +0.000 A 
ATOM     23  C   UNL     1       7.219   5.274  15.506  0.00  0.00    +0.000 A 
ATOM     24  C   UNL     1       6.764   5.525  16.794  0.00  0.00    +0.000 A 
ATOM     25  C   UNL     1       7.367   6.617  17.626  0.00  0.00    +0.000 C 
ATOM     26  N   UNL     1       5.758   4.816  17.361  0.00  0.00    +0.000 NA
ENDBRANCH  19  20
ENDBRANCH   5  19
TORSDOF 6
ENDMDL
MODEL 6
REMARK VINA RESULT:      -7.9      0.902      1.009
REMARK  Name = 
REMARK  9 active torsions:
REMARK  status: ('A' for Active; 'I' for Inactive)
REMARK    1  A    between atoms: C_1  and  O_2
REMARK    2  A    between atoms: O_2  and  C_3
REMARK    3  A    between atoms: C_6  and  C_7
REMARK    4  A    between atoms: C_7  and  C_9
REMARK    5  A    between atoms: N_13  and  C_14
REMARK    6  A    between atoms: C_14  and  C_15
REMARK    7  A    between atoms: C_19  and  C_20
REMARK    8  A    between atoms: C_23  and  O_24
REMARK    9  A    between atoms: O_24  and  C_25
REMARK                            x       y       z     vdW  Elec       q    Type
REMARK                         _______ _______ _______ _____ _____    ______ ____
ROOT
ATOM      1  C   UNL     1       4.074   4.204  19.525  0.00  0.00    +0.000 C 
ATOM      2  C   UNL     1       2.783   3.829  20.251  0.00  0.00    +0.000 C 
ATOM      3  C   UNL     1       1.555   4.262  19.462  0.00  0.00    +0.000 C 
ATOM      4  C   UNL     1       1.609   5.747  19.092  0.00  0.00    +0.000 C 
ATOM      5  N   UNL     1       2.882   6.137  18.478  0.00  0.00    +0.000 NA
ATOM      6  C   UNL     1       4.053   5.728  19.262  0.00  0.00    +0.000 C 
ENDROOT
BRANCH   1   7
ATOM      7  C   UNL     1       4.410   3.453  18.224  0.00  0.00    +0.000 C 
ATOM      8  O   UNL     1       3.823   2.408  17.911  0.00  0.00    +0.000 OA
BRANCH   7  12
ATOM      9  C   UNL     1       6.991   5.076  15.188  0.00  0.00    +0.000 A 
ATOM     10  C   UNL     1       5.684   4.672  14.903  0.00  0.00    +0.000 A 
ATOM     11  C   UNL     1       4.871   4.129  15.904  0.00  0.00    +0.000 A 
ATOM     12  C   UNL     1       5.356   3.988  17.211  0.00  0.00    +0.000 A 
ATOM     13  C   UNL     1       6.641   4.454  17.509  0.00  0.00    +0.000 A 
ATOM     14  C   UNL     1       7.479   4.936  16.489  0.00  0.00    +0.000 A 
BRANCH   9  16
ATOM     15  C   UNL     1       7.483   4.938  12.867  0.00  0.00    +0.000 C 
ATOM     16  O   UNL     1       7.675   5.586  14.120  0.00  0.00    +0.000 OA
ENDBRANCH   9  16
BRANCH  13  17
ATOM     17  O   UNL     1       7.161   4.458  18.777  0.00  0.00    +0.000 OA
ATOM     18  C   UNL     1       7.793   5.704  19.096  0.00  0.00    +0.000 C 
ENDBRANCH  13  17
ENDBRANCH   7  12
ENDBRANCH   1   7
BRANCH   5  19
ATOM     19  C   UNL     1       2.907   7.572  18.105  0.00  0.00    +0.000 C 
BRANCH  19  20
ATOM     20  C   UNL     1       1.823   8.463  18.699  0.00  0.00    +0.000 A 
ATOM     21  C   UNL     1       1.024   9.258  17.883  0.00  0.00    +0.000 A 
ATOM     22  C   UNL     1       0.110  10.124  18.477  0.00  0.00    +0.000 A 
ATOM     23  C   UNL     1       0.004  10.165  19.863  0.00  0.00    +0.000 A 
ATOM     24  C   UNL     1       0.805   9.317  20.617  0.00  0.00    +0.000 A 
ATOM     25  C   UNL     1       0.696   9.283  22.112  0.00  0.00    +0.000 C 
ATOM     26  N   UNL     1       1.709   8.480  20.055  0.00  0.00    +0.000 NA
ENDBRANCH  19  20
ENDBRANCH   5  19
TORSDOF 6
ENDMDL
MODEL 7
REMARK VINA RESULT:      -7.9      2.520      6.003
REMARK  Name = 
REMARK  9 active torsions:
REMARK  status: ('A' for Active; 'I' for Inactive)
REMARK    1  A    between atoms: C_1  and  O_2
REMARK    2  A    between atoms: O_2  and  C_3
REMARK    3  A    between atoms: C_6  and  C_7
REMARK    4  A    between atoms: C_7  and  C_9
REMARK    5  A    between atoms: N_13  and  C_14
REMARK    6  A    between atoms: C_14  and  C_15
REMARK    7  A    between atoms: C_19  and  C_20
REMARK    8  A    between atoms: C_23  and  O_24
REMARK    9  A    between atoms: O_24  and  C_25
REMARK                            x       y       z     vdW  Elec       q    Type
REMARK                         _______ _______ _______ _____ _____    ______ ____
ROOT
ATOM      1  C   UNL     1       1.176   4.401  19.698  0.00  0.00    +0.000 C 
ATOM      2  C   UNL     1       0.983   3.146  20.547  0.00  0.00    +0.000 C 
ATOM      3  C   UNL     1       2.306   2.431  20.791  0.00  0.00    +0.000 C 
ATOM      4  C   UNL     1       3.051   2.146  19.483  0.00  0.00    +0.000 C 
ATOM      5  N   UNL     1       3.159   3.326  18.619  0.00  0.00    +0.000 NA
ATOM      6  C   UNL     1       1.872   3.990  18.379  0.00  0.00    +0.000 C 
ENDROOT
BRANCH   1   7
ATOM      7  C   UNL     1       1.919   5.590  20.333  0.00  0.00    +0.000 C 
ATOM      8  O   UNL     1       2.599   5.453  21.360  0.00  0.00    +0.000 OA
BRANCH   7  12
ATOM      9  C   UNL     1       2.071   9.389  18.319  0.00  0.00    +0.000 A 
ATOM     10  C   UNL     1       2.579   8.226  17.735  0.00  0.00    +0.000 A 
ATOM     11  C   UNL     1       2.535   7.006  18.418  0.00  0.00    +0.000 A 
ATOM     12  C   UNL     1       1.975   6.933  19.700  0.00  0.00    +0.000 A 
ATOM     13  C   UNL     1       1.406   8.085  20.256  0.00  0.00    +0.000 A 
ATOM     14  C   UNL     1       1.511   9.321  19.597  0.00  0.00    +0.000 A 
BRANCH   9  16
ATOM     15  C   UNL     1       2.217  11.759  18.224  0.00  0.00    +0.000 C 
ATOM     16  O   UNL     1       2.178  10.509  17.544  0.00  0.00    +0.000 OA
ENDBRANCH   9  16
BRANCH  13  17
ATOM     17  O   UNL     1       0.740   8.087  21.454  0.00  0.00    +0.000 OA
ATOM     18  C   UNL     1      -0.291   9.082  21.495  0.00  0.00    +0.000 C 
ENDBRANCH  13  17
ENDBRANCH   7  12
ENDBRANCH   1   7
BRANCH   5  19
ATOM     19  C   UNL     1       3.902   3.038  17.369  0.00  0.00    +0.000 C 
BRANCH  19  20
ATOM     20  C   UNL     1       5.008   4.011  16.978  0.00  0.00    +0.000 A 
ATOM     21  C   UNL     1       5.235   4.339  15.645  0.00  0.00    +0.000 A 
ATOM     22  C   UNL     1       6.314   5.160  15.328  0.00  0.00    +0.000 A 
ATOM     23  C   UNL     1       7.127   5.645  16.347  0.00  0.00    +0.000 A 
ATOM     24  C   UNL     1       6.822   5.311  17.660  0.00  0.00    +0.000 A 
ATOM     25  C   UNL     1       7.634   5.848  18.800  0.00  0.00    +0.000 C 
ATOM     26  N   UNL     1       5.785   4.502  17.982  0.00  0.00    +0.000 NA
ENDBRANCH  19  20
ENDBRANCH   5  19
TORSDOF 6
ENDMDL
MODEL 8
REMARK VINA RESULT:      -7.9      2.730      7.048
REMARK  Name = 
REMARK  9 active torsions:
REMARK  status: ('A' for Active; 'I' for Inactive)
REMARK    1  A    between atoms: C_1  and  O_2
REMARK    2  A    between atoms: O_2  and  C_3
REMARK    3  A    between atoms: C_6  and  C_7
REMARK    4  A    between atoms: C_7  and  C_9
REMARK    5  A    between atoms: N_13  and  C_14
REMARK    6  A    between atoms: C_14  and  C_15
REMARK    7  A    between atoms: C_19  and  C_20
REMARK    8  A    between atoms: C_23  and  O_24
REMARK    9  A    between atoms: O_24  and  C_25
REMARK                            x       y       z     vdW  Elec       q    Type
REMARK                         _______ _______ _______ _____ _____    ______ ____
ROOT
ATOM      1  C   UNL     1       1.389   5.365  19.455  0.00  0.00    +0.000 C 
ATOM      2  C   UNL     1       1.160   4.389  20.607  0.00  0.00    +0.000 C 
ATOM      3  C   UNL     1       2.452   3.689  21.009  0.00  0.00    +0.000 C 
ATOM      4  C   UNL     1       3.141   3.031  19.811  0.00  0.00    +0.000 C 
ATOM      5  N   UNL     1       3.282   3.935  18.665  0.00  0.00    +0.000 NA
ATOM      6  C   UNL     1       2.023   4.584  18.280  0.00  0.00    +0.000 C 
ENDROOT
BRANCH   1   7
ATOM      7  C   UNL     1       2.211   6.635  19.744  0.00  0.00    +0.000 C 
ATOM      8  O   UNL     1       3.405   6.718  19.428  0.00  0.00    +0.000 OA
BRANCH   7  12
ATOM      9  C   UNL     1       0.566  10.192  21.520  0.00  0.00    +0.000 A 
ATOM     10  C   UNL     1       0.984   9.108  22.296  0.00  0.00    +0.000 A 
ATOM     11  C   UNL     1       1.497   7.955  21.694  0.00  0.00    +0.000 A 
ATOM     12  C   UNL     1       1.605   7.873  20.299  0.00  0.00    +0.000 A 
ATOM     13  C   UNL     1       1.248   8.984  19.527  0.00  0.00    +0.000 A 
ATOM     14  C   UNL     1       0.671  10.114  20.130  0.00  0.00    +0.000 A 
BRANCH   9  16
ATOM     15  C   UNL     1      -1.116  11.038  22.970  0.00  0.00    +0.000 C 
ATOM     16  O   UNL     1       0.083  11.252  22.235  0.00  0.00    +0.000 OA
ENDBRANCH   9  16
BRANCH  13  17
ATOM     17  O   UNL     1       1.420   9.038  18.169  0.00  0.00    +0.000 OA
ATOM     18  C   UNL     1       2.155  10.200  17.765  0.00  0.00    +0.000 C 
ENDBRANCH  13  17
ENDBRANCH   7  12
ENDBRANCH   1   7
BRANCH   5  19
ATOM     19  C   UNL     1       3.972   3.288  17.523  0.00  0.00    +0.000 C 
BRANCH  19  20
ATOM     20  C   UNL     1       5.129   4.051  16.888  0.00  0.00    +0.000 A 
ATOM     21  C   UNL     1       5.510   3.806  15.572  0.00  0.00    +0.000 A 
ATOM     22  C   UNL     1       6.629   4.460  15.064  0.00  0.00    +0.000 A 
ATOM     23  C   UNL     1       7.328   5.350  15.872  0.00  0.00    +0.000 A 
ATOM     24  C   UNL     1       6.871   5.578  17.164  0.00  0.00    +0.000 A 
ATOM     25  C   UNL     1       7.556   6.565  18.060  0.00  0.00    +0.000 C 
ATOM     26  N   UNL     1       5.793   4.939  17.676  0.00  0.00    +0.000 NA
ENDBRANCH  19  20
ENDBRANCH   5  19
TORSDOF 6
ENDMDL
MODEL 9
REMARK VINA RESULT:      -7.8      0.636      1.304
REMARK  Name = 
REMARK  9 active torsions:
REMARK  status: ('A' for Active; 'I' for Inactive)
REMARK    1  A    between atoms: C_1  and  O_2
REMARK    2  A    between atoms: O_2  and  C_3
REMARK    3  A    between atoms: C_6  and  C_7
REMARK    4  A    between atoms: C_7  and  C_9
REMARK    5  A    between atoms: N_13  and  C_14
REMARK    6  A    between atoms: C_14  and  C_15
REMARK    7  A    between atoms: C_19  and  C_20
REMARK    8  A    between atoms: C_23  and  O_24
REMARK    9  A    between atoms: O_24  and  C_25
REMARK                            x       y       z     vdW  Elec       q    Type
REMARK                         _______ _______ _______ _____ _____    ______ ____
ROOT
ATOM      1  C   UNL     1       3.090   3.744  20.144  0.00  0.00    +0.000 C 
ATOM      2  C   UNL     1       1.746   3.198  19.665  0.00  0.00    +0.000 C 
ATOM      3  C   UNL     1       1.452   3.622  18.231  0.00  0.00    +0.000 C 
ATOM      4  C   UNL     1       1.567   5.138  18.050  0.00  0.00    +0.000 C 
ATOM      5  N   UNL     1       2.815   5.685  18.591  0.00  0.00    +0.000 NA
ATOM      6  C   UNL     1       3.071   5.281  19.979  0.00  0.00    +0.000 C 
ENDROOT
BRANCH   1   7
ATOM      7  C   UNL     1       4.367   3.165  19.508  0.00  0.00    +0.000 C 
ATOM      8  O   UNL     1       4.828   2.072  19.865  0.00  0.00    +0.000 OA
BRANCH   7  12
ATOM      9  C   UNL     1       6.176   5.014  16.070  0.00  0.00    +0.000 A 
ATOM     10  C   UNL     1       5.117   4.110  15.948  0.00  0.00    +0.000 A 
ATOM     11  C   UNL     1       4.559   3.508  17.080  0.00  0.00    +0.000 A 
ATOM     12  C   UNL     1       5.051   3.807  18.357  0.00  0.00    +0.000 A 
ATOM     13  C   UNL     1       6.067   4.762  18.483  0.00  0.00    +0.000 A 
ATOM     14  C   UNL     1       6.671   5.315  17.341  0.00  0.00    +0.000 A 
BRANCH   9  16
ATOM     15  C   UNL     1       6.788   4.609  13.809  0.00  0.00    +0.000 C 
ATOM     16  O   UNL     1       6.627   5.526  14.886  0.00  0.00    +0.000 OA
ENDBRANCH   9  16
BRANCH  13  17
ATOM     17  O   UNL     1       6.537   5.199  19.693  0.00  0.00    +0.000 OA
ATOM     18  C   UNL     1       7.860   5.741  19.594  0.00  0.00    +0.000 C 
ENDBRANCH  13  17
ENDBRANCH   7  12
ENDBRANCH   1   7
BRANCH   5  19
ATOM     19  C   UNL     1       2.920   7.150  18.386  0.00  0.00    +0.000 C 
BRANCH  19  20
ATOM     20  C   UNL     1       1.998   8.035  19.216  0.00  0.00    +0.000 A 
ATOM     21  C   UNL     1       1.719   7.730  20.545  0.00  0.00    +0.000 A 
ATOM     22  C   UNL     1       0.800   8.515  21.236  0.00  0.00    +0.000 A 
ATOM     23  C   UNL     1       0.197   9.590  20.593  0.00  0.00    +0.000 A 
ATOM     24  C   UNL     1       0.549   9.863  19.278  0.00  0.00    +0.000 A 
ATOM     25  C   UNL     1      -0.032  11.040  18.553  0.00  0.00    +0.000 C 
ATOM     26  N   UNL     1       1.430   9.101  18.588  0.00  0.00    +0.000 NA
ENDBRANCH  19  20
ENDBRANCH   5  19
TORSDOF 6
ENDMDL
