MODEL 1
REMARK VINA RESULT:      -6.9      0.000      0.000
REMARK  Name = 
REMARK  14 active torsions:
REMARK  status: ('A' for Active; 'I' for Inactive)
REMARK    1  A    between atoms: C_2  and  C_3
REMARK    2  A    between atoms: C_2  and  C_4
REMARK    3  A    between atoms: C_4  and  C_5
REMARK    4  A    between atoms: C_4  and  C_7
REMARK    5  A    between atoms: C_5  and  C_6
REMARK    6  A    between atoms: C_7  and  C_8
REMARK    7  A    between atoms: C_8  and  C_9
REMARK    8  A    between atoms: C_9  and  C_10
REMARK    9  A    between atoms: C_9  and  C_11
REMARK   10  A    between atoms: C_12  and  O_13
REMARK   11  A    between atoms: C_21  and  O_22
REMARK   12  A    between atoms: C_25  and  C_26
REMARK   13  A    between atoms: C_29  and  O_30
REMARK   14  A    between atoms: C_31  and  C_32
REMARK                            x       y       z     vdW  Elec       q    Type
REMARK                         _______ _______ _______ _____ _____    ______ ____
ROOT
ATOM      1  C   UNL     1       0.500  11.674  20.146  0.00  0.00    +0.000 C 
ATOM      2  C   UNL     1       0.346  11.631  18.607  0.00  0.00    +0.000 C 
ATOM      3  C   UNL     1      -1.124  11.980  18.346  0.00  0.00    +0.000 C 
ATOM      4  C   UNL     1      -1.597  12.815  19.570  0.00  0.00    +0.000 C 
ATOM      5  C   UNL     1      -2.823  12.245  20.317  0.00  0.00    +0.000 C 
ATOM      6  C   UNL     1      -4.014  12.188  19.362  0.00  0.00    +0.000 C 
ATOM      7  C   UNL     1      -5.378  11.988  19.970  0.00  0.00    +0.000 C 
ATOM      8  C   UNL     1      -5.538  12.346  21.438  0.00  0.00    +0.000 C 
ATOM      9  C   UNL     1      -6.968  12.848  21.709  0.00  0.00    +0.000 C 
ATOM     10  C   UNL     1      -7.277  12.859  23.201  0.00  0.00    +0.000 C 
ATOM     11  C   UNL     1      -6.135  13.310  24.126  0.00  0.00    +0.000 C 
ATOM     12  C   UNL     1      -4.714  12.988  23.646  0.00  0.00    +0.000 C 
ATOM     13  C   UNL     1      -4.489  13.260  22.122  0.00  0.00    +0.000 C 
ATOM     14  C   UNL     1      -4.667  14.780  21.883  0.00  0.00    +0.000 C 
ATOM     15  C   UNL     1      -3.042  12.836  21.743  0.00  0.00    +0.000 C 
ATOM     16  C   UNL     1      -1.958  13.874  22.133  0.00  0.00    +0.000 C 
ATOM     17  C   UNL     1      -0.588  13.252  21.923  0.00  0.00    +0.000 C 
ATOM     18  C   UNL     1      -0.322  12.986  20.439  0.00  0.00    +0.000 C 
ATOM     19  C   UNL     1       0.399  14.256  19.848  0.00  0.00    +0.000 C 
ENDROOT
BRANCH   1  20
ATOM     20  C   UNL     1       0.226  10.246  20.832  0.00  0.00    +0.000 C 
ATOM     21  C   UNL     1      -0.715  10.155  22.048  0.00  0.00    +0.000 C 
BRANCH  20  22
ATOM     22  C   UNL     1       1.456   9.326  21.115  0.00  0.00    +0.000 C 
BRANCH  22  23
ATOM     23  C   UNL     1       1.189   7.858  20.730  0.00  0.00    +0.000 C 
BRANCH  23  24
ATOM     24  C   UNL     1       2.258   7.164  19.851  0.00  0.00    +0.000 C 
BRANCH  24  26
ATOM     25  C   UNL     1       1.221   4.902  20.462  0.00  0.00    +0.000 C 
ATOM     26  C   UNL     1       2.279   5.630  20.072  0.00  0.00    +0.000 C 
ATOM     27  C   UNL     1       3.604   4.940  19.862  0.00  0.00    +0.000 C 
ENDBRANCH  24  26
BRANCH  24  28
ATOM     28  C   UNL     1       2.130   7.532  18.362  0.00  0.00    +0.000 C 
ATOM     29  C   UNL     1       3.456   7.553  17.615  0.00  0.00    +0.000 C 
ENDBRANCH  24  28
ENDBRANCH  23  24
ENDBRANCH  22  23
ENDBRANCH  20  22
ENDBRANCH   1  20
BRANCH   2  30
ATOM     30  O   UNL     1       0.749  10.409  17.995  0.00  0.00    +0.000 OA
ATOM     31  H   UNL     1       0.915  10.616  17.056  0.00  0.00    +0.000 HD
ENDBRANCH   2  30
BRANCH  10  32
ATOM     32  O   UNL     1      -7.697  11.551  23.596  0.00  0.00    +0.000 OA
ATOM     33  H   UNL     1      -8.575  11.374  23.218  0.00  0.00    +0.000 HD
ENDBRANCH  10  32
BRANCH  17  34
ATOM     34  O   UNL     1       0.448  14.011  22.539  0.00  0.00    +0.000 OA
ATOM     35  H   UNL     1       1.302  13.746  22.160  0.00  0.00    +0.000 HD
ENDBRANCH  17  34
TORSDOF 9
ENDMDL
MODEL 2
REMARK VINA RESULT:      -6.9      1.424      1.834
REMARK  Name = 
REMARK  14 active torsions:
REMARK  status: ('A' for Active; 'I' for Inactive)
REMARK    1  A    between atoms: C_2  and  C_3
REMARK    2  A    between atoms: C_2  and  C_4
REMARK    3  A    between atoms: C_4  and  C_5
REMARK    4  A    between atoms: C_4  and  C_7
REMARK    5  A    between atoms: C_5  and  C_6
REMARK    6  A    between atoms: C_7  and  C_8
REMARK    7  A    between atoms: C_8  and  C_9
REMARK    8  A    between atoms: C_9  and  C_10
REMARK    9  A    between atoms: C_9  and  C_11
REMARK   10  A    between atoms: C_12  and  O_13
REMARK   11  A    between atoms: C_21  and  O_22
REMARK   12  A    between atoms: C_25  and  C_26
REMARK   13  A    between atoms: C_29  and  O_30
REMARK   14  A    between atoms: C_31  and  C_32
REMARK                            x       y       z     vdW  Elec       q    Type
REMARK                         _______ _______ _______ _____ _____    ______ ____
ROOT
ATOM      1  C   UNL     1       1.046  10.435  19.581  0.00  0.00    +0.000 C 
ATOM      2  C   UNL     1       0.526  10.203  18.143  0.00  0.00    +0.000 C 
ATOM      3  C   UNL     1      -0.819  10.938  18.085  0.00  0.00    +0.000 C 
ATOM      4  C   UNL     1      -0.751  12.056  19.164  0.00  0.00    +0.000 C 
ATOM      5  C   UNL     1      -1.870  12.008  20.228  0.00  0.00    +0.000 C 
ATOM      6  C   UNL     1      -3.225  12.168  19.542  0.00  0.00    +0.000 C 
ATOM      7  C   UNL     1      -4.408  12.489  20.417  0.00  0.00    +0.000 C 
ATOM      8  C   UNL     1      -4.115  13.102  21.776  0.00  0.00    +0.000 C 
ATOM      9  C   UNL     1      -5.256  14.051  22.188  0.00  0.00    +0.000 C 
ATOM     10  C   UNL     1      -5.187  14.387  23.673  0.00  0.00    +0.000 C 
ATOM     11  C   UNL     1      -3.781  14.607  24.254  0.00  0.00    +0.000 C 
ATOM     12  C   UNL     1      -2.651  13.798  23.604  0.00  0.00    +0.000 C 
ATOM     13  C   UNL     1      -2.731  13.749  22.042  0.00  0.00    +0.000 C 
ATOM     14  C   UNL     1      -2.554  15.195  21.516  0.00  0.00    +0.000 C 
ATOM     15  C   UNL     1      -1.580  12.851  21.507  0.00  0.00    +0.000 C 
ATOM     16  C   UNL     1      -0.201  13.557  21.458  0.00  0.00    +0.000 C 
ATOM     17  C   UNL     1       0.867  12.524  21.141  0.00  0.00    +0.000 C 
ATOM     18  C   UNL     1       0.693  11.963  19.728  0.00  0.00    +0.000 C 
ATOM     19  C   UNL     1       1.561  12.846  18.753  0.00  0.00    +0.000 C 
ENDROOT
BRANCH   1  20
ATOM     20  C   UNL     1       0.578   9.282  20.599  0.00  0.00    +0.000 C 
ATOM     21  C   UNL     1      -0.216   9.662  21.864  0.00  0.00    +0.000 C 
BRANCH  20  22
ATOM     22  C   UNL     1       1.626   8.198  21.005  0.00  0.00    +0.000 C 
BRANCH  22  23
ATOM     23  C   UNL     1       1.105   6.766  20.776  0.00  0.00    +0.000 C 
BRANCH  23  24
ATOM     24  C   UNL     1       2.122   5.735  20.229  0.00  0.00    +0.000 C 
BRANCH  24  26
ATOM     25  C   UNL     1       2.264   3.618  21.666  0.00  0.00    +0.000 C 
ATOM     26  C   UNL     1       1.743   4.285  20.624  0.00  0.00    +0.000 C 
ATOM     27  C   UNL     1       0.744   3.587  19.736  0.00  0.00    +0.000 C 
ENDBRANCH  24  26
BRANCH  24  28
ATOM     28  C   UNL     1       2.353   5.879  18.714  0.00  0.00    +0.000 C 
ATOM     29  C   UNL     1       3.677   5.302  18.234  0.00  0.00    +0.000 C 
ENDBRANCH  24  28
ENDBRANCH  23  24
ENDBRANCH  22  23
ENDBRANCH  20  22
ENDBRANCH   1  20
BRANCH   2  30
ATOM     30  O   UNL     1       0.436   8.837  17.748  0.00  0.00    +0.000 OA
ATOM     31  H   UNL     1      -0.334   8.466  18.219  0.00  0.00    +0.000 HD
ENDBRANCH   2  30
BRANCH  10  32
ATOM     32  O   UNL     1      -5.831  13.345  24.413  0.00  0.00    +0.000 OA
ATOM     33  H   UNL     1      -5.606  13.442  25.354  0.00  0.00    +0.000 HD
ENDBRANCH  10  32
BRANCH  17  34
ATOM     34  O   UNL     1       2.182  13.018  21.378  0.00  0.00    +0.000 OA
ATOM     35  H   UNL     1       2.270  13.891  20.963  0.00  0.00    +0.000 HD
ENDBRANCH  17  34
TORSDOF 9
ENDMDL
MODEL 3
REMARK VINA RESULT:      -6.9      8.544     11.825
REMARK  Name = 
REMARK  14 active torsions:
REMARK  status: ('A' for Active; 'I' for Inactive)
REMARK    1  A    between atoms: C_2  and  C_3
REMARK    2  A    between atoms: C_2  and  C_4
REMARK    3  A    between atoms: C_4  and  C_5
REMARK    4  A    between atoms: C_4  and  C_7
REMARK    5  A    between atoms: C_5  and  C_6
REMARK    6  A    between atoms: C_7  and  C_8
REMARK    7  A    between atoms: C_8  and  C_9
REMARK    8  A    between atoms: C_9  and  C_10
REMARK    9  A    between atoms: C_9  and  C_11
REMARK   10  A    between atoms: C_12  and  O_13
REMARK   11  A    between atoms: C_21  and  O_22
REMARK   12  A    between atoms: C_25  and  C_26
REMARK   13  A    between atoms: C_29  and  O_30
REMARK   14  A    between atoms: C_31  and  C_32
REMARK                            x       y       z     vdW  Elec       q    Type
REMARK                         _______ _______ _______ _____ _____    ______ ____
ROOT
ATOM      1  C   UNL     1      10.638  13.507  18.215  0.00  0.00    +0.000 C 
ATOM      2  C   UNL     1      11.866  14.414  18.466  0.00  0.00    +0.000 C 
ATOM      3  C   UNL     1      11.737  14.861  19.927  0.00  0.00    +0.000 C 
ATOM      4  C   UNL     1      10.895  13.767  20.644  0.00  0.00    +0.000 C 
ATOM      5  C   UNL     1       9.612  14.278  21.337  0.00  0.00    +0.000 C 
ATOM      6  C   UNL     1       9.992  15.291  22.417  0.00  0.00    +0.000 C 
ATOM      7  C   UNL     1       8.936  15.650  23.429  0.00  0.00    +0.000 C 
ATOM      8  C   UNL     1       7.794  14.664  23.614  0.00  0.00    +0.000 C 
ATOM      9  C   UNL     1       7.292  14.699  25.069  0.00  0.00    +0.000 C 
ATOM     10  C   UNL     1       5.936  14.020  25.203  0.00  0.00    +0.000 C 
ATOM     11  C   UNL     1       5.729  12.746  24.368  0.00  0.00    +0.000 C 
ATOM     12  C   UNL     1       6.478  12.690  23.031  0.00  0.00    +0.000 C 
ATOM     13  C   UNL     1       7.953  13.205  23.115  0.00  0.00    +0.000 C 
ATOM     14  C   UNL     1       8.731  12.255  24.059  0.00  0.00    +0.000 C 
ATOM     15  C   UNL     1       8.584  13.163  21.694  0.00  0.00    +0.000 C 
ATOM     16  C   UNL     1       9.054  11.752  21.255  0.00  0.00    +0.000 C 
ATOM     17  C   UNL     1       9.433  11.799  19.784  0.00  0.00    +0.000 C 
ATOM     18  C   UNL     1      10.663  12.682  19.558  0.00  0.00    +0.000 C 
ATOM     19  C   UNL     1      11.936  11.758  19.637  0.00  0.00    +0.000 C 
ENDROOT
BRANCH   1  20
ATOM     20  C   UNL     1       9.370  14.326  17.664  0.00  0.00    +0.000 C 
ATOM     21  C   UNL     1       9.350  15.862  17.775  0.00  0.00    +0.000 C 
BRANCH  20  22
ATOM     22  C   UNL     1       7.946  13.805  18.042  0.00  0.00    +0.000 C 
BRANCH  22  23
ATOM     23  C   UNL     1       6.910  14.942  18.121  0.00  0.00    +0.000 C 
BRANCH  23  24
ATOM     24  C   UNL     1       5.737  14.745  19.112  0.00  0.00    +0.000 C 
BRANCH  24  26
ATOM     25  C   UNL     1       5.066  15.608  21.430  0.00  0.00    +0.000 C 
ATOM     26  C   UNL     1       5.878  15.651  20.361  0.00  0.00    +0.000 C 
ATOM     27  C   UNL     1       6.991  16.667  20.330  0.00  0.00    +0.000 C 
ENDBRANCH  24  26
BRANCH  24  28
ATOM     28  C   UNL     1       4.361  14.899  18.438  0.00  0.00    +0.000 C 
ATOM     29  C   UNL     1       4.013  16.334  18.067  0.00  0.00    +0.000 C 
ENDBRANCH  24  28
ENDBRANCH  23  24
ENDBRANCH  22  23
ENDBRANCH  20  22
ENDBRANCH   1  20
BRANCH   2  30
ATOM     30  O   UNL     1      12.007  15.502  17.557  0.00  0.00    +0.000 OA
ATOM     31  H   UNL     1      12.815  15.978  17.824  0.00  0.00    +0.000 HD
ENDBRANCH   2  30
BRANCH  10  32
ATOM     32  O   UNL     1       4.912  14.961  24.864  0.00  0.00    +0.000 OA
ATOM     33  H   UNL     1       5.242  15.859  25.034  0.00  0.00    +0.000 HD
ENDBRANCH  10  32
BRANCH  17  34
ATOM     34  O   UNL     1       9.582  10.498  19.225  0.00  0.00    +0.000 OA
ATOM     35  H   UNL     1       9.956  10.578  18.333  0.00  0.00    +0.000 HD
ENDBRANCH  17  34
TORSDOF 9
ENDMDL
MODEL 4
REMARK VINA RESULT:      -6.8      1.284      1.597
REMARK  Name = 
REMARK  14 active torsions:
REMARK  status: ('A' for Active; 'I' for Inactive)
REMARK    1  A    between atoms: C_2  and  C_3
REMARK    2  A    between atoms: C_2  and  C_4
REMARK    3  A    between atoms: C_4  and  C_5
REMARK    4  A    between atoms: C_4  and  C_7
REMARK    5  A    between atoms: C_5  and  C_6
REMARK    6  A    between atoms: C_7  and  C_8
REMARK    7  A    between atoms: C_8  and  C_9
REMARK    8  A    between atoms: C_9  and  C_10
REMARK    9  A    between atoms: C_9  and  C_11
REMARK   10  A    between atoms: C_12  and  O_13
REMARK   11  A    between atoms: C_21  and  O_22
REMARK   12  A    between atoms: C_25  and  C_26
REMARK   13  A    between atoms: C_29  and  O_30
REMARK   14  A    between atoms: C_31  and  C_32
REMARK                            x       y       z     vdW  Elec       q    Type
REMARK                         _______ _______ _______ _____ _____    ______ ____
ROOT
ATOM      1  C   UNL     1       1.118  10.371  19.655  0.00  0.00    +0.000 C 
ATOM      2  C   UNL     1       0.919  10.092  18.147  0.00  0.00    +0.000 C 
ATOM      3  C   UNL     1      -0.459  10.676  17.813  0.00  0.00    +0.000 C 
ATOM      4  C   UNL     1      -0.726  11.789  18.866  0.00  0.00    +0.000 C 
ATOM      5  C   UNL     1      -2.021  11.614  19.691  0.00  0.00    +0.000 C 
ATOM      6  C   UNL     1      -3.224  11.629  18.749  0.00  0.00    +0.000 C 
ATOM      7  C   UNL     1      -4.584  11.815  19.369  0.00  0.00    +0.000 C 
ATOM      8  C   UNL     1      -4.632  12.449  20.749  0.00  0.00    +0.000 C 
ATOM      9  C   UNL     1      -5.927  13.265  20.914  0.00  0.00    +0.000 C 
ATOM     10  C   UNL     1      -6.188  13.599  22.377  0.00  0.00    +0.000 C 
ATOM     11  C   UNL     1      -4.957  13.968  23.219  0.00  0.00    +0.000 C 
ATOM     12  C   UNL     1      -3.641  13.291  22.817  0.00  0.00    +0.000 C 
ATOM     13  C   UNL     1      -3.405  13.241  21.271  0.00  0.00    +0.000 C 
ATOM     14  C   UNL     1      -3.285  14.701  20.766  0.00  0.00    +0.000 C 
ATOM     15  C   UNL     1      -2.081  12.477  20.987  0.00  0.00    +0.000 C 
ATOM     16  C   UNL     1      -0.804  13.330  21.198  0.00  0.00    +0.000 C 
ATOM     17  C   UNL     1       0.411  12.421  21.115  0.00  0.00    +0.000 C 
ATOM     18  C   UNL     1       0.580  11.851  19.704  0.00  0.00    +0.000 C 
ATOM     19  C   UNL     1       1.522  12.829  18.904  0.00  0.00    +0.000 C 
ENDROOT
BRANCH   1  20
ATOM     20  C   UNL     1       0.585   9.170  20.580  0.00  0.00    +0.000 C 
ATOM     21  C   UNL     1      -0.307   9.484  21.796  0.00  0.00    +0.000 C 
BRANCH  20  22
ATOM     22  C   UNL     1       1.611   8.075  21.015  0.00  0.00    +0.000 C 
BRANCH  22  23
ATOM     23  C   UNL     1       1.112   6.650  20.706  0.00  0.00    +0.000 C 
BRANCH  23  24
ATOM     24  C   UNL     1       2.187   5.603  20.328  0.00  0.00    +0.000 C 
BRANCH  24  26
ATOM     25  C   UNL     1       0.807   3.544  19.679  0.00  0.00    +0.000 C 
ATOM     26  C   UNL     1       1.670   4.154  20.508  0.00  0.00    +0.000 C 
ATOM     27  C   UNL     1       2.157   3.413  21.727  0.00  0.00    +0.000 C 
ENDBRANCH  24  26
BRANCH  24  28
ATOM     28  C   UNL     1       2.774   5.838  18.925  0.00  0.00    +0.000 C 
ATOM     29  C   UNL     1       4.219   5.382  18.775  0.00  0.00    +0.000 C 
ENDBRANCH  24  28
ENDBRANCH  23  24
ENDBRANCH  22  23
ENDBRANCH  20  22
ENDBRANCH   1  20
BRANCH   2  30
ATOM     30  O   UNL     1       1.057   8.726  17.764  0.00  0.00    +0.000 OA
ATOM     31  H   UNL     1       1.520   8.728  16.906  0.00  0.00    +0.000 HD
ENDBRANCH   2  30
BRANCH  10  32
ATOM     32  O   UNL     1      -6.849  12.490  22.993  0.00  0.00    +0.000 OA
ATOM     33  H   UNL     1      -6.966  12.680  23.939  0.00  0.00    +0.000 HD
ENDBRANCH  10  32
BRANCH  17  34
ATOM     34  O   UNL     1       1.592  13.054  21.597  0.00  0.00    +0.000 OA
ATOM     35  H   UNL     1       1.357  13.643  22.331  0.00  0.00    +0.000 HD
ENDBRANCH  17  34
TORSDOF 9
ENDMDL
MODEL 5
REMARK VINA RESULT:      -6.8      1.363      2.173
REMARK  Name = 
REMARK  14 active torsions:
REMARK  status: ('A' for Active; 'I' for Inactive)
REMARK    1  A    between atoms: C_2  and  C_3
REMARK    2  A    between atoms: C_2  and  C_4
REMARK    3  A    between atoms: C_4  and  C_5
REMARK    4  A    between atoms: C_4  and  C_7
REMARK    5  A    between atoms: C_5  and  C_6
REMARK    6  A    between atoms: C_7  and  C_8
REMARK    7  A    between atoms: C_8  and  C_9
REMARK    8  A    between atoms: C_9  and  C_10
REMARK    9  A    between atoms: C_9  and  C_11
REMARK   10  A    between atoms: C_12  and  O_13
REMARK   11  A    between atoms: C_21  and  O_22
REMARK   12  A    between atoms: C_25  and  C_26
REMARK   13  A    between atoms: C_29  and  O_30
REMARK   14  A    between atoms: C_31  and  C_32
REMARK                            x       y       z     vdW  Elec       q    Type
REMARK                         _______ _______ _______ _____ _____    ______ ____
ROOT
ATOM      1  C   UNL     1       0.959  10.388  19.494  0.00  0.00    +0.000 C 
ATOM      2  C   UNL     1       0.407  10.229  18.058  0.00  0.00    +0.000 C 
ATOM      3  C   UNL     1      -0.911  11.013  18.050  0.00  0.00    +0.000 C 
ATOM      4  C   UNL     1      -0.784  12.087  19.167  0.00  0.00    +0.000 C 
ATOM      5  C   UNL     1      -1.886  12.041  20.249  0.00  0.00    +0.000 C 
ATOM      6  C   UNL     1      -3.246  12.276  19.592  0.00  0.00    +0.000 C 
ATOM      7  C   UNL     1      -4.402  12.607  20.500  0.00  0.00    +0.000 C 
ATOM      8  C   UNL     1      -4.065  13.159  21.875  0.00  0.00    +0.000 C 
ATOM      9  C   UNL     1      -5.163  14.132  22.341  0.00  0.00    +0.000 C 
ATOM     10  C   UNL     1      -5.057  14.410  23.834  0.00  0.00    +0.000 C 
ATOM     11  C   UNL     1      -3.635  14.558  24.398  0.00  0.00    +0.000 C 
ATOM     12  C   UNL     1      -2.546  13.733  23.700  0.00  0.00    +0.000 C 
ATOM     13  C   UNL     1      -2.654  13.744  22.139  0.00  0.00    +0.000 C 
ATOM     14  C   UNL     1      -2.432  15.201  21.662  0.00  0.00    +0.000 C 
ATOM     15  C   UNL     1      -1.545  12.826  21.551  0.00  0.00    +0.000 C 
ATOM     16  C   UNL     1      -0.142  13.484  21.503  0.00  0.00    +0.000 C 
ATOM     17  C   UNL     1       0.882  12.424  21.131  0.00  0.00    +0.000 C 
ATOM     18  C   UNL     1       0.665  11.922  19.702  0.00  0.00    +0.000 C 
ATOM     19  C   UNL     1       1.548  12.809  18.744  0.00  0.00    +0.000 C 
ENDROOT
BRANCH   1  20
ATOM     20  C   UNL     1       0.465   9.217  20.478  0.00  0.00    +0.000 C 
ATOM     21  C   UNL     1      -0.258   9.580  21.789  0.00  0.00    +0.000 C 
BRANCH  20  22
ATOM     22  C   UNL     1       1.466   8.060  20.793  0.00  0.00    +0.000 C 
BRANCH  22  23
ATOM     23  C   UNL     1       2.269   7.627  19.551  0.00  0.00    +0.000 C 
BRANCH  23  24
ATOM     24  C   UNL     1       2.244   6.120  19.197  0.00  0.00    +0.000 C 
BRANCH  24  26
ATOM     25  C   UNL     1       3.802   4.485  17.988  0.00  0.00    +0.000 C 
ATOM     26  C   UNL     1       3.381   5.739  18.216  0.00  0.00    +0.000 C 
ATOM     27  C   UNL     1       4.069   6.880  17.510  0.00  0.00    +0.000 C 
ENDBRANCH  24  26
BRANCH  24  28
ATOM     28  C   UNL     1       2.232   5.220  20.446  0.00  0.00    +0.000 C 
ATOM     29  C   UNL     1       1.062   4.246  20.494  0.00  0.00    +0.000 C 
ENDBRANCH  24  28
ENDBRANCH  23  24
ENDBRANCH  22  23
ENDBRANCH  20  22
ENDBRANCH   1  20
BRANCH   2  30
ATOM     30  O   UNL     1       0.260   8.882  17.615  0.00  0.00    +0.000 OA
ATOM     31  H   UNL     1       0.929   8.749  16.918  0.00  0.00    +0.000 HD
ENDBRANCH   2  30
BRANCH  10  32
ATOM     32  O   UNL     1      -5.727  13.367  24.548  0.00  0.00    +0.000 OA
ATOM     33  H   UNL     1      -5.072  12.870  25.067  0.00  0.00    +0.000 HD
ENDBRANCH  10  32
BRANCH  17  34
ATOM     34  O   UNL     1       2.218  12.862  21.362  0.00  0.00    +0.000 OA
ATOM     35  H   UNL     1       2.239  13.832  21.350  0.00  0.00    +0.000 HD
ENDBRANCH  17  34
TORSDOF 9
ENDMDL
MODEL 6
REMARK VINA RESULT:      -6.8      8.660     11.861
REMARK  Name = 
REMARK  14 active torsions:
REMARK  status: ('A' for Active; 'I' for Inactive)
REMARK    1  A    between atoms: C_2  and  C_3
REMARK    2  A    between atoms: C_2  and  C_4
REMARK    3  A    between atoms: C_4  and  C_5
REMARK    4  A    between atoms: C_4  and  C_7
REMARK    5  A    between atoms: C_5  and  C_6
REMARK    6  A    between atoms: C_7  and  C_8
REMARK    7  A    between atoms: C_8  and  C_9
REMARK    8  A    between atoms: C_9  and  C_10
REMARK    9  A    between atoms: C_9  and  C_11
REMARK   10  A    between atoms: C_12  and  O_13
REMARK   11  A    between atoms: C_21  and  O_22
REMARK   12  A    between atoms: C_25  and  C_26
REMARK   13  A    between atoms: C_29  and  O_30
REMARK   14  A    between atoms: C_31  and  C_32
REMARK                            x       y       z     vdW  Elec       q    Type
REMARK                         _______ _______ _______ _____ _____    ______ ____
ROOT
ATOM      1  C   UNL     1       9.931  13.144  18.697  0.00  0.00    +0.000 C 
ATOM      2  C   UNL     1      11.030  14.231  18.724  0.00  0.00    +0.000 C 
ATOM      3  C   UNL     1      10.982  14.808  20.145  0.00  0.00    +0.000 C 
ATOM      4  C   UNL     1      10.386  13.691  21.047  0.00  0.00    +0.000 C 
ATOM      5  C   UNL     1       9.117  14.091  21.833  0.00  0.00    +0.000 C 
ATOM      6  C   UNL     1       9.449  15.253  22.767  0.00  0.00    +0.000 C 
ATOM      7  C   UNL     1       8.457  15.569  23.856  0.00  0.00    +0.000 C 
ATOM      8  C   UNL     1       7.497  14.461  24.257  0.00  0.00    +0.000 C 
ATOM      9  C   UNL     1       7.143  14.579  25.751  0.00  0.00    +0.000 C 
ATOM     10  C   UNL     1       5.921  13.739  26.098  0.00  0.00    +0.000 C 
ATOM     11  C   UNL     1       5.823  12.368  25.410  0.00  0.00    +0.000 C 
ATOM     12  C   UNL     1       6.435  12.275  24.007  0.00  0.00    +0.000 C 
ATOM     13  C   UNL     1       7.820  12.993  23.876  0.00  0.00    +0.000 C 
ATOM     14  C   UNL     1       8.818  12.262  24.808  0.00  0.00    +0.000 C 
ATOM     15  C   UNL     1       8.305  12.888  22.403  0.00  0.00    +0.000 C 
ATOM     16  C   UNL     1       8.933  11.518  22.042  0.00  0.00    +0.000 C 
ATOM     17  C   UNL     1       9.152  11.461  20.539  0.00  0.00    +0.000 C 
ATOM     18  C   UNL     1      10.210  12.476  20.096  0.00  0.00    +0.000 C 
ATOM     19  C   UNL     1      11.607  11.748  20.114  0.00  0.00    +0.000 C 
ENDROOT
BRANCH   1  20
ATOM     20  C   UNL     1       8.507  13.719  18.221  0.00  0.00    +0.000 C 
ATOM     21  C   UNL     1       7.693  12.953  17.161  0.00  0.00    +0.000 C 
BRANCH  20  22
ATOM     22  C   UNL     1       8.412  15.241  17.884  0.00  0.00    +0.000 C 
BRANCH  22  23
ATOM     23  C   UNL     1       7.157  15.897  18.491  0.00  0.00    +0.000 C 
BRANCH  23  24
ATOM     24  C   UNL     1       7.117  16.026  20.034  0.00  0.00    +0.000 C 
BRANCH  24  26
ATOM     25  C   UNL     1       8.618  18.054  20.479  0.00  0.00    +0.000 C 
ATOM     26  C   UNL     1       7.407  17.475  20.500  0.00  0.00    +0.000 C 
ATOM     27  C   UNL     1       6.235  18.252  21.045  0.00  0.00    +0.000 C 
ENDBRANCH  24  26
BRANCH  24  28
ATOM     28  C   UNL     1       5.814  15.474  20.639  0.00  0.00    +0.000 C 
ATOM     29  C   UNL     1       4.802  15.005  19.603  0.00  0.00    +0.000 C 
ENDBRANCH  24  28
ENDBRANCH  23  24
ENDBRANCH  22  23
ENDBRANCH  20  22
ENDBRANCH   1  20
BRANCH   2  30
ATOM     30  O   UNL     1      10.918  15.227  17.712  0.00  0.00    +0.000 OA
ATOM     31  H   UNL     1      11.697  15.120  17.135  0.00  0.00    +0.000 HD
ENDBRANCH   2  30
BRANCH  10  32
ATOM     32  O   UNL     1       4.742  14.489  25.794  0.00  0.00    +0.000 OA
ATOM     33  H   UNL     1       4.970  15.434  25.758  0.00  0.00    +0.000 HD
ENDBRANCH  10  32
BRANCH  17  34
ATOM     34  O   UNL     1       9.435  10.141  20.085  0.00  0.00    +0.000 OA
ATOM     35  H   UNL     1      10.396  10.006  20.085  0.00  0.00    +0.000 HD
ENDBRANCH  17  34
TORSDOF 9
ENDMDL
MODEL 7
REMARK VINA RESULT:      -6.8      3.159      7.082
REMARK  Name = 
REMARK  14 active torsions:
REMARK  status: ('A' for Active; 'I' for Inactive)
REMARK    1  A    between atoms: C_2  and  C_3
REMARK    2  A    between atoms: C_2  and  C_4
REMARK    3  A    between atoms: C_4  and  C_5
REMARK    4  A    between atoms: C_4  and  C_7
REMARK    5  A    between atoms: C_5  and  C_6
REMARK    6  A    between atoms: C_7  and  C_8
REMARK    7  A    between atoms: C_8  and  C_9
REMARK    8  A    between atoms: C_9  and  C_10
REMARK    9  A    between atoms: C_9  and  C_11
REMARK   10  A    between atoms: C_12  and  O_13
REMARK   11  A    between atoms: C_21  and  O_22
REMARK   12  A    between atoms: C_25  and  C_26
REMARK   13  A    between atoms: C_29  and  O_30
REMARK   14  A    between atoms: C_31  and  C_32
REMARK                            x       y       z     vdW  Elec       q    Type
REMARK                         _______ _______ _______ _____ _____    ______ ____
ROOT
ATOM      1  C   UNL     1      -5.639  13.997  22.855  0.00  0.00    +0.000 C 
ATOM      2  C   UNL     1      -5.624  13.037  24.068  0.00  0.00    +0.000 C 
ATOM      3  C   UNL     1      -4.188  12.503  24.133  0.00  0.00    +0.000 C 
ATOM      4  C   UNL     1      -3.294  13.575  23.448  0.00  0.00    +0.000 C 
ATOM      5  C   UNL     1      -2.450  13.062  22.259  0.00  0.00    +0.000 C 
ATOM      6  C   UNL     1      -1.499  11.972  22.749  0.00  0.00    +0.000 C 
ATOM      7  C   UNL     1      -0.366  11.583  21.836  0.00  0.00    +0.000 C 
ATOM      8  C   UNL     1       0.041  12.590  20.774  0.00  0.00    +0.000 C 
ATOM      9  C   UNL     1       1.550  12.479  20.487  0.00  0.00    +0.000 C 
ATOM     10  C   UNL     1       1.920  13.191  19.192  0.00  0.00    +0.000 C 
ATOM     11  C   UNL     1       1.200  14.521  18.919  0.00  0.00    +0.000 C 
ATOM     12  C   UNL     1      -0.227  14.638  19.469  0.00  0.00    +0.000 C 
ATOM     13  C   UNL     1      -0.390  14.072  20.919  0.00  0.00    +0.000 C 
ATOM     14  C   UNL     1       0.484  14.936  21.862  0.00  0.00    +0.000 C 
ATOM     15  C   UNL     1      -1.883  14.185  21.339  0.00  0.00    +0.000 C 
ATOM     16  C   UNL     1      -2.303  15.604  21.798  0.00  0.00    +0.000 C 
ATOM     17  C   UNL     1      -3.814  15.639  21.959  0.00  0.00    +0.000 C 
ATOM     18  C   UNL     1      -4.269  14.733  23.106  0.00  0.00    +0.000 C 
ATOM     19  C   UNL     1      -4.323  15.610  24.414  0.00  0.00    +0.000 C 
ENDROOT
BRANCH   1  20
ATOM     20  C   UNL     1      -6.046  13.255  21.488  0.00  0.00    +0.000 C 
ATOM     21  C   UNL     1      -7.461  12.668  21.333  0.00  0.00    +0.000 C 
BRANCH  20  22
ATOM     22  C   UNL     1      -5.036  12.222  20.892  0.00  0.00    +0.000 C 
BRANCH  22  23
ATOM     23  C   UNL     1      -4.382  12.727  19.592  0.00  0.00    +0.000 C 
BRANCH  23  24
ATOM     24  C   UNL     1      -3.917  11.648  18.583  0.00  0.00    +0.000 C 
BRANCH  24  26
ATOM     25  C   UNL     1      -5.916  12.317  17.126  0.00  0.00    +0.000 C 
ATOM     26  C   UNL     1      -4.731  11.701  17.265  0.00  0.00    +0.000 C 
ATOM     27  C   UNL     1      -4.144  10.970  16.085  0.00  0.00    +0.000 C 
ENDBRANCH  24  26
BRANCH  24  28
ATOM     28  C   UNL     1      -2.400  11.693  18.327  0.00  0.00    +0.000 C 
ATOM     29  C   UNL     1      -1.694  10.366  18.566  0.00  0.00    +0.000 C 
ENDBRANCH  24  28
ENDBRANCH  23  24
ENDBRANCH  22  23
ENDBRANCH  20  22
ENDBRANCH   1  20
BRANCH   2  30
ATOM     30  O   UNL     1      -6.605  12.005  24.032  0.00  0.00    +0.000 OA
ATOM     31  H   UNL     1      -7.472  12.451  24.065  0.00  0.00    +0.000 HD
ENDBRANCH   2  30
BRANCH  10  32
ATOM     32  O   UNL     1       1.681  12.307  18.093  0.00  0.00    +0.000 OA
ATOM     33  H   UNL     1       0.726  12.131  18.032  0.00  0.00    +0.000 HD
ENDBRANCH  10  32
BRANCH  17  34
ATOM     34  O   UNL     1      -4.313  16.968  22.078  0.00  0.00    +0.000 OA
ATOM     35  H   UNL     1      -4.890  17.158  21.321  0.00  0.00    +0.000 HD
ENDBRANCH  17  34
TORSDOF 9
ENDMDL
MODEL 8
REMARK VINA RESULT:      -6.7      3.122      7.426
REMARK  Name = 
REMARK  14 active torsions:
REMARK  status: ('A' for Active; 'I' for Inactive)
REMARK    1  A    between atoms: C_2  and  C_3
REMARK    2  A    between atoms: C_2  and  C_4
REMARK    3  A    between atoms: C_4  and  C_5
REMARK    4  A    between atoms: C_4  and  C_7
REMARK    5  A    between atoms: C_5  and  C_6
REMARK    6  A    between atoms: C_7  and  C_8
REMARK    7  A    between atoms: C_8  and  C_9
REMARK    8  A    between atoms: C_9  and  C_10
REMARK    9  A    between atoms: C_9  and  C_11
REMARK   10  A    between atoms: C_12  and  O_13
REMARK   11  A    between atoms: C_21  and  O_22
REMARK   12  A    between atoms: C_25  and  C_26
REMARK   13  A    between atoms: C_29  and  O_30
REMARK   14  A    between atoms: C_31  and  C_32
REMARK                            x       y       z     vdW  Elec       q    Type
REMARK                         _______ _______ _______ _____ _____    ______ ____
ROOT
ATOM      1  C   UNL     1      -5.918  14.327  22.640  0.00  0.00    +0.000 C 
ATOM      2  C   UNL     1      -6.073  13.402  23.870  0.00  0.00    +0.000 C 
ATOM      3  C   UNL     1      -4.713  12.709  24.019  0.00  0.00    +0.000 C 
ATOM      4  C   UNL     1      -3.669  13.655  23.361  0.00  0.00    +0.000 C 
ATOM      5  C   UNL     1      -2.833  13.021  22.227  0.00  0.00    +0.000 C 
ATOM      6  C   UNL     1      -2.039  11.841  22.786  0.00  0.00    +0.000 C 
ATOM      7  C   UNL     1      -0.914  11.304  21.940  0.00  0.00    +0.000 C 
ATOM      8  C   UNL     1      -0.342  12.232  20.881  0.00  0.00    +0.000 C 
ATOM      9  C   UNL     1       1.156  11.943  20.675  0.00  0.00    +0.000 C 
ATOM     10  C   UNL     1       1.669  12.576  19.388  0.00  0.00    +0.000 C 
ATOM     11  C   UNL     1       1.121  13.973  19.054  0.00  0.00    +0.000 C 
ATOM     12  C   UNL     1      -0.308  14.265  19.527  0.00  0.00    +0.000 C 
ATOM     13  C   UNL     1      -0.606  13.757  20.977  0.00  0.00    +0.000 C 
ATOM     14  C   UNL     1       0.314  14.538  21.948  0.00  0.00    +0.000 C 
ATOM     15  C   UNL     1      -2.095  14.049  21.317  0.00  0.00    +0.000 C 
ATOM     16  C   UNL     1      -2.372  15.518  21.728  0.00  0.00    +0.000 C 
ATOM     17  C   UNL     1      -3.874  15.729  21.810  0.00  0.00    +0.000 C 
ATOM     18  C   UNL     1      -4.487  14.909  22.948  0.00  0.00    +0.000 C 
ATOM     19  C   UNL     1      -4.504  15.817  24.236  0.00  0.00    +0.000 C 
ENDROOT
BRANCH   1  20
ATOM     20  C   UNL     1      -6.340  13.604  21.268  0.00  0.00    +0.000 C 
ATOM     21  C   UNL     1      -7.817  13.604  20.830  0.00  0.00    +0.000 C 
BRANCH  20  22
ATOM     22  C   UNL     1      -5.762  12.180  20.988  0.00  0.00    +0.000 C 
BRANCH  22  23
ATOM     23  C   UNL     1      -6.107  11.676  19.574  0.00  0.00    +0.000 C 
BRANCH  23  24
ATOM     24  C   UNL     1      -5.411  12.393  18.392  0.00  0.00    +0.000 C 
BRANCH  24  26
ATOM     25  C   UNL     1      -3.006  11.552  18.658  0.00  0.00    +0.000 C 
ATOM     26  C   UNL     1      -4.133  11.646  17.935  0.00  0.00    +0.000 C 
ATOM     27  C   UNL     1      -4.175  11.021  16.563  0.00  0.00    +0.000 C 
ENDBRANCH  24  26
BRANCH  24  28
ATOM     28  C   UNL     1      -6.371  12.667  17.219  0.00  0.00    +0.000 C 
ATOM     29  C   UNL     1      -6.901  14.093  17.176  0.00  0.00    +0.000 C 
ENDBRANCH  24  28
ENDBRANCH  23  24
ENDBRANCH  22  23
ENDBRANCH  20  22
ENDBRANCH   1  20
BRANCH   2  30
ATOM     30  O   UNL     1      -7.164  12.488  23.802  0.00  0.00    +0.000 OA
ATOM     31  H   UNL     1      -6.836  11.643  24.164  0.00  0.00    +0.000 HD
ENDBRANCH   2  30
BRANCH  10  32
ATOM     32  O   UNL     1       1.384  11.699  18.295  0.00  0.00    +0.000 OA
ATOM     33  H   UNL     1       2.220  11.342  17.951  0.00  0.00    +0.000 HD
ENDBRANCH  10  32
BRANCH  17  34
ATOM     34  O   UNL     1      -4.222  17.108  21.878  0.00  0.00    +0.000 OA
ATOM     35  H   UNL     1      -3.426  17.643  21.727  0.00  0.00    +0.000 HD
ENDBRANCH  17  34
TORSDOF 9
ENDMDL
MODEL 9
REMARK VINA RESULT:      -6.6      0.554      1.394
REMARK  Name = 
REMARK  14 active torsions:
REMARK  status: ('A' for Active; 'I' for Inactive)
REMARK    1  A    between atoms: C_2  and  C_3
REMARK    2  A    between atoms: C_2  and  C_4
REMARK    3  A    between atoms: C_4  and  C_5
REMARK    4  A    between atoms: C_4  and  C_7
REMARK    5  A    between atoms: C_5  and  C_6
REMARK    6  A    between atoms: C_7  and  C_8
REMARK    7  A    between atoms: C_8  and  C_9
REMARK    8  A    between atoms: C_9  and  C_10
REMARK    9  A    between atoms: C_9  and  C_11
REMARK   10  A    between atoms: C_12  and  O_13
REMARK   11  A    between atoms: C_21  and  O_22
REMARK   12  A    between atoms: C_25  and  C_26
REMARK   13  A    between atoms: C_29  and  O_30
REMARK   14  A    between atoms: C_31  and  C_32
REMARK                            x       y       z     vdW  Elec       q    Type
REMARK                         _______ _______ _______ _____ _____    ______ ____
ROOT
ATOM      1  C   UNL     1       0.549  11.673  20.093  0.00  0.00    +0.000 C 
ATOM      2  C   UNL     1       0.403  11.718  18.554  0.00  0.00    +0.000 C 
ATOM      3  C   UNL     1      -1.063  12.094  18.304  0.00  0.00    +0.000 C 
ATOM      4  C   UNL     1      -1.535  12.863  19.570  0.00  0.00    +0.000 C 
ATOM      5  C   UNL     1      -2.770  12.263  20.279  0.00  0.00    +0.000 C 
ATOM      6  C   UNL     1      -3.956  12.270  19.315  0.00  0.00    +0.000 C 
ATOM      7  C   UNL     1      -5.325  12.049  19.904  0.00  0.00    +0.000 C 
ATOM      8  C   UNL     1      -5.491  12.326  21.389  0.00  0.00    +0.000 C 
ATOM      9  C   UNL     1      -6.918  12.825  21.680  0.00  0.00    +0.000 C 
ATOM     10  C   UNL     1      -7.235  12.757  23.169  0.00  0.00    +0.000 C 
ATOM     11  C   UNL     1      -6.095  13.145  24.123  0.00  0.00    +0.000 C 
ATOM     12  C   UNL     1      -4.674  12.838  23.634  0.00  0.00    +0.000 C 
ATOM     13  C   UNL     1      -4.438  13.192  22.128  0.00  0.00    +0.000 C 
ATOM     14  C   UNL     1      -4.601  14.725  21.973  0.00  0.00    +0.000 C 
ATOM     15  C   UNL     1      -2.992  12.777  21.734  0.00  0.00    +0.000 C 
ATOM     16  C   UNL     1      -1.902  13.781  22.186  0.00  0.00    +0.000 C 
ATOM     17  C   UNL     1      -0.535  13.160  21.950  0.00  0.00    +0.000 C 
ATOM     18  C   UNL     1      -0.264  12.974  20.455  0.00  0.00    +0.000 C 
ATOM     19  C   UNL     1       0.471  14.269  19.938  0.00  0.00    +0.000 C 
ENDROOT
BRANCH   1  20
ATOM     20  C   UNL     1       0.258  10.212  20.698  0.00  0.00    +0.000 C 
ATOM     21  C   UNL     1       0.682   9.890  22.143  0.00  0.00    +0.000 C 
BRANCH  20  22
ATOM     22  C   UNL     1       0.612   8.974  19.813  0.00  0.00    +0.000 C 
BRANCH  22  23
ATOM     23  C   UNL     1       1.562   7.996  20.529  0.00  0.00    +0.000 C 
BRANCH  23  24
ATOM     24  C   UNL     1       1.795   6.627  19.845  0.00  0.00    +0.000 C 
BRANCH  24  26
ATOM     25  C   UNL     1       3.157   7.430  17.829  0.00  0.00    +0.000 C 
ATOM     26  C   UNL     1       3.034   6.650  18.915  0.00  0.00    +0.000 C 
ATOM     27  C   UNL     1       4.148   5.694  19.257  0.00  0.00    +0.000 C 
ENDBRANCH  24  26
BRANCH  24  28
ATOM     28  C   UNL     1       1.851   5.464  20.852  0.00  0.00    +0.000 C 
ATOM     29  C   UNL     1       1.022   4.254  20.445  0.00  0.00    +0.000 C 
ENDBRANCH  24  28
ENDBRANCH  23  24
ENDBRANCH  22  23
ENDBRANCH  20  22
ENDBRANCH   1  20
BRANCH   2  30
ATOM     30  O   UNL     1       0.799  10.528  17.877  0.00  0.00    +0.000 OA
ATOM     31  H   UNL     1       0.631   9.792  18.495  0.00  0.00    +0.000 HD
ENDBRANCH   2  30
BRANCH  10  32
ATOM     32  O   UNL     1      -7.669  11.432  23.489  0.00  0.00    +0.000 OA
ATOM     33  H   UNL     1      -6.890  10.885  23.687  0.00  0.00    +0.000 HD
ENDBRANCH  10  32
BRANCH  17  34
ATOM     34  O   UNL     1       0.503  13.875  22.612  0.00  0.00    +0.000 OA
ATOM     35  H   UNL     1       0.176  14.756  22.855  0.00  0.00    +0.000 HD
ENDBRANCH  17  34
TORSDOF 9
ENDMDL
