MODEL 1
REMARK VINA RESULT:      -9.2      0.000      0.000
REMARK  Name = 
REMARK  4 active torsions:
REMARK  status: ('A' for Active; 'I' for Inactive)
REMARK    1  A    between atoms: C_1  and  C_2
REMARK    2  A    between atoms: C_6  and  C_8
REMARK    3  A    between atoms: C_8  and  C_9
REMARK    4  A    between atoms: C_9  and  C_10
REMARK                            x       y       z     vdW  Elec       q    Type
REMARK                         _______ _______ _______ _____ _____    ______ ____
ROOT
ATOM      1  C   UNL     1       2.876   4.961  18.456  0.00  0.00    +0.000 C 
ATOM      2  C   UNL     1       1.687   4.257  17.726  0.00  0.00    +0.000 C 
ATOM      3  C   UNL     1       1.551   2.893  18.445  0.00  0.00    +0.000 C 
ATOM      4  C   UNL     1       0.832   3.119  19.775  0.00  0.00    +0.000 C 
ATOM      5  C   UNL     1       1.892   3.870  20.589  0.00  0.00    +0.000 C 
ATOM      6  C   UNL     1       3.118   3.947  19.624  0.00  0.00    +0.000 C 
ATOM      7  C   UNL     1       2.971   2.594  18.923  0.00  0.00    +0.000 C 
ENDROOT
BRANCH   1  13
ATOM      8  C   UNL     1       0.593  11.240  20.255  0.00  0.00    +0.000 C 
ATOM      9  C   UNL     1       1.191  10.286  19.303  0.00  0.00    +0.000 A 
ATOM     10  N   UNL     1       1.373   8.996  19.463  0.00  0.00    +0.000 NA
ATOM     11  C   UNL     1       1.917   8.587  18.283  0.00  0.00    +0.000 A 
ATOM     12  N   UNL     1       2.251   7.293  18.008  0.00  0.00    +0.000 N 
ATOM     13  C   UNL     1       2.531   6.366  18.986  0.00  0.00    +0.000 C 
ATOM     14  O   UNL     1       2.602   6.621  20.188  0.00  0.00    +0.000 OA
ATOM     15  N   UNL     1       2.055   9.555  17.372  0.00  0.00    +0.000 NA
ATOM     16  N   UNL     1       1.647  10.633  18.064  0.00  0.00    +0.000 N 
ATOM     17  H   UNL     1       2.518   7.141  17.049  0.00  0.00    +0.000 HD
ATOM     18  H   UNL     1       1.691  11.552  17.636  0.00  0.00    +0.000 HD
ENDBRANCH   1  13
BRANCH   1  19
ATOM     19  C   UNL     1       4.058   5.072  17.438  0.00  0.00    +0.000 C 
BRANCH  19  20
ATOM     20  C   UNL     1       5.351   5.728  17.859  0.00  0.00    +0.000 A 
ATOM     21  C   UNL     1       6.114   5.180  18.898  0.00  0.00    +0.000 A 
ATOM     22  C   UNL     1       7.382   5.686  19.194  0.00  0.00    +0.000 A 
ATOM     23  C   UNL     1       7.897   6.756  18.465  0.00  0.00    +0.000 A 
ATOM     24  C   UNL     1       7.142   7.328  17.447  0.00  0.00    +0.000 A 
ATOM     25  C   UNL     1       5.878   6.818  17.144  0.00  0.00    +0.000 A 
ENDBRANCH  19  20
ENDBRANCH   1  19
TORSDOF 3
ENDMDL
MODEL 2
REMARK VINA RESULT:      -9.2      2.940      5.436
REMARK  Name = 
REMARK  4 active torsions:
REMARK  status: ('A' for Active; 'I' for Inactive)
REMARK    1  A    between atoms: C_1  and  C_2
REMARK    2  A    between atoms: C_6  and  C_8
REMARK    3  A    between atoms: C_8  and  C_9
REMARK    4  A    between atoms: C_9  and  C_10
REMARK                            x       y       z     vdW  Elec       q    Type
REMARK                         _______ _______ _______ _____ _____    ______ ____
ROOT
ATOM      1  C   UNL     1       2.959   4.567  19.019  0.00  0.00    +0.000 C 
ATOM      2  C   UNL     1       3.468   3.482  20.023  0.00  0.00    +0.000 C 
ATOM      3  C   UNL     1       2.176   2.868  20.611  0.00  0.00    +0.000 C 
ATOM      4  C   UNL     1       1.592   1.897  19.585  0.00  0.00    +0.000 C 
ATOM      5  C   UNL     1       1.093   2.849  18.491  0.00  0.00    +0.000 C 
ATOM      6  C   UNL     1       1.421   4.269  19.054  0.00  0.00    +0.000 C 
ATOM      7  C   UNL     1       1.167   4.015  20.542  0.00  0.00    +0.000 C 
ENDROOT
BRANCH   1  13
ATOM      8  C   UNL     1       6.350   3.655  13.057  0.00  0.00    +0.000 C 
ATOM      9  C   UNL     1       6.078   4.378  14.314  0.00  0.00    +0.000 A 
ATOM     10  N   UNL     1       5.250   4.039  15.274  0.00  0.00    +0.000 NA
ATOM     11  C   UNL     1       5.410   5.016  16.210  0.00  0.00    +0.000 A 
ATOM     12  N   UNL     1       4.741   5.046  17.400  0.00  0.00    +0.000 N 
ATOM     13  C   UNL     1       3.534   4.414  17.598  0.00  0.00    +0.000 C 
ATOM     14  O   UNL     1       2.892   3.845  16.715  0.00  0.00    +0.000 OA
ATOM     15  N   UNL     1       6.326   5.938  15.899  0.00  0.00    +0.000 NA
ATOM     16  N   UNL     1       6.690   5.546  14.665  0.00  0.00    +0.000 N 
ATOM     17  H   UNL     1       5.069   5.760  18.028  0.00  0.00    +0.000 HD
ATOM     18  H   UNL     1       7.355   6.101  14.138  0.00  0.00    +0.000 HD
ENDBRANCH   1  13
BRANCH   1  19
ATOM     19  C   UNL     1       3.361   5.966  19.589  0.00  0.00    +0.000 C 
BRANCH  19  20
ATOM     20  C   UNL     1       2.473   7.161  19.339  0.00  0.00    +0.000 A 
ATOM     21  C   UNL     1       1.768   7.749  20.397  0.00  0.00    +0.000 A 
ATOM     22  C   UNL     1       1.067   8.942  20.209  0.00  0.00    +0.000 A 
ATOM     23  C   UNL     1       1.048   9.556  18.959  0.00  0.00    +0.000 A 
ATOM     24  C   UNL     1       1.722   8.971  17.891  0.00  0.00    +0.000 A 
ATOM     25  C   UNL     1       2.431   7.783  18.079  0.00  0.00    +0.000 A 
ENDBRANCH  19  20
ENDBRANCH   1  19
TORSDOF 3
ENDMDL
MODEL 3
REMARK VINA RESULT:      -9.0      0.136      1.013
REMARK  Name = 
REMARK  4 active torsions:
REMARK  status: ('A' for Active; 'I' for Inactive)
REMARK    1  A    between atoms: C_1  and  C_2
REMARK    2  A    between atoms: C_6  and  C_8
REMARK    3  A    between atoms: C_8  and  C_9
REMARK    4  A    between atoms: C_9  and  C_10
REMARK                            x       y       z     vdW  Elec       q    Type
REMARK                         _______ _______ _______ _____ _____    ______ ____
ROOT
ATOM      1  C   UNL     1       2.857   4.926  18.376  0.00  0.00    +0.000 C 
ATOM      2  C   UNL     1       1.624   4.222  17.722  0.00  0.00    +0.000 C 
ATOM      3  C   UNL     1       1.534   2.858  18.446  0.00  0.00    +0.000 C 
ATOM      4  C   UNL     1       0.901   3.081  19.820  0.00  0.00    +0.000 C 
ATOM      5  C   UNL     1       2.010   3.832  20.565  0.00  0.00    +0.000 C 
ATOM      6  C   UNL     1       3.172   3.910  19.525  0.00  0.00    +0.000 C 
ATOM      7  C   UNL     1       2.982   2.558  18.833  0.00  0.00    +0.000 C 
ENDROOT
BRANCH   1  13
ATOM      8  C   UNL     1       0.704  11.213  20.306  0.00  0.00    +0.000 C 
ATOM      9  C   UNL     1       1.257  10.260  19.325  0.00  0.00    +0.000 A 
ATOM     10  N   UNL     1       1.432   8.967  19.469  0.00  0.00    +0.000 NA
ATOM     11  C   UNL     1       1.927   8.563  18.266  0.00  0.00    +0.000 A 
ATOM     12  N   UNL     1       2.239   7.268  17.969  0.00  0.00    +0.000 N 
ATOM     13  C   UNL     1       2.546   6.330  18.929  0.00  0.00    +0.000 C 
ATOM     14  O   UNL     1       2.664   6.575  20.130  0.00  0.00    +0.000 OA
ATOM     15  N   UNL     1       2.041   9.537  17.358  0.00  0.00    +0.000 NA
ATOM     16  N   UNL     1       1.670  10.613  18.073  0.00  0.00    +0.000 N 
ATOM     17  H   UNL     1       2.468   7.121  17.000  0.00  0.00    +0.000 HD
ATOM     18  H   UNL     1       1.707  11.534  17.650  0.00  0.00    +0.000 HD
ENDBRANCH   1  13
BRANCH   1  19
ATOM     19  C   UNL     1       3.971   5.039  17.285  0.00  0.00    +0.000 C 
BRANCH  19  20
ATOM     20  C   UNL     1       5.346   5.535  17.667  0.00  0.00    +0.000 A 
ATOM     21  C   UNL     1       5.922   6.612  16.981  0.00  0.00    +0.000 A 
ATOM     22  C   UNL     1       7.122   7.176  17.421  0.00  0.00    +0.000 A 
ATOM     23  C   UNL     1       7.768   6.662  18.543  0.00  0.00    +0.000 A 
ATOM     24  C   UNL     1       7.222   5.577  19.220  0.00  0.00    +0.000 A 
ATOM     25  C   UNL     1       6.018   5.017  18.787  0.00  0.00    +0.000 A 
ENDBRANCH  19  20
ENDBRANCH   1  19
TORSDOF 3
ENDMDL
MODEL 4
REMARK VINA RESULT:      -9.0      1.320      1.931
REMARK  Name = 
REMARK  4 active torsions:
REMARK  status: ('A' for Active; 'I' for Inactive)
REMARK    1  A    between atoms: C_1  and  C_2
REMARK    2  A    between atoms: C_6  and  C_8
REMARK    3  A    between atoms: C_8  and  C_9
REMARK    4  A    between atoms: C_9  and  C_10
REMARK                            x       y       z     vdW  Elec       q    Type
REMARK                         _______ _______ _______ _____ _____    ______ ____
ROOT
ATOM      1  C   UNL     1       2.997   5.234  19.132  0.00  0.00    +0.000 C 
ATOM      2  C   UNL     1       2.257   4.506  17.963  0.00  0.00    +0.000 C 
ATOM      3  C   UNL     1       1.852   3.138  18.561  0.00  0.00    +0.000 C 
ATOM      4  C   UNL     1       0.623   3.343  19.447  0.00  0.00    +0.000 C 
ATOM      5  C   UNL     1       1.210   4.115  20.635  0.00  0.00    +0.000 C 
ATOM      6  C   UNL     1       2.730   4.221  20.296  0.00  0.00    +0.000 C 
ATOM      7  C   UNL     1       2.931   2.868  19.609  0.00  0.00    +0.000 C 
ENDROOT
BRANCH   1  13
ATOM      8  C   UNL     1      -0.128  11.368  19.831  0.00  0.00    +0.000 C 
ATOM      9  C   UNL     1       0.756  10.419  19.128  0.00  0.00    +0.000 A 
ATOM     10  N   UNL     1       0.990   9.163  19.428  0.00  0.00    +0.000 NA
ATOM     11  C   UNL     1       1.836   8.739  18.449  0.00  0.00    +0.000 A 
ATOM     12  N   UNL     1       2.326   7.468  18.364  0.00  0.00    +0.000 N 
ATOM     13  C   UNL     1       2.427   6.629  19.452  0.00  0.00    +0.000 C 
ATOM     14  O   UNL     1       2.181   6.959  20.612  0.00  0.00    +0.000 OA
ATOM     15  N   UNL     1       2.120   9.661  17.524  0.00  0.00    +0.000 NA
ATOM     16  N   UNL     1       1.474  10.735  18.011  0.00  0.00    +0.000 N 
ATOM     17  H   UNL     1       2.831   7.287  17.513  0.00  0.00    +0.000 HD
ATOM     18  H   UNL     1       1.552  11.627  17.534  0.00  0.00    +0.000 HD
ENDBRANCH   1  13
BRANCH   1  19
ATOM     19  C   UNL     1       4.501   5.374  18.726  0.00  0.00    +0.000 C 
BRANCH  19  20
ATOM     20  C   UNL     1       4.914   5.151  17.291  0.00  0.00    +0.000 A 
ATOM     21  C   UNL     1       4.939   6.222  16.389  0.00  0.00    +0.000 A 
ATOM     22  C   UNL     1       5.464   6.060  15.105  0.00  0.00    +0.000 A 
ATOM     23  C   UNL     1       5.957   4.822  14.700  0.00  0.00    +0.000 A 
ATOM     24  C   UNL     1       5.916   3.741  15.575  0.00  0.00    +0.000 A 
ATOM     25  C   UNL     1       5.400   3.903  16.862  0.00  0.00    +0.000 A 
ENDBRANCH  19  20
ENDBRANCH   1  19
TORSDOF 3
ENDMDL
MODEL 5
REMARK VINA RESULT:      -9.0      1.267      4.437
REMARK  Name = 
REMARK  4 active torsions:
REMARK  status: ('A' for Active; 'I' for Inactive)
REMARK    1  A    between atoms: C_1  and  C_2
REMARK    2  A    between atoms: C_6  and  C_8
REMARK    3  A    between atoms: C_8  and  C_9
REMARK    4  A    between atoms: C_9  and  C_10
REMARK                            x       y       z     vdW  Elec       q    Type
REMARK                         _______ _______ _______ _____ _____    ______ ____
ROOT
ATOM      1  C   UNL     1       4.978   5.341  17.467  0.00  0.00    +0.000 C 
ATOM      2  C   UNL     1       5.981   4.511  18.333  0.00  0.00    +0.000 C 
ATOM      3  C   UNL     1       7.363   4.801  17.700  0.00  0.00    +0.000 C 
ATOM      4  C   UNL     1       7.828   6.181  18.167  0.00  0.00    +0.000 C 
ATOM      5  C   UNL     1       6.868   7.112  17.417  0.00  0.00    +0.000 C 
ATOM      6  C   UNL     1       5.987   6.138  16.572  0.00  0.00    +0.000 C 
ATOM      7  C   UNL     1       7.038   5.078  16.233  0.00  0.00    +0.000 C 
ENDROOT
BRANCH   1  13
ATOM      8  C   UNL     1       0.294   9.415  20.522  0.00  0.00    +0.000 C 
ATOM      9  C   UNL     1       1.229   9.081  19.430  0.00  0.00    +0.000 A 
ATOM     10  N   UNL     1       1.934   7.984  19.283  0.00  0.00    +0.000 NA
ATOM     11  C   UNL     1       2.589   8.167  18.102  0.00  0.00    +0.000 A 
ATOM     12  N   UNL     1       3.432   7.246  17.550  0.00  0.00    +0.000 N 
ATOM     13  C   UNL     1       4.082   6.285  18.291  0.00  0.00    +0.000 C 
ATOM     14  O   UNL     1       4.050   6.211  19.519  0.00  0.00    +0.000 OA
ATOM     15  N   UNL     1       2.303   9.315  17.481  0.00  0.00    +0.000 NA
ATOM     16  N   UNL     1       1.487   9.904  18.373  0.00  0.00    +0.000 N 
ATOM     17  H   UNL     1       3.730   7.481  16.618  0.00  0.00    +0.000 HD
ATOM     18  H   UNL     1       1.140  10.840  18.194  0.00  0.00    +0.000 HD
ENDBRANCH   1  13
BRANCH   1  19
ATOM     19  C   UNL     1       4.078   4.329  16.686  0.00  0.00    +0.000 C 
BRANCH  19  20
ATOM     20  C   UNL     1       3.033   3.528  17.427  0.00  0.00    +0.000 A 
ATOM     21  C   UNL     1       3.364   2.288  17.988  0.00  0.00    +0.000 A 
ATOM     22  C   UNL     1       2.454   1.610  18.803  0.00  0.00    +0.000 A 
ATOM     23  C   UNL     1       1.197   2.157  19.056  0.00  0.00    +0.000 A 
ATOM     24  C   UNL     1       0.845   3.375  18.486  0.00  0.00    +0.000 A 
ATOM     25  C   UNL     1       1.756   4.059  17.678  0.00  0.00    +0.000 A 
ENDBRANCH  19  20
ENDBRANCH   1  19
TORSDOF 3
ENDMDL
MODEL 6
REMARK VINA RESULT:      -8.9      2.972      5.477
REMARK  Name = 
REMARK  4 active torsions:
REMARK  status: ('A' for Active; 'I' for Inactive)
REMARK    1  A    between atoms: C_1  and  C_2
REMARK    2  A    between atoms: C_6  and  C_8
REMARK    3  A    between atoms: C_8  and  C_9
REMARK    4  A    between atoms: C_9  and  C_10
REMARK                            x       y       z     vdW  Elec       q    Type
REMARK                         _______ _______ _______ _____ _____    ______ ____
ROOT
ATOM      1  C   UNL     1       3.004   4.543  19.022  0.00  0.00    +0.000 C 
ATOM      2  C   UNL     1       3.454   3.400  19.989  0.00  0.00    +0.000 C 
ATOM      3  C   UNL     1       2.130   2.842  20.563  0.00  0.00    +0.000 C 
ATOM      4  C   UNL     1       1.490   1.939  19.508  0.00  0.00    +0.000 C 
ATOM      5  C   UNL     1       1.043   2.951  18.448  0.00  0.00    +0.000 C 
ATOM      6  C   UNL     1       1.452   4.331  19.054  0.00  0.00    +0.000 C 
ATOM      7  C   UNL     1       1.188   4.045  20.534  0.00  0.00    +0.000 C 
ENDROOT
BRANCH   1  13
ATOM      8  C   UNL     1       6.334   3.655  13.022  0.00  0.00    +0.000 C 
ATOM      9  C   UNL     1       6.092   4.358  14.296  0.00  0.00    +0.000 A 
ATOM     10  N   UNL     1       5.258   4.026  15.253  0.00  0.00    +0.000 NA
ATOM     11  C   UNL     1       5.454   4.975  16.210  0.00  0.00    +0.000 A 
ATOM     12  N   UNL     1       4.793   5.000  17.404  0.00  0.00    +0.000 N 
ATOM     13  C   UNL     1       3.567   4.404  17.595  0.00  0.00    +0.000 C 
ATOM     14  O   UNL     1       2.902   3.876  16.703  0.00  0.00    +0.000 OA
ATOM     15  N   UNL     1       6.400   5.873  15.915  0.00  0.00    +0.000 NA
ATOM     16  N   UNL     1       6.744   5.498  14.670  0.00  0.00    +0.000 N 
ATOM     17  H   UNL     1       5.148   5.689  18.046  0.00  0.00    +0.000 HD
ATOM     18  H   UNL     1       7.425   6.042  14.152  0.00  0.00    +0.000 HD
ENDBRANCH   1  13
BRANCH   1  19
ATOM     19  C   UNL     1       3.486   5.899  19.634  0.00  0.00    +0.000 C 
BRANCH  19  20
ATOM     20  C   UNL     1       2.708   7.164  19.360  0.00  0.00    +0.000 A 
ATOM     21  C   UNL     1       2.694   7.717  18.073  0.00  0.00    +0.000 A 
ATOM     22  C   UNL     1       1.859   8.796  17.771  0.00  0.00    +0.000 A 
ATOM     23  C   UNL     1       1.039   9.345  18.754  0.00  0.00    +0.000 A 
ATOM     24  C   UNL     1       1.061   8.823  20.044  0.00  0.00    +0.000 A 
ATOM     25  C   UNL     1       1.888   7.739  20.346  0.00  0.00    +0.000 A 
ENDBRANCH  19  20
ENDBRANCH   1  19
TORSDOF 3
ENDMDL
MODEL 7
REMARK VINA RESULT:      -8.9      2.939      5.626
REMARK  Name = 
REMARK  4 active torsions:
REMARK  status: ('A' for Active; 'I' for Inactive)
REMARK    1  A    between atoms: C_1  and  C_2
REMARK    2  A    between atoms: C_6  and  C_8
REMARK    3  A    between atoms: C_8  and  C_9
REMARK    4  A    between atoms: C_9  and  C_10
REMARK                            x       y       z     vdW  Elec       q    Type
REMARK                         _______ _______ _______ _____ _____    ______ ____
ROOT
ATOM      1  C   UNL     1       2.892   4.825  19.360  0.00  0.00    +0.000 C 
ATOM      2  C   UNL     1       3.288   3.623  20.277  0.00  0.00    +0.000 C 
ATOM      3  C   UNL     1       1.964   2.850  20.487  0.00  0.00    +0.000 C 
ATOM      4  C   UNL     1       1.682   2.026  19.230  0.00  0.00    +0.000 C 
ATOM      5  C   UNL     1       1.326   3.113  18.209  0.00  0.00    +0.000 C 
ATOM      6  C   UNL     1       1.411   4.439  19.030  0.00  0.00    +0.000 C 
ATOM      7  C   UNL     1       0.892   3.934  20.378  0.00  0.00    +0.000 C 
ENDROOT
BRANCH   1  13
ATOM      8  C   UNL     1       6.995   4.444  13.801  0.00  0.00    +0.000 C 
ATOM      9  C   UNL     1       6.760   4.500  15.256  0.00  0.00    +0.000 A 
ATOM     10  N   UNL     1       5.609   4.496  15.886  0.00  0.00    +0.000 NA
ATOM     11  C   UNL     1       5.951   4.518  17.205  0.00  0.00    +0.000 A 
ATOM     12  N   UNL     1       5.046   4.505  18.226  0.00  0.00    +0.000 N 
ATOM     13  C   UNL     1       3.747   4.937  18.083  0.00  0.00    +0.000 C 
ATOM     14  O   UNL     1       3.295   5.461  17.065  0.00  0.00    +0.000 OA
ATOM     15  N   UNL     1       7.268   4.502  17.436  0.00  0.00    +0.000 NA
ATOM     16  N   UNL     1       7.759   4.554  16.185  0.00  0.00    +0.000 N 
ATOM     17  H   UNL     1       5.466   4.394  19.134  0.00  0.00    +0.000 HD
ATOM     18  H   UNL     1       8.761   4.609  16.041  0.00  0.00    +0.000 HD
ENDBRANCH   1  13
BRANCH   1  19
ATOM     19  C   UNL     1       3.050   6.134  20.200  0.00  0.00    +0.000 C 
BRANCH  19  20
ATOM     20  C   UNL     1       2.148   7.314  19.925  0.00  0.00    +0.000 A 
ATOM     21  C   UNL     1       1.315   7.814  20.934  0.00  0.00    +0.000 A 
ATOM     22  C   UNL     1       0.593   8.994  20.741  0.00  0.00    +0.000 A 
ATOM     23  C   UNL     1       0.684   9.682  19.534  0.00  0.00    +0.000 A 
ATOM     24  C   UNL     1       1.488   9.186  18.513  0.00  0.00    +0.000 A 
ATOM     25  C   UNL     1       2.217   8.011  18.707  0.00  0.00    +0.000 A 
ENDBRANCH  19  20
ENDBRANCH   1  19
TORSDOF 3
ENDMDL
MODEL 8
REMARK VINA RESULT:      -8.9      1.272      1.670
REMARK  Name = 
REMARK  4 active torsions:
REMARK  status: ('A' for Active; 'I' for Inactive)
REMARK    1  A    between atoms: C_1  and  C_2
REMARK    2  A    between atoms: C_6  and  C_8
REMARK    3  A    between atoms: C_8  and  C_9
REMARK    4  A    between atoms: C_9  and  C_10
REMARK                            x       y       z     vdW  Elec       q    Type
REMARK                         _______ _______ _______ _____ _____    ______ ____
ROOT
ATOM      1  C   UNL     1       3.040   5.256  19.114  0.00  0.00    +0.000 C 
ATOM      2  C   UNL     1       2.443   4.517  17.872  0.00  0.00    +0.000 C 
ATOM      3  C   UNL     1       2.023   3.131  18.418  0.00  0.00    +0.000 C 
ATOM      4  C   UNL     1       0.706   3.291  19.177  0.00  0.00    +0.000 C 
ATOM      5  C   UNL     1       1.146   4.068  20.422  0.00  0.00    +0.000 C 
ATOM      6  C   UNL     1       2.689   4.224  20.239  0.00  0.00    +0.000 C 
ATOM      7  C   UNL     1       3.000   2.884  19.567  0.00  0.00    +0.000 C 
ENDROOT
BRANCH   1  13
ATOM      8  C   UNL     1      -0.333  11.283  19.535  0.00  0.00    +0.000 C 
ATOM      9  C   UNL     1       0.645  10.368  18.917  0.00  0.00    +0.000 A 
ATOM     10  N   UNL     1       0.889   9.118  19.232  0.00  0.00    +0.000 NA
ATOM     11  C   UNL     1       1.840   8.728  18.338  0.00  0.00    +0.000 A 
ATOM     12  N   UNL     1       2.376   7.474  18.296  0.00  0.00    +0.000 N 
ATOM     13  C   UNL     1       2.397   6.630  19.383  0.00  0.00    +0.000 C 
ATOM     14  O   UNL     1       2.028   6.943  20.515  0.00  0.00    +0.000 OA
ATOM     15  N   UNL     1       2.183   9.667  17.450  0.00  0.00    +0.000 NA
ATOM     16  N   UNL     1       1.459  10.716  17.877  0.00  0.00    +0.000 N 
ATOM     17  H   UNL     1       2.967   7.315  17.497  0.00  0.00    +0.000 HD
ATOM     18  H   UNL     1       1.554  11.613  17.415  0.00  0.00    +0.000 HD
ENDBRANCH   1  13
BRANCH   1  19
ATOM     19  C   UNL     1       4.571   5.446  18.862  0.00  0.00    +0.000 C 
BRANCH  19  20
ATOM     20  C   UNL     1       5.131   5.259  17.472  0.00  0.00    +0.000 A 
ATOM     21  C   UNL     1       5.583   4.000  17.058  0.00  0.00    +0.000 A 
ATOM     22  C   UNL     1       5.960   3.780  15.731  0.00  0.00    +0.000 A 
ATOM     23  C   UNL     1       5.903   4.819  14.805  0.00  0.00    +0.000 A 
ATOM     24  C   UNL     1       5.480   6.082  15.206  0.00  0.00    +0.000 A 
ATOM     25  C   UNL     1       5.095   6.302  16.530  0.00  0.00    +0.000 A 
ENDBRANCH  19  20
ENDBRANCH   1  19
TORSDOF 3
ENDMDL
MODEL 9
REMARK VINA RESULT:      -8.8      1.492      4.433
REMARK  Name = 
REMARK  4 active torsions:
REMARK  status: ('A' for Active; 'I' for Inactive)
REMARK    1  A    between atoms: C_1  and  C_2
REMARK    2  A    between atoms: C_6  and  C_8
REMARK    3  A    between atoms: C_8  and  C_9
REMARK    4  A    between atoms: C_9  and  C_10
REMARK                            x       y       z     vdW  Elec       q    Type
REMARK                         _______ _______ _______ _____ _____    ______ ____
ROOT
ATOM      1  C   UNL     1       4.606   4.623  17.674  0.00  0.00    +0.000 C 
ATOM      2  C   UNL     1       6.070   4.270  18.092  0.00  0.00    +0.000 C 
ATOM      3  C   UNL     1       6.893   4.459  16.795  0.00  0.00    +0.000 C 
ATOM      4  C   UNL     1       7.126   5.956  16.585  0.00  0.00    +0.000 C 
ATOM      5  C   UNL     1       5.722   6.449  16.216  0.00  0.00    +0.000 C 
ATOM      6  C   UNL     1       4.856   5.149  16.220  0.00  0.00    +0.000 C 
ATOM      7  C   UNL     1       5.890   4.156  15.683  0.00  0.00    +0.000 C 
ENDROOT
BRANCH   1  13
ATOM      8  C   UNL     1       0.852   9.174  21.289  0.00  0.00    +0.000 C 
ATOM      9  C   UNL     1       1.428   8.651  20.035  0.00  0.00    +0.000 A 
ATOM     10  N   UNL     1       2.115   7.546  19.865  0.00  0.00    +0.000 NA
ATOM     11  C   UNL     1       2.370   7.516  18.528  0.00  0.00    +0.000 A 
ATOM     12  N   UNL     1       3.055   6.512  17.907  0.00  0.00    +0.000 N 
ATOM     13  C   UNL     1       3.951   5.698  18.562  0.00  0.00    +0.000 C 
ATOM     14  O   UNL     1       4.297   5.844  19.735  0.00  0.00    +0.000 OA
ATOM     15  N   UNL     1       1.845   8.535  17.840  0.00  0.00    +0.000 NA
ATOM     16  N   UNL     1       1.308   9.274  18.827  0.00  0.00    +0.000 N 
ATOM     17  H   UNL     1       3.043   6.578  16.902  0.00  0.00    +0.000 HD
ATOM     18  H   UNL     1       0.871  10.163  18.608  0.00  0.00    +0.000 HD
ENDBRANCH   1  13
BRANCH   1  19
ATOM     19  C   UNL     1       3.762   3.309  17.752  0.00  0.00    +0.000 C 
BRANCH  19  20
ATOM     20  C   UNL     1       2.887   3.050  18.955  0.00  0.00    +0.000 A 
ATOM     21  C   UNL     1       3.458   2.641  20.166  0.00  0.00    +0.000 A 
ATOM     22  C   UNL     1       2.681   2.546  21.324  0.00  0.00    +0.000 A 
ATOM     23  C   UNL     1       1.321   2.845  21.282  0.00  0.00    +0.000 A 
ATOM     24  C   UNL     1       0.734   3.228  20.081  0.00  0.00    +0.000 A 
ATOM     25  C   UNL     1       1.510   3.332  18.925  0.00  0.00    +0.000 A 
ENDBRANCH  19  20
ENDBRANCH   1  19
TORSDOF 3
ENDMDL
