MODEL 1
REMARK VINA RESULT:      -8.3      0.000      0.000
REMARK  Name = 
REMARK  4 active torsions:
REMARK  status: ('A' for Active; 'I' for Inactive)
REMARK    1  A    between atoms: C_5  and  C_6
REMARK    2  A    between atoms: N_8  and  C_9
REMARK    3  A    between atoms: C_16  and  C_17
REMARK    4  A    between atoms: C_26  and  N_27
REMARK                            x       y       z     vdW  Elec       q    Type
REMARK                         _______ _______ _______ _____ _____    ______ ____
ROOT
ATOM      1  C   UNL     1       1.042   9.830  19.865  0.00  0.00    +0.000 C 
ATOM      2  N   UNL     1       1.423  10.855  19.164  0.00  0.00    +0.000 NA
ATOM      3  N   UNL     1       0.727  11.933  19.627  0.00  0.00    +0.000 N 
ATOM      4  C   UNL     1      -0.288  11.595  20.643  0.00  0.00    +0.000 C 
ATOM      5  C   UNL     1       0.018  10.125  20.924  0.00  0.00    +0.000 C 
ENDROOT
BRANCH   4   6
ATOM      6  C   UNL     1      -1.736  11.851  20.222  0.00  0.00    +0.000 A 
ATOM      7  C   UNL     1      -2.163  11.394  18.951  0.00  0.00    +0.000 A 
ATOM      8  C   UNL     1      -3.440  11.634  18.455  0.00  0.00    +0.000 A 
ATOM      9  C   UNL     1      -3.816  11.254  17.153  0.00  0.00    +0.000 A 
ATOM     10  C   UNL     1      -5.107  11.509  16.696  0.00  0.00    +0.000 A 
ATOM     11  C   UNL     1      -6.017  12.126  17.546  0.00  0.00    +0.000 A 
ATOM     12  C   UNL     1      -5.623  12.496  18.837  0.00  0.00    +0.000 A 
ATOM     13  C   UNL     1      -4.331  12.276  19.306  0.00  0.00    +0.000 A 
ATOM     14  N   UNL     1      -3.965  12.677  20.539  0.00  0.00    +0.000 NA
ATOM     15  C   UNL     1      -2.697  12.506  21.016  0.00  0.00    +0.000 A 
BRANCH  15  16
ATOM     16  N   UNL     1      -2.507  13.027  22.278  0.00  0.00    +0.000 N 
ATOM     17  C   UNL     1      -3.025  12.256  23.434  0.00  0.00    +0.000 C 
ATOM     18  C   UNL     1      -3.757  13.174  24.425  0.00  0.00    +0.000 C 
ATOM     19  O   UNL     1      -2.927  14.273  24.833  0.00  0.00    +0.000 OA
ATOM     20  C   UNL     1      -2.593  15.063  23.689  0.00  0.00    +0.000 C 
ATOM     21  C   UNL     1      -1.805  14.253  22.650  0.00  0.00    +0.000 C 
ENDBRANCH  15  16
ENDBRANCH   4   6
BRANCH   1  26
ATOM     22  F   UNL     1       2.899   4.608  19.001  0.00  0.00    +0.000 F 
ATOM     23  C   UNL     1       2.495   5.863  19.230  0.00  0.00    +0.000 A 
ATOM     24  C   UNL     1       2.662   6.829  18.245  0.00  0.00    +0.000 A 
ATOM     25  C   UNL     1       2.208   8.131  18.470  0.00  0.00    +0.000 A 
ATOM     26  C   UNL     1       1.583   8.460  19.681  0.00  0.00    +0.000 A 
ATOM     27  C   UNL     1       1.458   7.484  20.681  0.00  0.00    +0.000 A 
ATOM     28  C   UNL     1       1.908   6.182  20.450  0.00  0.00    +0.000 A 
ENDBRANCH   1  26
BRANCH   3  29
ATOM     29  C   UNL     1       1.041  13.230  19.212  0.00  0.00    +0.000 A 
ATOM     30  C   UNL     1       0.191  14.305  19.526  0.00  0.00    +0.000 A 
ATOM     31  C   UNL     1       0.541  15.624  19.227  0.00  0.00    +0.000 A 
ATOM     32  C   UNL     1       1.737  15.881  18.575  0.00  0.00    +0.000 A 
ATOM     33  F   UNL     1       2.081  17.142  18.287  0.00  0.00    +0.000 F 
ATOM     34  C   UNL     1       2.590  14.845  18.223  0.00  0.00    +0.000 A 
ATOM     35  C   UNL     1       2.245  13.531  18.552  0.00  0.00    +0.000 A 
ENDBRANCH   3  29
TORSDOF 4
ENDMDL
MODEL 2
REMARK VINA RESULT:      -8.3      0.576      1.278
REMARK  Name = 
REMARK  4 active torsions:
REMARK  status: ('A' for Active; 'I' for Inactive)
REMARK    1  A    between atoms: C_5  and  C_6
REMARK    2  A    between atoms: N_8  and  C_9
REMARK    3  A    between atoms: C_16  and  C_17
REMARK    4  A    between atoms: C_26  and  N_27
REMARK                            x       y       z     vdW  Elec       q    Type
REMARK                         _______ _______ _______ _____ _____    ______ ____
ROOT
ATOM      1  C   UNL     1       0.916  10.294  19.683  0.00  0.00    +0.000 C 
ATOM      2  N   UNL     1       1.218  11.409  19.086  0.00  0.00    +0.000 NA
ATOM      3  N   UNL     1       0.459  12.385  19.663  0.00  0.00    +0.000 N 
ATOM      4  C   UNL     1      -0.515  11.878  20.649  0.00  0.00    +0.000 C 
ATOM      5  C   UNL     1      -0.109  10.411  20.776  0.00  0.00    +0.000 C 
ENDROOT
BRANCH   4   6
ATOM      6  C   UNL     1      -1.983  12.078  20.269  0.00  0.00    +0.000 A 
ATOM      7  C   UNL     1      -2.422  11.629  18.999  0.00  0.00    +0.000 A 
ATOM      8  C   UNL     1      -3.721  11.822  18.540  0.00  0.00    +0.000 A 
ATOM      9  C   UNL     1      -4.113  11.452  17.240  0.00  0.00    +0.000 A 
ATOM     10  C   UNL     1      -5.424  11.659  16.820  0.00  0.00    +0.000 A 
ATOM     11  C   UNL     1      -6.339  12.217  17.705  0.00  0.00    +0.000 A 
ATOM     12  C   UNL     1      -5.929  12.577  18.994  0.00  0.00    +0.000 A 
ATOM     13  C   UNL     1      -4.617  12.406  19.426  0.00  0.00    +0.000 A 
ATOM     14  N   UNL     1      -4.238  12.797  20.658  0.00  0.00    +0.000 NA
ATOM     15  C   UNL     1      -2.952  12.673  21.100  0.00  0.00    +0.000 A 
BRANCH  15  16
ATOM     16  N   UNL     1      -2.753  13.176  22.368  0.00  0.00    +0.000 N 
ATOM     17  C   UNL     1      -3.134  12.325  23.522  0.00  0.00    +0.000 C 
ATOM     18  C   UNL     1      -3.905  13.138  24.574  0.00  0.00    +0.000 C 
ATOM     19  O   UNL     1      -3.169  14.303  24.978  0.00  0.00    +0.000 OA
ATOM     20  C   UNL     1      -2.971  15.153  23.846  0.00  0.00    +0.000 C 
ATOM     21  C   UNL     1      -2.159  14.456  22.746  0.00  0.00    +0.000 C 
ENDBRANCH  15  16
ENDBRANCH   4   6
BRANCH   1  26
ATOM     22  F   UNL     1       3.478   5.424  18.597  0.00  0.00    +0.000 F 
ATOM     23  C   UNL     1       2.828   6.569  18.835  0.00  0.00    +0.000 A 
ATOM     24  C   UNL     1       2.238   6.779  20.075  0.00  0.00    +0.000 A 
ATOM     25  C   UNL     1       1.591   7.990  20.336  0.00  0.00    +0.000 A 
ATOM     26  C   UNL     1       1.542   8.989  19.354  0.00  0.00    +0.000 A 
ATOM     27  C   UNL     1       2.108   8.746  18.093  0.00  0.00    +0.000 A 
ATOM     28  C   UNL     1       2.758   7.537  17.838  0.00  0.00    +0.000 A 
ENDBRANCH   1  26
BRANCH   3  29
ATOM     29  C   UNL     1       0.681  13.735  19.381  0.00  0.00    +0.000 A 
ATOM     30  C   UNL     1       1.972  14.197  19.073  0.00  0.00    +0.000 A 
ATOM     31  C   UNL     1       2.199  15.516  18.672  0.00  0.00    +0.000 A 
ATOM     32  C   UNL     1       1.135  16.403  18.609  0.00  0.00    +0.000 A 
ATOM     33  F   UNL     1       1.345  17.667  18.224  0.00  0.00    +0.000 F 
ATOM     34  C   UNL     1      -0.149  15.992  18.933  0.00  0.00    +0.000 A 
ATOM     35  C   UNL     1      -0.372  14.664  19.305  0.00  0.00    +0.000 A 
ENDBRANCH   3  29
TORSDOF 4
ENDMDL
MODEL 3
REMARK VINA RESULT:      -8.3      1.566      2.169
REMARK  Name = 
REMARK  4 active torsions:
REMARK  status: ('A' for Active; 'I' for Inactive)
REMARK    1  A    between atoms: C_5  and  C_6
REMARK    2  A    between atoms: N_8  and  C_9
REMARK    3  A    between atoms: C_16  and  C_17
REMARK    4  A    between atoms: C_26  and  N_27
REMARK                            x       y       z     vdW  Elec       q    Type
REMARK                         _______ _______ _______ _____ _____    ______ ____
ROOT
ATOM      1  C   UNL     1       2.139   8.880  18.564  0.00  0.00    +0.000 C 
ATOM      2  N   UNL     1       2.590  10.065  18.278  0.00  0.00    +0.000 NA
ATOM      3  N   UNL     1       1.787  10.961  18.922  0.00  0.00    +0.000 N 
ATOM      4  C   UNL     1       0.634  10.344  19.605  0.00  0.00    +0.000 C 
ATOM      5  C   UNL     1       0.946   8.854  19.477  0.00  0.00    +0.000 C 
ENDROOT
BRANCH   4   6
ATOM      6  C   UNL     1      -0.734  10.736  19.047  0.00  0.00    +0.000 A 
ATOM      7  C   UNL     1      -1.142  10.188  17.806  0.00  0.00    +0.000 A 
ATOM      8  C   UNL     1      -2.340  10.533  17.188  0.00  0.00    +0.000 A 
ATOM      9  C   UNL     1      -2.684  10.050  15.911  0.00  0.00    +0.000 A 
ATOM     10  C   UNL     1      -3.895  10.416  15.330  0.00  0.00    +0.000 A 
ATOM     11  C   UNL     1      -4.761  11.246  16.031  0.00  0.00    +0.000 A 
ATOM     12  C   UNL     1      -4.400  11.713  17.300  0.00  0.00    +0.000 A 
ATOM     13  C   UNL     1      -3.183  11.384  17.890  0.00  0.00    +0.000 A 
ATOM     14  N   UNL     1      -2.842  11.879  19.096  0.00  0.00    +0.000 NA
ATOM     15  C   UNL     1      -1.642  11.602  19.686  0.00  0.00    +0.000 A 
BRANCH  15  16
ATOM     16  N   UNL     1      -1.460  12.242  20.893  0.00  0.00    +0.000 N 
ATOM     17  C   UNL     1      -1.286  11.406  22.105  0.00  0.00    +0.000 C 
ATOM     18  C   UNL     1      -2.138  11.938  23.268  0.00  0.00    +0.000 C 
ATOM     19  O   UNL     1      -1.868  13.325  23.523  0.00  0.00    +0.000 OA
ATOM     20  C   UNL     1      -2.205  14.092  22.364  0.00  0.00    +0.000 C 
ATOM     21  C   UNL     1      -1.368  13.679  21.146  0.00  0.00    +0.000 C 
ENDBRANCH  15  16
ENDBRANCH   4   6
BRANCH   1  26
ATOM     22  F   UNL     1       4.524   4.074  16.928  0.00  0.00    +0.000 F 
ATOM     23  C   UNL     1       3.937   5.225  17.275  0.00  0.00    +0.000 A 
ATOM     24  C   UNL     1       2.725   5.200  17.956  0.00  0.00    +0.000 A 
ATOM     25  C   UNL     1       2.129   6.401  18.351  0.00  0.00    +0.000 A 
ATOM     26  C   UNL     1       2.753   7.624  18.067  0.00  0.00    +0.000 A 
ATOM     27  C   UNL     1       3.956   7.634  17.344  0.00  0.00    +0.000 A 
ATOM     28  C   UNL     1       4.551   6.432  16.956  0.00  0.00    +0.000 A 
ENDBRANCH   1  26
BRANCH   3  29
ATOM     29  C   UNL     1       2.115  12.318  18.976  0.00  0.00    +0.000 A 
ATOM     30  C   UNL     1       2.059  13.017  20.194  0.00  0.00    +0.000 A 
ATOM     31  C   UNL     1       2.494  14.341  20.297  0.00  0.00    +0.000 A 
ATOM     32  C   UNL     1       2.962  14.995  19.167  0.00  0.00    +0.000 A 
ATOM     33  F   UNL     1       3.383  16.262  19.258  0.00  0.00    +0.000 F 
ATOM     34  C   UNL     1       3.007  14.348  17.941  0.00  0.00    +0.000 A 
ATOM     35  C   UNL     1       2.596  13.015  17.853  0.00  0.00    +0.000 A 
ENDBRANCH   3  29
TORSDOF 4
ENDMDL
MODEL 4
REMARK VINA RESULT:      -8.2      0.999      1.317
REMARK  Name = 
REMARK  4 active torsions:
REMARK  status: ('A' for Active; 'I' for Inactive)
REMARK    1  A    between atoms: C_5  and  C_6
REMARK    2  A    between atoms: N_8  and  C_9
REMARK    3  A    between atoms: C_16  and  C_17
REMARK    4  A    between atoms: C_26  and  N_27
REMARK                            x       y       z     vdW  Elec       q    Type
REMARK                         _______ _______ _______ _____ _____    ______ ____
ROOT
ATOM      1  C   UNL     1       1.548   8.974  19.725  0.00  0.00    +0.000 C 
ATOM      2  N   UNL     1       2.083  10.026  19.180  0.00  0.00    +0.000 NA
ATOM      3  N   UNL     1       1.379  11.106  19.627  0.00  0.00    +0.000 N 
ATOM      4  C   UNL     1       0.205  10.752  20.448  0.00  0.00    +0.000 C 
ATOM      5  C   UNL     1       0.391   9.248  20.642  0.00  0.00    +0.000 C 
ENDROOT
BRANCH   4   6
ATOM      6  C   UNL     1      -1.146  11.132  19.841  0.00  0.00    +0.000 A 
ATOM      7  C   UNL     1      -1.504  10.581  18.586  0.00  0.00    +0.000 A 
ATOM      8  C   UNL     1      -2.682  10.914  17.926  0.00  0.00    +0.000 A 
ATOM      9  C   UNL     1      -2.976  10.428  16.638  0.00  0.00    +0.000 A 
ATOM     10  C   UNL     1      -4.169  10.783  16.013  0.00  0.00    +0.000 A 
ATOM     11  C   UNL     1      -5.067  11.605  16.683  0.00  0.00    +0.000 A 
ATOM     12  C   UNL     1      -4.756  12.076  17.964  0.00  0.00    +0.000 A 
ATOM     13  C   UNL     1      -3.558  11.758  18.597  0.00  0.00    +0.000 A 
ATOM     14  N   UNL     1      -3.265  12.256  19.814  0.00  0.00    +0.000 NA
ATOM     15  C   UNL     1      -2.085  11.990  20.446  0.00  0.00    +0.000 A 
BRANCH  15  16
ATOM     16  N   UNL     1      -1.951  12.632  21.659  0.00  0.00    +0.000 N 
ATOM     17  C   UNL     1      -2.317  11.884  22.886  0.00  0.00    +0.000 C 
ATOM     18  C   UNL     1      -3.162  12.754  23.830  0.00  0.00    +0.000 C 
ATOM     19  O   UNL     1      -2.506  13.996  24.126  0.00  0.00    +0.000 OA
ATOM     20  C   UNL     1      -2.324  14.735  22.916  0.00  0.00    +0.000 C 
ATOM     21  C   UNL     1      -1.442  13.978  21.914  0.00  0.00    +0.000 C 
ENDBRANCH  15  16
ENDBRANCH   4   6
BRANCH   1  26
ATOM     22  F   UNL     1       3.231   3.720  18.711  0.00  0.00    +0.000 F 
ATOM     23  C   UNL     1       2.869   4.981  18.978  0.00  0.00    +0.000 A 
ATOM     24  C   UNL     1       3.119   5.980  18.045  0.00  0.00    +0.000 A 
ATOM     25  C   UNL     1       2.708   7.289  18.308  0.00  0.00    +0.000 A 
ATOM     26  C   UNL     1       2.042   7.592  19.503  0.00  0.00    +0.000 A 
ATOM     27  C   UNL     1       1.833   6.580  20.453  0.00  0.00    +0.000 A 
ATOM     28  C   UNL     1       2.240   5.272  20.184  0.00  0.00    +0.000 A 
ENDBRANCH   1  26
BRANCH   3  29
ATOM     29  C   UNL     1       1.817  12.409  19.379  0.00  0.00    +0.000 A 
ATOM     30  C   UNL     1       2.389  12.746  18.140  0.00  0.00    +0.000 A 
ATOM     31  C   UNL     1       2.726  14.065  17.827  0.00  0.00    +0.000 A 
ATOM     32  C   UNL     1       2.525  15.063  18.768  0.00  0.00    +0.000 A 
ATOM     33  F   UNL     1       2.843  16.329  18.474  0.00  0.00    +0.000 F 
ATOM     34  C   UNL     1       1.989  14.766  20.012  0.00  0.00    +0.000 A 
ATOM     35  C   UNL     1       1.629  13.449  20.308  0.00  0.00    +0.000 A 
ENDBRANCH   3  29
TORSDOF 4
ENDMDL
MODEL 5
REMARK VINA RESULT:      -8.2      0.790      1.163
REMARK  Name = 
REMARK  4 active torsions:
REMARK  status: ('A' for Active; 'I' for Inactive)
REMARK    1  A    between atoms: C_5  and  C_6
REMARK    2  A    between atoms: N_8  and  C_9
REMARK    3  A    between atoms: C_16  and  C_17
REMARK    4  A    between atoms: C_26  and  N_27
REMARK                            x       y       z     vdW  Elec       q    Type
REMARK                         _______ _______ _______ _____ _____    ______ ____
ROOT
ATOM      1  C   UNL     1       1.594   9.526  19.287  0.00  0.00    +0.000 C 
ATOM      2  N   UNL     1       1.963  10.587  18.634  0.00  0.00    +0.000 NA
ATOM      3  N   UNL     1       1.298  11.643  19.184  0.00  0.00    +0.000 N 
ATOM      4  C   UNL     1       0.315  11.256  20.215  0.00  0.00    +0.000 C 
ATOM      5  C   UNL     1       0.612   9.768  20.398  0.00  0.00    +0.000 C 
ENDROOT
BRANCH   4   6
ATOM      6  C   UNL     1      -1.143  11.553  19.862  0.00  0.00    +0.000 A 
ATOM      7  C   UNL     1      -1.654  11.071  18.632  0.00  0.00    +0.000 A 
ATOM      8  C   UNL     1      -2.946  11.343  18.196  0.00  0.00    +0.000 A 
ATOM      9  C   UNL     1      -3.405  10.935  16.929  0.00  0.00    +0.000 A 
ATOM     10  C   UNL     1      -4.708  11.224  16.532  0.00  0.00    +0.000 A 
ATOM     11  C   UNL     1      -5.549  11.902  17.406  0.00  0.00    +0.000 A 
ATOM     12  C   UNL     1      -5.074  12.298  18.662  0.00  0.00    +0.000 A 
ATOM     13  C   UNL     1      -3.767  12.045  19.070  0.00  0.00    +0.000 A 
ATOM     14  N   UNL     1      -3.321  12.471  20.268  0.00  0.00    +0.000 NA
ATOM     15  C   UNL     1      -2.036  12.268  20.683  0.00  0.00    +0.000 A 
BRANCH  15  16
ATOM     16  N   UNL     1      -1.761  12.822  21.915  0.00  0.00    +0.000 N 
ATOM     17  C   UNL     1      -2.523  12.327  23.086  0.00  0.00    +0.000 C 
ATOM     18  C   UNL     1      -3.007  13.494  23.961  0.00  0.00    +0.000 C 
ATOM     19  O   UNL     1      -1.918  14.349  24.343  0.00  0.00    +0.000 OA
ATOM     20  C   UNL     1      -1.327  14.914  23.170  0.00  0.00    +0.000 C 
ATOM     21  C   UNL     1      -0.757  13.831  22.243  0.00  0.00    +0.000 C 
ENDBRANCH  15  16
ENDBRANCH   4   6
BRANCH   1  26
ATOM     22  F   UNL     1       3.725   4.415  18.390  0.00  0.00    +0.000 F 
ATOM     23  C   UNL     1       3.179   5.622  18.578  0.00  0.00    +0.000 A 
ATOM     24  C   UNL     1       2.479   5.885  19.750  0.00  0.00    +0.000 A 
ATOM     25  C   UNL     1       1.941   7.156  19.963  0.00  0.00    +0.000 A 
ATOM     26  C   UNL     1       2.110   8.164  19.003  0.00  0.00    +0.000 A 
ATOM     27  C   UNL     1       2.783   7.871  17.807  0.00  0.00    +0.000 A 
ATOM     28  C   UNL     1       3.325   6.601  17.600  0.00  0.00    +0.000 A 
ENDBRANCH   1  26
BRANCH   3  29
ATOM     29  C   UNL     1       1.614  12.959  18.836  0.00  0.00    +0.000 A 
ATOM     30  C   UNL     1       0.704  14.001  19.085  0.00  0.00    +0.000 A 
ATOM     31  C   UNL     1       1.044  15.337  18.856  0.00  0.00    +0.000 A 
ATOM     32  C   UNL     1       2.293  15.644  18.338  0.00  0.00    +0.000 A 
ATOM     33  F   UNL     1       2.627  16.921  18.118  0.00  0.00    +0.000 F 
ATOM     34  C   UNL     1       3.208  14.641  18.053  0.00  0.00    +0.000 A 
ATOM     35  C   UNL     1       2.871  13.310  18.312  0.00  0.00    +0.000 A 
ENDBRANCH   3  29
TORSDOF 4
ENDMDL
MODEL 6
REMARK VINA RESULT:      -8.1      1.422      1.827
REMARK  Name = 
REMARK  4 active torsions:
REMARK  status: ('A' for Active; 'I' for Inactive)
REMARK    1  A    between atoms: C_5  and  C_6
REMARK    2  A    between atoms: N_8  and  C_9
REMARK    3  A    between atoms: C_16  and  C_17
REMARK    4  A    between atoms: C_26  and  N_27
REMARK                            x       y       z     vdW  Elec       q    Type
REMARK                         _______ _______ _______ _____ _____    ______ ____
ROOT
ATOM      1  C   UNL     1       1.554   8.876  19.615  0.00  0.00    +0.000 C 
ATOM      2  N   UNL     1       2.124   9.950  19.156  0.00  0.00    +0.000 NA
ATOM      3  N   UNL     1       1.315  10.999  19.484  0.00  0.00    +0.000 N 
ATOM      4  C   UNL     1       0.043  10.596  20.114  0.00  0.00    +0.000 C 
ATOM      5  C   UNL     1       0.257   9.100  20.341  0.00  0.00    +0.000 C 
ENDROOT
BRANCH   4   6
ATOM      6  C   UNL     1      -1.212  10.922  19.303  0.00  0.00    +0.000 A 
ATOM      7  C   UNL     1      -1.397  10.279  18.054  0.00  0.00    +0.000 A 
ATOM      8  C   UNL     1      -2.473  10.556  17.218  0.00  0.00    +0.000 A 
ATOM      9  C   UNL     1      -2.591   9.976  15.940  0.00  0.00    +0.000 A 
ATOM     10  C   UNL     1      -3.686  10.277  15.135  0.00  0.00    +0.000 A 
ATOM     11  C   UNL     1      -4.664  11.139  15.615  0.00  0.00    +0.000 A 
ATOM     12  C   UNL     1      -4.529  11.704  16.889  0.00  0.00    +0.000 A 
ATOM     13  C   UNL     1      -3.430  11.440  17.700  0.00  0.00    +0.000 A 
ATOM     14  N   UNL     1      -3.303  12.027  18.906  0.00  0.00    +0.000 NA
ATOM     15  C   UNL     1      -2.221  11.815  19.711  0.00  0.00    +0.000 A 
BRANCH  15  16
ATOM     16  N   UNL     1      -2.252  12.544  20.881  0.00  0.00    +0.000 N 
ATOM     17  C   UNL     1      -2.473  14.007  20.784  0.00  0.00    +0.000 C 
ATOM     18  C   UNL     1      -1.498  14.772  21.693  0.00  0.00    +0.000 C 
ATOM     19  O   UNL     1      -1.565  14.301  23.048  0.00  0.00    +0.000 OA
ATOM     20  C   UNL     1      -1.190  12.923  23.088  0.00  0.00    +0.000 C 
ATOM     21  C   UNL     1      -2.136  12.051  22.252  0.00  0.00    +0.000 C 
ENDBRANCH  15  16
ENDBRANCH   4   6
BRANCH   1  26
ATOM     22  F   UNL     1       3.566   3.687  18.915  0.00  0.00    +0.000 F 
ATOM     23  C   UNL     1       3.123   4.935  19.109  0.00  0.00    +0.000 A 
ATOM     24  C   UNL     1       3.368   5.908  18.147  0.00  0.00    +0.000 A 
ATOM     25  C   UNL     1       2.874   7.202  18.332  0.00  0.00    +0.000 A 
ATOM     26  C   UNL     1       2.131   7.516  19.479  0.00  0.00    +0.000 A 
ATOM     27  C   UNL     1       1.928   6.533  20.460  0.00  0.00    +0.000 A 
ATOM     28  C   UNL     1       2.418   5.239  20.268  0.00  0.00    +0.000 A 
ENDBRANCH   1  26
BRANCH   3  29
ATOM     29  C   UNL     1       1.734  12.319  19.303  0.00  0.00    +0.000 A 
ATOM     30  C   UNL     1       1.521  13.280  20.307  0.00  0.00    +0.000 A 
ATOM     31  C   UNL     1       2.034  14.575  20.198  0.00  0.00    +0.000 A 
ATOM     32  C   UNL     1       2.740  14.936  19.061  0.00  0.00    +0.000 A 
ATOM     33  F   UNL     1       3.237  16.174  18.951  0.00  0.00    +0.000 F 
ATOM     34  C   UNL     1       2.947  14.025  18.036  0.00  0.00    +0.000 A 
ATOM     35  C   UNL     1       2.455  12.724  18.165  0.00  0.00    +0.000 A 
ENDBRANCH   3  29
TORSDOF 4
ENDMDL
MODEL 7
REMARK VINA RESULT:      -8.1      3.382      7.882
REMARK  Name = 
REMARK  4 active torsions:
REMARK  status: ('A' for Active; 'I' for Inactive)
REMARK    1  A    between atoms: C_5  and  C_6
REMARK    2  A    between atoms: N_8  and  C_9
REMARK    3  A    between atoms: C_16  and  C_17
REMARK    4  A    between atoms: C_26  and  N_27
REMARK                            x       y       z     vdW  Elec       q    Type
REMARK                         _______ _______ _______ _____ _____    ______ ____
ROOT
ATOM      1  C   UNL     1      -3.957  13.010  21.127  0.00  0.00    +0.000 C 
ATOM      2  N   UNL     1      -4.197  12.599  19.917  0.00  0.00    +0.000 NA
ATOM      3  N   UNL     1      -3.029  12.087  19.433  0.00  0.00    +0.000 N 
ATOM      4  C   UNL     1      -1.879  12.268  20.340  0.00  0.00    +0.000 C 
ATOM      5  C   UNL     1      -2.549  12.798  21.606  0.00  0.00    +0.000 C 
ENDROOT
BRANCH   4   6
ATOM      6  C   UNL     1      -0.770  13.175  19.805  0.00  0.00    +0.000 A 
ATOM      7  C   UNL     1      -1.075  14.533  19.540  0.00  0.00    +0.000 A 
ATOM      8  C   UNL     1      -0.151  15.419  18.995  0.00  0.00    +0.000 A 
ATOM      9  C   UNL     1      -0.499  16.739  18.652  0.00  0.00    +0.000 A 
ATOM     10  C   UNL     1       0.456  17.595  18.111  0.00  0.00    +0.000 A 
ATOM     11  C   UNL     1       1.755  17.135  17.932  0.00  0.00    +0.000 A 
ATOM     12  C   UNL     1       2.081  15.820  18.281  0.00  0.00    +0.000 A 
ATOM     13  C   UNL     1       1.137  14.937  18.797  0.00  0.00    +0.000 A 
ATOM     14  N   UNL     1       1.466  13.663  19.087  0.00  0.00    +0.000 NA
ATOM     15  C   UNL     1       0.555  12.764  19.562  0.00  0.00    +0.000 A 
BRANCH  15  16
ATOM     16  N   UNL     1       1.073  11.501  19.751  0.00  0.00    +0.000 N 
ATOM     17  C   UNL     1       1.766  10.855  18.610  0.00  0.00    +0.000 C 
ATOM     18  C   UNL     1       1.323   9.392  18.453  0.00  0.00    +0.000 C 
ATOM     19  O   UNL     1       1.493   8.659  19.677  0.00  0.00    +0.000 OA
ATOM     20  C   UNL     1       0.677   9.244  20.695  0.00  0.00    +0.000 C 
ATOM     21  C   UNL     1       1.072  10.700  20.974  0.00  0.00    +0.000 C 
ENDBRANCH  15  16
ENDBRANCH   4   6
BRANCH   1  26
ATOM     22  F   UNL     1      -7.916  15.455  24.259  0.00  0.00    +0.000 F 
ATOM     23  C   UNL     1      -6.965  14.841  23.546  0.00  0.00    +0.000 A 
ATOM     24  C   UNL     1      -7.325  13.914  22.575  0.00  0.00    +0.000 A 
ATOM     25  C   UNL     1      -6.333  13.299  21.805  0.00  0.00    +0.000 A 
ATOM     26  C   UNL     1      -4.984  13.620  22.008  0.00  0.00    +0.000 A 
ATOM     27  C   UNL     1      -4.634  14.527  23.019  0.00  0.00    +0.000 A 
ATOM     28  C   UNL     1      -5.628  15.144  23.782  0.00  0.00    +0.000 A 
ENDBRANCH   1  26
BRANCH   3  29
ATOM     29  C   UNL     1      -2.992  11.387  18.225  0.00  0.00    +0.000 A 
ATOM     30  C   UNL     1      -3.925  11.663  17.211  0.00  0.00    +0.000 A 
ATOM     31  C   UNL     1      -3.836  11.062  15.953  0.00  0.00    +0.000 A 
ATOM     32  C   UNL     1      -2.826  10.146  15.705  0.00  0.00    +0.000 A 
ATOM     33  F   UNL     1      -2.732   9.568  14.501  0.00  0.00    +0.000 F 
ATOM     34  C   UNL     1      -1.902   9.826  16.689  0.00  0.00    +0.000 A 
ATOM     35  C   UNL     1      -1.981  10.452  17.935  0.00  0.00    +0.000 A 
ENDBRANCH   3  29
TORSDOF 4
ENDMDL
MODEL 8
REMARK VINA RESULT:      -8.0      1.326      2.092
REMARK  Name = 
REMARK  4 active torsions:
REMARK  status: ('A' for Active; 'I' for Inactive)
REMARK    1  A    between atoms: C_5  and  C_6
REMARK    2  A    between atoms: N_8  and  C_9
REMARK    3  A    between atoms: C_16  and  C_17
REMARK    4  A    between atoms: C_26  and  N_27
REMARK                            x       y       z     vdW  Elec       q    Type
REMARK                         _______ _______ _______ _____ _____    ______ ____
ROOT
ATOM      1  C   UNL     1       1.559   8.882  19.480  0.00  0.00    +0.000 C 
ATOM      2  N   UNL     1       2.102   9.969  19.019  0.00  0.00    +0.000 NA
ATOM      3  N   UNL     1       1.286  11.002  19.377  0.00  0.00    +0.000 N 
ATOM      4  C   UNL     1       0.035  10.574  20.032  0.00  0.00    +0.000 C 
ATOM      5  C   UNL     1       0.277   9.079  20.238  0.00  0.00    +0.000 C 
ENDROOT
BRANCH   4   6
ATOM      6  C   UNL     1      -1.243  10.888  19.254  0.00  0.00    +0.000 A 
ATOM      7  C   UNL     1      -1.427  10.290  17.983  0.00  0.00    +0.000 A 
ATOM      8  C   UNL     1      -2.526  10.563  17.175  0.00  0.00    +0.000 A 
ATOM      9  C   UNL     1      -2.645  10.032  15.876  0.00  0.00    +0.000 A 
ATOM     10  C   UNL     1      -3.763  10.327  15.101  0.00  0.00    +0.000 A 
ATOM     11  C   UNL     1      -4.762  11.135  15.631  0.00  0.00    +0.000 A 
ATOM     12  C   UNL     1      -4.625  11.652  16.924  0.00  0.00    +0.000 A 
ATOM     13  C   UNL     1      -3.504  11.394  17.708  0.00  0.00    +0.000 A 
ATOM     14  N   UNL     1      -3.378  11.936  18.935  0.00  0.00    +0.000 NA
ATOM     15  C   UNL     1      -2.275  11.729  19.714  0.00  0.00    +0.000 A 
BRANCH  15  16
ATOM     16  N   UNL     1      -2.312  12.408  20.913  0.00  0.00    +0.000 N 
ATOM     17  C   UNL     1      -2.685  13.843  20.889  0.00  0.00    +0.000 C 
ATOM     18  C   UNL     1      -1.742  14.672  21.774  0.00  0.00    +0.000 C 
ATOM     19  O   UNL     1      -1.682  14.149  23.110  0.00  0.00    +0.000 OA
ATOM     20  C   UNL     1      -1.167  12.816  23.073  0.00  0.00    +0.000 C 
ATOM     21  C   UNL     1      -2.068  11.881  22.254  0.00  0.00    +0.000 C 
ENDBRANCH  15  16
ENDBRANCH   4   6
BRANCH   1  26
ATOM     22  F   UNL     1       3.965   3.833  19.053  0.00  0.00    +0.000 F 
ATOM     23  C   UNL     1       3.356   5.023  19.126  0.00  0.00    +0.000 A 
ATOM     24  C   UNL     1       2.527   5.305  20.205  0.00  0.00    +0.000 A 
ATOM     25  C   UNL     1       1.921   6.561  20.301  0.00  0.00    +0.000 A 
ATOM     26  C   UNL     1       2.153   7.532  19.317  0.00  0.00    +0.000 A 
ATOM     27  C   UNL     1       2.960   7.217  18.212  0.00  0.00    +0.000 A 
ATOM     28  C   UNL     1       3.568   5.963  18.124  0.00  0.00    +0.000 A 
ENDBRANCH   1  26
BRANCH   3  29
ATOM     29  C   UNL     1       1.680  12.331  19.198  0.00  0.00    +0.000 A 
ATOM     30  C   UNL     1       2.583  12.676  18.178  0.00  0.00    +0.000 A 
ATOM     31  C   UNL     1       2.900  14.009  17.905  0.00  0.00    +0.000 A 
ATOM     32  C   UNL     1       2.340  15.016  18.677  0.00  0.00    +0.000 A 
ATOM     33  F   UNL     1       2.638  16.295  18.420  0.00  0.00    +0.000 F 
ATOM     34  C   UNL     1       1.467  14.713  19.711  0.00  0.00    +0.000 A 
ATOM     35  C   UNL     1       1.133  13.380  19.959  0.00  0.00    +0.000 A 
ENDBRANCH   3  29
TORSDOF 4
ENDMDL
MODEL 9
REMARK VINA RESULT:      -8.0      3.227      8.022
REMARK  Name = 
REMARK  4 active torsions:
REMARK  status: ('A' for Active; 'I' for Inactive)
REMARK    1  A    between atoms: C_5  and  C_6
REMARK    2  A    between atoms: N_8  and  C_9
REMARK    3  A    between atoms: C_16  and  C_17
REMARK    4  A    between atoms: C_26  and  N_27
REMARK                            x       y       z     vdW  Elec       q    Type
REMARK                         _______ _______ _______ _____ _____    ______ ____
ROOT
ATOM      1  C   UNL     1      -3.114  12.877  21.023  0.00  0.00    +0.000 C 
ATOM      2  N   UNL     1      -3.517  12.680  19.803  0.00  0.00    +0.000 NA
ATOM      3  N   UNL     1      -2.579  11.897  19.196  0.00  0.00    +0.000 N 
ATOM      4  C   UNL     1      -1.391  11.637  20.032  0.00  0.00    +0.000 C 
ATOM      5  C   UNL     1      -1.817  12.210  21.382  0.00  0.00    +0.000 C 
ENDROOT
BRANCH   4   6
ATOM      6  C   UNL     1      -0.084  12.225  19.499  0.00  0.00    +0.000 A 
ATOM      7  C   UNL     1       0.053  13.634  19.446  0.00  0.00    +0.000 A 
ATOM      8  C   UNL     1       1.178  14.262  18.920  0.00  0.00    +0.000 A 
ATOM      9  C   UNL     1       1.256  15.662  18.789  0.00  0.00    +0.000 A 
ATOM     10  C   UNL     1       2.401  16.251  18.261  0.00  0.00    +0.000 A 
ATOM     11  C   UNL     1       3.467  15.443  17.883  0.00  0.00    +0.000 A 
ATOM     12  C   UNL     1       3.369  14.054  18.022  0.00  0.00    +0.000 A 
ATOM     13  C   UNL     1       2.224  13.440  18.521  0.00  0.00    +0.000 A 
ATOM     14  N   UNL     1       2.140  12.098  18.608  0.00  0.00    +0.000 NA
ATOM     15  C   UNL     1       1.018  11.465  19.061  0.00  0.00    +0.000 A 
BRANCH  15  16
ATOM     16  N   UNL     1       1.109  10.090  19.028  0.00  0.00    +0.000 N 
ATOM     17  C   UNL     1       0.730   9.338  20.248  0.00  0.00    +0.000 C 
ATOM     18  C   UNL     1       1.761   8.242  20.563  0.00  0.00    +0.000 C 
ATOM     19  O   UNL     1       1.968   7.378  19.434  0.00  0.00    +0.000 OA
ATOM     20  C   UNL     1       2.481   8.143  18.341  0.00  0.00    +0.000 C 
ATOM     21  C   UNL     1       1.500   9.240  17.905  0.00  0.00    +0.000 C 
ENDBRANCH  15  16
ENDBRANCH   4   6
BRANCH   1  26
ATOM     22  F   UNL     1      -6.168  15.898  24.630  0.00  0.00    +0.000 F 
ATOM     23  C   UNL     1      -5.410  15.166  23.804  0.00  0.00    +0.000 A 
ATOM     24  C   UNL     1      -5.781  13.860  23.508  0.00  0.00    +0.000 A 
ATOM     25  C   UNL     1      -5.010  13.108  22.617  0.00  0.00    +0.000 A 
ATOM     26  C   UNL     1      -3.872  13.670  22.022  0.00  0.00    +0.000 A 
ATOM     27  C   UNL     1      -3.488  14.976  22.363  0.00  0.00    +0.000 A 
ATOM     28  C   UNL     1      -4.265  15.726  23.249  0.00  0.00    +0.000 A 
ENDBRANCH   1  26
BRANCH   3  29
ATOM     29  C   UNL     1      -2.804  11.344  17.934  0.00  0.00    +0.000 A 
ATOM     30  C   UNL     1      -1.951  10.347  17.429  0.00  0.00    +0.000 A 
ATOM     31  C   UNL     1      -2.223   9.696  16.223  0.00  0.00    +0.000 A 
ATOM     32  C   UNL     1      -3.340  10.061  15.487  0.00  0.00    +0.000 A 
ATOM     33  F   UNL     1      -3.608   9.440  14.332  0.00  0.00    +0.000 F 
ATOM     34  C   UNL     1      -4.190  11.059  15.938  0.00  0.00    +0.000 A 
ATOM     35  C   UNL     1      -3.927  11.686  17.158  0.00  0.00    +0.000 A 
ENDBRANCH   3  29
TORSDOF 4
ENDMDL
