MODEL 1
REMARK VINA RESULT:      -9.8      0.000      0.000
REMARK  Name = 
REMARK  6 active torsions:
REMARK  status: ('A' for Active; 'I' for Inactive)
REMARK    1  A    between atoms: C_1  and  C_2
REMARK    2  A    between atoms: C_4  and  C_5
REMARK    3  A    between atoms: C_11  and  C_12
REMARK    4  A    between atoms: N_14  and  C_15
REMARK    5  A    between atoms: C_19  and  C_21
REMARK    6  A    between atoms: C_21  and  C_22
REMARK                            x       y       z     vdW  Elec       q    Type
REMARK                         _______ _______ _______ _____ _____    ______ ____
ROOT
ATOM      1  C   UNL     1       1.968   8.146  18.499  0.00  0.00    +0.000 C 
ATOM      2  O   UNL     1       2.309   8.403  17.348  0.00  0.00    +0.000 OA
ATOM      3  N   UNL     1       2.200   6.928  19.101  0.00  0.00    +0.000 N 
ATOM      4  H   UNL     1       1.691   6.702  19.944  0.00  0.00    +0.000 HD
ENDROOT
BRANCH   1  11
ATOM      5  C   UNL     1      -1.917  11.355  19.233  0.00  0.00    +0.000 A 
ATOM      6  N   UNL     1      -2.159  12.194  20.256  0.00  0.00    +0.000 NA
ATOM      7  N   UNL     1      -1.143  11.985  21.108  0.00  0.00    +0.000 N 
ATOM      8  C   UNL     1      -0.232  11.056  20.687  0.00  0.00    +0.000 A 
ATOM      9  C   UNL     1       0.944  10.572  21.270  0.00  0.00    +0.000 A 
ATOM     10  C   UNL     1       1.672   9.610  20.551  0.00  0.00    +0.000 A 
ATOM     11  C   UNL     1       1.229   9.161  19.300  0.00  0.00    +0.000 A 
ATOM     12  C   UNL     1       0.060   9.686  18.732  0.00  0.00    +0.000 A 
ATOM     13  C   UNL     1      -0.699  10.633  19.449  0.00  0.00    +0.000 A 
ATOM     14  H   UNL     1      -1.126  12.518  21.970  0.00  0.00    +0.000 HD
BRANCH   5  18
ATOM     15  C   UNL     1      -2.871  10.072  14.496  0.00  0.00    +0.000 C 
ATOM     16  C   UNL     1      -3.293  10.663  15.807  0.00  0.00    +0.000 A 
ATOM     17  C   UNL     1      -2.423  10.674  16.891  0.00  0.00    +0.000 A 
ATOM     18  C   UNL     1      -2.828  11.269  18.090  0.00  0.00    +0.000 A 
ATOM     19  C   UNL     1      -4.117  11.792  18.170  0.00  0.00    +0.000 A 
ATOM     20  C   UNL     1      -4.926  11.724  17.049  0.00  0.00    +0.000 A 
ATOM     21  N   UNL     1      -4.540  11.182  15.873  0.00  0.00    +0.000 NA
ENDBRANCH   5  18
ENDBRANCH   1  11
BRANCH   3  22
ATOM     22  C   UNL     1       2.828   5.835  18.370  0.00  0.00    +0.000 C 
ATOM     23  C   UNL     1       1.773   4.834  17.872  0.00  0.00    +0.000 C 
ATOM     24  C   UNL     1       2.388   3.571  17.271  0.00  0.00    +0.000 C 
ATOM     25  C   UNL     1       3.416   2.948  18.210  0.00  0.00    +0.000 C 
ATOM     26  C   UNL     1       4.520   3.939  18.596  0.00  0.00    +0.000 C 
ATOM     27  F   UNL     1       5.288   3.347  19.564  0.00  0.00    +0.000 F 
ATOM     28  C   UNL     1       3.878   5.165  19.256  0.00  0.00    +0.000 C 
BRANCH  26  29
ATOM     29  C   UNL     1       5.449   4.349  17.427  0.00  0.00    +0.000 C 
BRANCH  29  30
ATOM     30  C   UNL     1       6.352   5.527  17.708  0.00  0.00    +0.000 A 
ATOM     31  C   UNL     1       7.372   5.439  18.664  0.00  0.00    +0.000 A 
ATOM     32  C   UNL     1       8.214   6.526  18.911  0.00  0.00    +0.000 A 
ATOM     33  C   UNL     1       8.039   7.720  18.214  0.00  0.00    +0.000 A 
ATOM     34  C   UNL     1       7.014   7.831  17.277  0.00  0.00    +0.000 A 
ATOM     35  C   UNL     1       6.181   6.741  17.034  0.00  0.00    +0.000 A 
ATOM     36  F   UNL     1       5.201   6.874  16.128  0.00  0.00    +0.000 F 
ENDBRANCH  29  30
ENDBRANCH  26  29
ENDBRANCH   3  22
TORSDOF 5
ENDMDL
MODEL 2
REMARK VINA RESULT:      -9.6      3.810      9.198
REMARK  Name = 
REMARK  6 active torsions:
REMARK  status: ('A' for Active; 'I' for Inactive)
REMARK    1  A    between atoms: C_1  and  C_2
REMARK    2  A    between atoms: C_4  and  C_5
REMARK    3  A    between atoms: C_11  and  C_12
REMARK    4  A    between atoms: N_14  and  C_15
REMARK    5  A    between atoms: C_19  and  C_21
REMARK    6  A    between atoms: C_21  and  C_22
REMARK                            x       y       z     vdW  Elec       q    Type
REMARK                         _______ _______ _______ _____ _____    ______ ____
ROOT
ATOM      1  C   UNL     1       1.709   7.361  20.179  0.00  0.00    +0.000 C 
ATOM      2  O   UNL     1       2.335   8.169  19.500  0.00  0.00    +0.000 OA
ATOM      3  N   UNL     1       0.845   7.731  21.187  0.00  0.00    +0.000 N 
ATOM      4  H   UNL     1       0.555   7.031  21.855  0.00  0.00    +0.000 HD
ENDROOT
BRANCH   1  11
ATOM      5  C   UNL     1       4.122   3.389  18.097  0.00  0.00    +0.000 A 
ATOM      6  N   UNL     1       3.863   2.074  18.203  0.00  0.00    +0.000 NA
ATOM      7  N   UNL     1       2.813   2.005  19.035  0.00  0.00    +0.000 N 
ATOM      8  C   UNL     1       2.356   3.217  19.473  0.00  0.00    +0.000 A 
ATOM      9  C   UNL     1       1.302   3.563  20.326  0.00  0.00    +0.000 A 
ATOM     10  C   UNL     1       1.088   4.931  20.562  0.00  0.00    +0.000 A 
ATOM     11  C   UNL     1       1.901   5.900  19.962  0.00  0.00    +0.000 A 
ATOM     12  C   UNL     1       2.933   5.520  19.092  0.00  0.00    +0.000 A 
ATOM     13  C   UNL     1       3.182   4.152  18.862  0.00  0.00    +0.000 A 
ATOM     14  H   UNL     1       2.447   1.088  19.266  0.00  0.00    +0.000 HD
BRANCH   5  18
ATOM     15  C   UNL     1       6.324   4.008  13.651  0.00  0.00    +0.000 C 
ATOM     16  C   UNL     1       6.301   4.177  15.140  0.00  0.00    +0.000 A 
ATOM     17  C   UNL     1       5.206   3.751  15.883  0.00  0.00    +0.000 A 
ATOM     18  C   UNL     1       5.229   3.882  17.275  0.00  0.00    +0.000 A 
ATOM     19  C   UNL     1       6.337   4.485  17.868  0.00  0.00    +0.000 A 
ATOM     20  C   UNL     1       7.376   4.897  17.053  0.00  0.00    +0.000 A 
ATOM     21  N   UNL     1       7.386   4.748  15.710  0.00  0.00    +0.000 NA
ENDBRANCH   5  18
ENDBRANCH   1  11
BRANCH   3  22
ATOM     22  C   UNL     1       0.662   9.132  21.545  0.00  0.00    +0.000 C 
ATOM     23  C   UNL     1      -0.336   9.273  22.706  0.00  0.00    +0.000 C 
ATOM     24  C   UNL     1      -0.714  10.726  22.992  0.00  0.00    +0.000 C 
ATOM     25  C   UNL     1      -1.154  11.450  21.724  0.00  0.00    +0.000 C 
ATOM     26  C   UNL     1      -0.087  11.390  20.625  0.00  0.00    +0.000 C 
ATOM     27  F   UNL     1      -0.638  11.911  19.484  0.00  0.00    +0.000 F 
ATOM     28  C   UNL     1       0.222   9.921  20.313  0.00  0.00    +0.000 C 
BRANCH  26  29
ATOM     29  C   UNL     1       1.204  12.184  20.943  0.00  0.00    +0.000 C 
BRANCH  29  30
ATOM     30  C   UNL     1       1.398  13.444  20.133  0.00  0.00    +0.000 A 
ATOM     31  C   UNL     1       0.807  14.651  20.531  0.00  0.00    +0.000 A 
ATOM     32  C   UNL     1       1.000  15.818  19.787  0.00  0.00    +0.000 A 
ATOM     33  C   UNL     1       1.777  15.791  18.630  0.00  0.00    +0.000 A 
ATOM     34  C   UNL     1       2.351  14.593  18.209  0.00  0.00    +0.000 A 
ATOM     35  C   UNL     1       2.157  13.435  18.958  0.00  0.00    +0.000 A 
ATOM     36  F   UNL     1       2.719  12.294  18.531  0.00  0.00    +0.000 F 
ENDBRANCH  29  30
ENDBRANCH  26  29
ENDBRANCH   3  22
TORSDOF 5
ENDMDL
MODEL 3
REMARK VINA RESULT:      -9.5      3.750      9.109
REMARK  Name = 
REMARK  6 active torsions:
REMARK  status: ('A' for Active; 'I' for Inactive)
REMARK    1  A    between atoms: C_1  and  C_2
REMARK    2  A    between atoms: C_4  and  C_5
REMARK    3  A    between atoms: C_11  and  C_12
REMARK    4  A    between atoms: N_14  and  C_15
REMARK    5  A    between atoms: C_19  and  C_21
REMARK    6  A    between atoms: C_21  and  C_22
REMARK                            x       y       z     vdW  Elec       q    Type
REMARK                         _______ _______ _______ _____ _____    ______ ____
ROOT
ATOM      1  C   UNL     1       1.673   7.848  20.624  0.00  0.00    +0.000 C 
ATOM      2  O   UNL     1       1.840   8.163  21.799  0.00  0.00    +0.000 OA
ATOM      3  N   UNL     1       1.240   8.733  19.660  0.00  0.00    +0.000 N 
ATOM      4  H   UNL     1       0.896   8.362  18.786  0.00  0.00    +0.000 HD
ENDROOT
BRANCH   1  11
ATOM      5  C   UNL     1       4.222   4.276  18.040  0.00  0.00    +0.000 A 
ATOM      6  N   UNL     1       3.984   2.957  17.934  0.00  0.00    +0.000 NA
ATOM      7  N   UNL     1       2.909   2.747  18.709  0.00  0.00    +0.000 N 
ATOM      8  C   UNL     1       2.417   3.871  19.313  0.00  0.00    +0.000 A 
ATOM      9  C   UNL     1       1.330   4.068  20.172  0.00  0.00    +0.000 A 
ATOM     10  C   UNL     1       1.084   5.380  20.608  0.00  0.00    +0.000 A 
ATOM     11  C   UNL     1       1.899   6.441  20.192  0.00  0.00    +0.000 A 
ATOM     12  C   UNL     1       2.964   6.212  19.309  0.00  0.00    +0.000 A 
ATOM     13  C   UNL     1       3.244   4.900  18.881  0.00  0.00    +0.000 A 
ATOM     14  H   UNL     1       2.553   1.801  18.784  0.00  0.00    +0.000 HD
BRANCH   5  18
ATOM     15  C   UNL     1       7.779   7.778  17.754  0.00  0.00    +0.000 C 
ATOM     16  C   UNL     1       7.055   6.592  17.192  0.00  0.00    +0.000 A 
ATOM     17  C   UNL     1       6.032   5.983  17.909  0.00  0.00    +0.000 A 
ATOM     18  C   UNL     1       5.345   4.904  17.342  0.00  0.00    +0.000 A 
ATOM     19  C   UNL     1       5.747   4.444  16.090  0.00  0.00    +0.000 A 
ATOM     20  C   UNL     1       6.788   5.097  15.452  0.00  0.00    +0.000 A 
ATOM     21  N   UNL     1       7.440   6.161  15.970  0.00  0.00    +0.000 NA
ENDBRANCH   5  18
ENDBRANCH   1  11
BRANCH   3  22
ATOM     22  C   UNL     1       0.896  10.108  20.001  0.00  0.00    +0.000 C 
ATOM     23  C   UNL     1      -0.419  10.162  20.793  0.00  0.00    +0.000 C 
ATOM     24  C   UNL     1      -0.927  11.587  21.006  0.00  0.00    +0.000 C 
ATOM     25  C   UNL     1      -0.980  12.364  19.695  0.00  0.00    +0.000 C 
ATOM     26  C   UNL     1       0.379  12.390  18.985  0.00  0.00    +0.000 C 
ATOM     27  F   UNL     1       0.191  12.955  17.751  0.00  0.00    +0.000 F 
ATOM     28  C   UNL     1       0.831  10.948  18.726  0.00  0.00    +0.000 C 
BRANCH  26  29
ATOM     29  C   UNL     1       1.472  13.200  19.725  0.00  0.00    +0.000 C 
BRANCH  29  30
ATOM     30  C   UNL     1       1.964  14.429  18.996  0.00  0.00    +0.000 A 
ATOM     31  C   UNL     1       1.306  15.658  19.137  0.00  0.00    +0.000 A 
ATOM     32  C   UNL     1       1.772  16.796  18.473  0.00  0.00    +0.000 A 
ATOM     33  C   UNL     1       2.893  16.717  17.650  0.00  0.00    +0.000 A 
ATOM     34  C   UNL     1       3.544  15.496  17.481  0.00  0.00    +0.000 A 
ATOM     35  C   UNL     1       3.075  14.367  18.150  0.00  0.00    +0.000 A 
ATOM     36  F   UNL     1       3.718  13.204  17.969  0.00  0.00    +0.000 F 
ENDBRANCH  29  30
ENDBRANCH  26  29
ENDBRANCH   3  22
TORSDOF 5
ENDMDL
MODEL 4
REMARK VINA RESULT:      -9.5      0.381      1.192
REMARK  Name = 
REMARK  6 active torsions:
REMARK  status: ('A' for Active; 'I' for Inactive)
REMARK    1  A    between atoms: C_1  and  C_2
REMARK    2  A    between atoms: C_4  and  C_5
REMARK    3  A    between atoms: C_11  and  C_12
REMARK    4  A    between atoms: N_14  and  C_15
REMARK    5  A    between atoms: C_19  and  C_21
REMARK    6  A    between atoms: C_21  and  C_22
REMARK                            x       y       z     vdW  Elec       q    Type
REMARK                         _______ _______ _______ _____ _____    ______ ____
ROOT
ATOM      1  C   UNL     1       1.919   8.185  18.623  0.00  0.00    +0.000 C 
ATOM      2  O   UNL     1       2.228   8.467  17.470  0.00  0.00    +0.000 OA
ATOM      3  N   UNL     1       2.169   6.955  19.193  0.00  0.00    +0.000 N 
ATOM      4  H   UNL     1       1.683   6.710  20.044  0.00  0.00    +0.000 HD
ENDROOT
BRANCH   1  11
ATOM      5  C   UNL     1      -1.877  11.474  19.465  0.00  0.00    +0.000 A 
ATOM      6  N   UNL     1      -2.109  12.266  20.527  0.00  0.00    +0.000 NA
ATOM      7  N   UNL     1      -1.115  11.981  21.381  0.00  0.00    +0.000 N 
ATOM      8  C   UNL     1      -0.226  11.046  20.926  0.00  0.00    +0.000 A 
ATOM      9  C   UNL     1       0.924  10.496  21.501  0.00  0.00    +0.000 A 
ATOM     10  C   UNL     1       1.633   9.549  20.744  0.00  0.00    +0.000 A 
ATOM     11  C   UNL     1       1.198   9.180  19.464  0.00  0.00    +0.000 A 
ATOM     12  C   UNL     1       0.055   9.771  18.907  0.00  0.00    +0.000 A 
ATOM     13  C   UNL     1      -0.686  10.703  19.661  0.00  0.00    +0.000 A 
ATOM     14  H   UNL     1      -1.096  12.468  22.270  0.00  0.00    +0.000 HD
BRANCH   5  18
ATOM     15  C   UNL     1      -6.422  12.017  17.452  0.00  0.00    +0.000 C 
ATOM     16  C   UNL     1      -4.956  11.727  17.328  0.00  0.00    +0.000 A 
ATOM     17  C   UNL     1      -4.126  11.793  18.441  0.00  0.00    +0.000 A 
ATOM     18  C   UNL     1      -2.770  11.476  18.305  0.00  0.00    +0.000 A 
ATOM     19  C   UNL     1      -2.287  11.152  17.039  0.00  0.00    +0.000 A 
ATOM     20  C   UNL     1      -3.179  11.129  15.981  0.00  0.00    +0.000 A 
ATOM     21  N   UNL     1      -4.498  11.399  16.100  0.00  0.00    +0.000 NA
ENDBRANCH   5  18
ENDBRANCH   1  11
BRANCH   3  22
ATOM     22  C   UNL     1       2.780   5.879  18.422  0.00  0.00    +0.000 C 
ATOM     23  C   UNL     1       1.713   4.896  17.916  0.00  0.00    +0.000 C 
ATOM     24  C   UNL     1       2.313   3.647  17.271  0.00  0.00    +0.000 C 
ATOM     25  C   UNL     1       3.354   2.996  18.175  0.00  0.00    +0.000 C 
ATOM     26  C   UNL     1       4.469   3.973  18.569  0.00  0.00    +0.000 C 
ATOM     27  F   UNL     1       5.251   3.353  19.507  0.00  0.00    +0.000 F 
ATOM     28  C   UNL     1       3.843   5.183  19.272  0.00  0.00    +0.000 C 
BRANCH  26  29
ATOM     29  C   UNL     1       5.380   4.411  17.395  0.00  0.00    +0.000 C 
BRANCH  29  30
ATOM     30  C   UNL     1       6.322   5.551  17.705  0.00  0.00    +0.000 A 
ATOM     31  C   UNL     1       7.327   5.409  18.670  0.00  0.00    +0.000 A 
ATOM     32  C   UNL     1       8.206   6.460  18.944  0.00  0.00    +0.000 A 
ATOM     33  C   UNL     1       8.083   7.671  18.265  0.00  0.00    +0.000 A 
ATOM     34  C   UNL     1       7.073   7.835  17.319  0.00  0.00    +0.000 A 
ATOM     35  C   UNL     1       6.203   6.780  17.049  0.00  0.00    +0.000 A 
ATOM     36  F   UNL     1       5.238   6.964  16.136  0.00  0.00    +0.000 F 
ENDBRANCH  29  30
ENDBRANCH  26  29
ENDBRANCH   3  22
TORSDOF 5
ENDMDL
MODEL 5
REMARK VINA RESULT:      -9.5      4.010      9.178
REMARK  Name = 
REMARK  6 active torsions:
REMARK  status: ('A' for Active; 'I' for Inactive)
REMARK    1  A    between atoms: C_1  and  C_2
REMARK    2  A    between atoms: C_4  and  C_5
REMARK    3  A    between atoms: C_11  and  C_12
REMARK    4  A    between atoms: N_14  and  C_15
REMARK    5  A    between atoms: C_19  and  C_21
REMARK    6  A    between atoms: C_21  and  C_22
REMARK                            x       y       z     vdW  Elec       q    Type
REMARK                         _______ _______ _______ _____ _____    ______ ____
ROOT
ATOM      1  C   UNL     1       1.711   7.811  20.590  0.00  0.00    +0.000 C 
ATOM      2  O   UNL     1       1.913   8.138  21.755  0.00  0.00    +0.000 OA
ATOM      3  N   UNL     1       1.242   8.684  19.632  0.00  0.00    +0.000 N 
ATOM      4  H   UNL     1       0.873   8.303  18.772  0.00  0.00    +0.000 HD
ENDROOT
BRANCH   1  11
ATOM      5  C   UNL     1       4.233   4.216  18.013  0.00  0.00    +0.000 A 
ATOM      6  N   UNL     1       3.990   2.897  17.915  0.00  0.00    +0.000 NA
ATOM      7  N   UNL     1       2.919   2.695  18.698  0.00  0.00    +0.000 N 
ATOM      8  C   UNL     1       2.434   3.824  19.298  0.00  0.00    +0.000 A 
ATOM      9  C   UNL     1       1.353   4.030  20.162  0.00  0.00    +0.000 A 
ATOM     10  C   UNL     1       1.113   5.345  20.592  0.00  0.00    +0.000 A 
ATOM     11  C   UNL     1       1.929   6.401  20.165  0.00  0.00    +0.000 A 
ATOM     12  C   UNL     1       2.988   6.163  19.278  0.00  0.00    +0.000 A 
ATOM     13  C   UNL     1       3.262   4.848  18.855  0.00  0.00    +0.000 A 
ATOM     14  H   UNL     1       2.560   1.750  18.780  0.00  0.00    +0.000 HD
BRANCH   5  18
ATOM     15  C   UNL     1       7.744   7.756  17.644  0.00  0.00    +0.000 C 
ATOM     16  C   UNL     1       7.042   6.542  17.114  0.00  0.00    +0.000 A 
ATOM     17  C   UNL     1       6.021   5.942  17.842  0.00  0.00    +0.000 A 
ATOM     18  C   UNL     1       5.355   4.836  17.305  0.00  0.00    +0.000 A 
ATOM     19  C   UNL     1       5.776   4.340  16.072  0.00  0.00    +0.000 A 
ATOM     20  C   UNL     1       6.813   4.986  15.423  0.00  0.00    +0.000 A 
ATOM     21  N   UNL     1       7.446   6.076  15.911  0.00  0.00    +0.000 NA
ENDBRANCH   5  18
ENDBRANCH   1  11
BRANCH   3  22
ATOM     22  C   UNL     1       0.903  10.061  19.969  0.00  0.00    +0.000 C 
ATOM     23  C   UNL     1      -0.432  10.124  20.728  0.00  0.00    +0.000 C 
ATOM     24  C   UNL     1      -0.931  11.553  20.934  0.00  0.00    +0.000 C 
ATOM     25  C   UNL     1      -0.943  12.336  19.626  0.00  0.00    +0.000 C 
ATOM     26  C   UNL     1       0.433  12.352  18.950  0.00  0.00    +0.000 C 
ATOM     27  F   UNL     1       0.282  12.924  17.715  0.00  0.00    +0.000 F 
ATOM     28  C   UNL     1       0.879  10.907  18.696  0.00  0.00    +0.000 C 
BRANCH  26  29
ATOM     29  C   UNL     1       1.515  13.149  19.721  0.00  0.00    +0.000 C 
BRANCH  29  30
ATOM     30  C   UNL     1       2.070  14.349  18.991  0.00  0.00    +0.000 A 
ATOM     31  C   UNL     1       3.263  14.258  18.263  0.00  0.00    +0.000 A 
ATOM     32  C   UNL     1       3.766  15.368  17.577  0.00  0.00    +0.000 A 
ATOM     33  C   UNL     1       3.089  16.585  17.622  0.00  0.00    +0.000 A 
ATOM     34  C   UNL     1       1.914  16.697  18.362  0.00  0.00    +0.000 A 
ATOM     35  C   UNL     1       1.417  15.585  19.039  0.00  0.00    +0.000 A 
ATOM     36  F   UNL     1       0.285  15.719  19.746  0.00  0.00    +0.000 F 
ENDBRANCH  29  30
ENDBRANCH  26  29
ENDBRANCH   3  22
TORSDOF 5
ENDMDL
MODEL 6
REMARK VINA RESULT:      -9.5      3.500      9.529
REMARK  Name = 
REMARK  6 active torsions:
REMARK  status: ('A' for Active; 'I' for Inactive)
REMARK    1  A    between atoms: C_1  and  C_2
REMARK    2  A    between atoms: C_4  and  C_5
REMARK    3  A    between atoms: C_11  and  C_12
REMARK    4  A    between atoms: N_14  and  C_15
REMARK    5  A    between atoms: C_19  and  C_21
REMARK    6  A    between atoms: C_21  and  C_22
REMARK                            x       y       z     vdW  Elec       q    Type
REMARK                         _______ _______ _______ _____ _____    ______ ____
ROOT
ATOM      1  C   UNL     1       1.580   8.561  19.321  0.00  0.00    +0.000 C 
ATOM      2  O   UNL     1       1.755   9.050  18.209  0.00  0.00    +0.000 OA
ATOM      3  N   UNL     1       0.996   9.247  20.363  0.00  0.00    +0.000 N 
ATOM      4  H   UNL     1       1.100   8.882  21.300  0.00  0.00    +0.000 HD
ENDROOT
BRANCH   1  11
ATOM      5  C   UNL     1       4.563   4.533  18.426  0.00  0.00    +0.000 A 
ATOM      6  N   UNL     1       4.590   3.331  19.029  0.00  0.00    +0.000 NA
ATOM      7  N   UNL     1       3.654   3.416  19.986  0.00  0.00    +0.000 N 
ATOM      8  C   UNL     1       2.998   4.615  20.033  0.00  0.00    +0.000 A 
ATOM      9  C   UNL     1       1.974   5.086  20.863  0.00  0.00    +0.000 A 
ATOM     10  C   UNL     1       1.505   6.389  20.631  0.00  0.00    +0.000 A 
ATOM     11  C   UNL     1       2.047   7.176  19.606  0.00  0.00    +0.000 A 
ATOM     12  C   UNL     1       3.055   6.664  18.777  0.00  0.00    +0.000 A 
ATOM     13  C   UNL     1       3.558   5.369  19.009  0.00  0.00    +0.000 A 
ATOM     14  H   UNL     1       3.505   2.608  20.580  0.00  0.00    +0.000 HD
BRANCH   5  18
ATOM     15  C   UNL     1       6.118   3.853  13.722  0.00  0.00    +0.000 C 
ATOM     16  C   UNL     1       6.231   4.521  15.060  0.00  0.00    +0.000 A 
ATOM     17  C   UNL     1       5.316   4.243  16.069  0.00  0.00    +0.000 A 
ATOM     18  C   UNL     1       5.470   4.848  17.320  0.00  0.00    +0.000 A 
ATOM     19  C   UNL     1       6.515   5.753  17.497  0.00  0.00    +0.000 A 
ATOM     20  C   UNL     1       7.369   5.987  16.434  0.00  0.00    +0.000 A 
ATOM     21  N   UNL     1       7.256   5.387  15.229  0.00  0.00    +0.000 NA
ENDBRANCH   5  18
ENDBRANCH   1  11
BRANCH   3  22
ATOM     22  C   UNL     1       0.594  10.641  20.216  0.00  0.00    +0.000 C 
ATOM     23  C   UNL     1       1.620  11.578  20.873  0.00  0.00    +0.000 C 
ATOM     24  C   UNL     1       1.153  13.032  20.920  0.00  0.00    +0.000 C 
ATOM     25  C   UNL     1      -0.244  13.152  21.519  0.00  0.00    +0.000 C 
ATOM     26  C   UNL     1      -1.269  12.293  20.769  0.00  0.00    +0.000 C 
ATOM     27  F   UNL     1      -2.441  12.333  21.477  0.00  0.00    +0.000 F 
ATOM     28  C   UNL     1      -0.808  10.831  20.795  0.00  0.00    +0.000 C 
BRANCH  26  29
ATOM     29  C   UNL     1      -1.564  12.766  19.323  0.00  0.00    +0.000 C 
BRANCH  29  30
ATOM     30  C   UNL     1      -2.259  11.752  18.446  0.00  0.00    +0.000 A 
ATOM     31  C   UNL     1      -1.531  10.956  17.552  0.00  0.00    +0.000 A 
ATOM     32  C   UNL     1      -2.176  10.010  16.751  0.00  0.00    +0.000 A 
ATOM     33  C   UNL     1      -3.559   9.855  16.826  0.00  0.00    +0.000 A 
ATOM     34  C   UNL     1      -4.300  10.656  17.693  0.00  0.00    +0.000 A 
ATOM     35  C   UNL     1      -3.649  11.595  18.490  0.00  0.00    +0.000 A 
ATOM     36  F   UNL     1      -4.384  12.354  19.315  0.00  0.00    +0.000 F 
ENDBRANCH  29  30
ENDBRANCH  26  29
ENDBRANCH   3  22
TORSDOF 5
ENDMDL
MODEL 7
REMARK VINA RESULT:      -9.4      3.983      9.280
REMARK  Name = 
REMARK  6 active torsions:
REMARK  status: ('A' for Active; 'I' for Inactive)
REMARK    1  A    between atoms: C_1  and  C_2
REMARK    2  A    between atoms: C_4  and  C_5
REMARK    3  A    between atoms: C_11  and  C_12
REMARK    4  A    between atoms: N_14  and  C_15
REMARK    5  A    between atoms: C_19  and  C_21
REMARK    6  A    between atoms: C_21  and  C_22
REMARK                            x       y       z     vdW  Elec       q    Type
REMARK                         _______ _______ _______ _____ _____    ______ ____
ROOT
ATOM      1  C   UNL     1       1.688   7.423  20.162  0.00  0.00    +0.000 C 
ATOM      2  O   UNL     1       2.292   8.224  19.456  0.00  0.00    +0.000 OA
ATOM      3  N   UNL     1       0.849   7.804  21.187  0.00  0.00    +0.000 N 
ATOM      4  H   UNL     1       0.578   7.113  21.872  0.00  0.00    +0.000 HD
ENDROOT
BRANCH   1  11
ATOM      5  C   UNL     1       4.111   3.428  18.138  0.00  0.00    +0.000 A 
ATOM      6  N   UNL     1       3.849   2.114  18.254  0.00  0.00    +0.000 NA
ATOM      7  N   UNL     1       2.792   2.054  19.078  0.00  0.00    +0.000 N 
ATOM      8  C   UNL     1       2.334   3.271  19.501  0.00  0.00    +0.000 A 
ATOM      9  C   UNL     1       1.273   3.627  20.342  0.00  0.00    +0.000 A 
ATOM     10  C   UNL     1       1.059   4.998  20.563  0.00  0.00    +0.000 A 
ATOM     11  C   UNL     1       1.879   5.960  19.960  0.00  0.00    +0.000 A 
ATOM     12  C   UNL     1       2.917   5.569  19.103  0.00  0.00    +0.000 A 
ATOM     13  C   UNL     1       3.165   4.199  18.888  0.00  0.00    +0.000 A 
ATOM     14  H   UNL     1       2.422   1.140  19.315  0.00  0.00    +0.000 HD
BRANCH   5  18
ATOM     15  C   UNL     1       6.333   4.035  13.700  0.00  0.00    +0.000 C 
ATOM     16  C   UNL     1       6.307   4.200  15.190  0.00  0.00    +0.000 A 
ATOM     17  C   UNL     1       5.205   3.784  15.929  0.00  0.00    +0.000 A 
ATOM     18  C   UNL     1       5.225   3.911  17.321  0.00  0.00    +0.000 A 
ATOM     19  C   UNL     1       6.338   4.501  17.919  0.00  0.00    +0.000 A 
ATOM     20  C   UNL     1       7.384   4.904  17.108  0.00  0.00    +0.000 A 
ATOM     21  N   UNL     1       7.396   4.758  15.764  0.00  0.00    +0.000 NA
ENDBRANCH   5  18
ENDBRANCH   1  11
BRANCH   3  22
ATOM     22  C   UNL     1       0.670   9.210  21.530  0.00  0.00    +0.000 C 
ATOM     23  C   UNL     1      -0.358   9.369  22.662  0.00  0.00    +0.000 C 
ATOM     24  C   UNL     1      -0.728  10.828  22.928  0.00  0.00    +0.000 C 
ATOM     25  C   UNL     1      -1.127  11.546  21.644  0.00  0.00    +0.000 C 
ATOM     26  C   UNL     1      -0.032  11.468  20.574  0.00  0.00    +0.000 C 
ATOM     27  F   UNL     1      -0.546  11.986  19.415  0.00  0.00    +0.000 F 
ATOM     28  C   UNL     1       0.272   9.994  20.281  0.00  0.00    +0.000 C 
BRANCH  26  29
ATOM     29  C   UNL     1       1.259  12.251  20.921  0.00  0.00    +0.000 C 
BRANCH  29  30
ATOM     30  C   UNL     1       1.519  13.470  20.067  0.00  0.00    +0.000 A 
ATOM     31  C   UNL     1       2.428  13.420  19.003  0.00  0.00    +0.000 A 
ATOM     32  C   UNL     1       2.656  14.546  18.207  0.00  0.00    +0.000 A 
ATOM     33  C   UNL     1       1.986  15.739  18.472  0.00  0.00    +0.000 A 
ATOM     34  C   UNL     1       1.097  15.810  19.542  0.00  0.00    +0.000 A 
ATOM     35  C   UNL     1       0.872  14.683  20.329  0.00  0.00    +0.000 A 
ATOM     36  F   UNL     1       0.013  14.778  21.354  0.00  0.00    +0.000 F 
ENDBRANCH  29  30
ENDBRANCH  26  29
ENDBRANCH   3  22
TORSDOF 5
ENDMDL
MODEL 8
REMARK VINA RESULT:      -9.4      2.928      3.388
REMARK  Name = 
REMARK  6 active torsions:
REMARK  status: ('A' for Active; 'I' for Inactive)
REMARK    1  A    between atoms: C_1  and  C_2
REMARK    2  A    between atoms: C_4  and  C_5
REMARK    3  A    between atoms: C_11  and  C_12
REMARK    4  A    between atoms: N_14  and  C_15
REMARK    5  A    between atoms: C_19  and  C_21
REMARK    6  A    between atoms: C_21  and  C_22
REMARK                            x       y       z     vdW  Elec       q    Type
REMARK                         _______ _______ _______ _____ _____    ______ ____
ROOT
ATOM      1  C   UNL     1       1.898   7.862  19.424  0.00  0.00    +0.000 C 
ATOM      2  O   UNL     1       2.353   8.334  18.386  0.00  0.00    +0.000 OA
ATOM      3  N   UNL     1       1.987   6.525  19.747  0.00  0.00    +0.000 N 
ATOM      4  H   UNL     1       1.393   6.166  20.481  0.00  0.00    +0.000 HD
ENDROOT
BRANCH   1  11
ATOM      5  C   UNL     1       0.362  12.419  21.098  0.00  0.00    +0.000 A 
ATOM      6  N   UNL     1      -0.365  12.736  22.184  0.00  0.00    +0.000 NA
ATOM      7  N   UNL     1      -0.652  11.555  22.752  0.00  0.00    +0.000 N 
ATOM      8  C   UNL     1      -0.135  10.471  22.098  0.00  0.00    +0.000 A 
ATOM      9  C   UNL     1      -0.202   9.099  22.367  0.00  0.00    +0.000 A 
ATOM     10  C   UNL     1       0.467   8.235  21.485  0.00  0.00    +0.000 A 
ATOM     11  C   UNL     1       1.171   8.738  20.383  0.00  0.00    +0.000 A 
ATOM     12  C   UNL     1       1.240  10.120  20.157  0.00  0.00    +0.000 A 
ATOM     13  C   UNL     1       0.554  11.002  21.015  0.00  0.00    +0.000 A 
ATOM     14  H   UNL     1      -1.210  11.555  23.598  0.00  0.00    +0.000 HD
BRANCH   5  18
ATOM     15  C   UNL     1       4.097  14.608  18.597  0.00  0.00    +0.000 C 
ATOM     16  C   UNL     1       2.653  14.519  18.988  0.00  0.00    +0.000 A 
ATOM     17  C   UNL     1       2.204  13.488  19.806  0.00  0.00    +0.000 A 
ATOM     18  C   UNL     1       0.859  13.453  20.188  0.00  0.00    +0.000 A 
ATOM     19  C   UNL     1       0.001  14.432  19.692  0.00  0.00    +0.000 A 
ATOM     20  C   UNL     1       0.526  15.412  18.869  0.00  0.00    +0.000 A 
ATOM     21  N   UNL     1       1.829  15.481  18.515  0.00  0.00    +0.000 NA
ENDBRANCH   5  18
ENDBRANCH   1  11
BRANCH   3  22
ATOM     22  C   UNL     1       2.592   5.567  18.830  0.00  0.00    +0.000 C 
ATOM     23  C   UNL     1       1.561   4.521  18.375  0.00  0.00    +0.000 C 
ATOM     24  C   UNL     1       2.186   3.382  17.570  0.00  0.00    +0.000 C 
ATOM     25  C   UNL     1       3.383   2.776  18.294  0.00  0.00    +0.000 C 
ATOM     26  C   UNL     1       4.446   3.827  18.632  0.00  0.00    +0.000 C 
ATOM     27  F   UNL     1       5.389   3.224  19.422  0.00  0.00    +0.000 F 
ATOM     28  C   UNL     1       3.807   4.922  19.494  0.00  0.00    +0.000 C 
BRANCH  26  29
ATOM     29  C   UNL     1       5.165   4.428  17.398  0.00  0.00    +0.000 C 
BRANCH  29  30
ATOM     30  C   UNL     1       6.167   5.517  17.706  0.00  0.00    +0.000 A 
ATOM     31  C   UNL     1       7.179   5.314  18.653  0.00  0.00    +0.000 A 
ATOM     32  C   UNL     1       8.112   6.318  18.925  0.00  0.00    +0.000 A 
ATOM     33  C   UNL     1       8.037   7.542  18.263  0.00  0.00    +0.000 A 
ATOM     34  C   UNL     1       7.021   7.767  17.336  0.00  0.00    +0.000 A 
ATOM     35  C   UNL     1       6.097   6.759  17.068  0.00  0.00    +0.000 A 
ATOM     36  F   UNL     1       5.128   7.001  16.173  0.00  0.00    +0.000 F 
ENDBRANCH  29  30
ENDBRANCH  26  29
ENDBRANCH   3  22
TORSDOF 5
ENDMDL
MODEL 9
REMARK VINA RESULT:      -9.3      3.812      9.068
REMARK  Name = 
REMARK  6 active torsions:
REMARK  status: ('A' for Active; 'I' for Inactive)
REMARK    1  A    between atoms: C_1  and  C_2
REMARK    2  A    between atoms: C_4  and  C_5
REMARK    3  A    between atoms: C_11  and  C_12
REMARK    4  A    between atoms: N_14  and  C_15
REMARK    5  A    between atoms: C_19  and  C_21
REMARK    6  A    between atoms: C_21  and  C_22
REMARK                            x       y       z     vdW  Elec       q    Type
REMARK                         _______ _______ _______ _____ _____    ______ ____
ROOT
ATOM      1  C   UNL     1       1.654   7.865  20.659  0.00  0.00    +0.000 C 
ATOM      2  O   UNL     1       1.804   8.183  21.835  0.00  0.00    +0.000 OA
ATOM      3  N   UNL     1       1.235   8.747  19.686  0.00  0.00    +0.000 N 
ATOM      4  H   UNL     1       0.903   8.375  18.808  0.00  0.00    +0.000 HD
ENDROOT
BRANCH   1  11
ATOM      5  C   UNL     1       4.173   4.295  18.044  0.00  0.00    +0.000 A 
ATOM      6  N   UNL     1       3.947   2.972  17.956  0.00  0.00    +0.000 NA
ATOM      7  N   UNL     1       2.894   2.758  18.761  0.00  0.00    +0.000 N 
ATOM      8  C   UNL     1       2.406   3.883  19.366  0.00  0.00    +0.000 A 
ATOM      9  C   UNL     1       1.339   4.077  20.250  0.00  0.00    +0.000 A 
ATOM     10  C   UNL     1       1.090   5.391  20.680  0.00  0.00    +0.000 A 
ATOM     11  C   UNL     1       1.883   6.456  20.234  0.00  0.00    +0.000 A 
ATOM     12  C   UNL     1       2.927   6.230  19.327  0.00  0.00    +0.000 A 
ATOM     13  C   UNL     1       3.211   4.916  18.904  0.00  0.00    +0.000 A 
ATOM     14  H   UNL     1       2.550   1.809  18.853  0.00  0.00    +0.000 HD
BRANCH   5  18
ATOM     15  C   UNL     1       6.979   4.776  13.933  0.00  0.00    +0.000 C 
ATOM     16  C   UNL     1       6.634   5.160  15.341  0.00  0.00    +0.000 A 
ATOM     17  C   UNL     1       5.546   4.582  15.985  0.00  0.00    +0.000 A 
ATOM     18  C   UNL     1       5.272   4.928  17.312  0.00  0.00    +0.000 A 
ATOM     19  C   UNL     1       6.077   5.883  17.930  0.00  0.00    +0.000 A 
ATOM     20  C   UNL     1       7.129   6.422  17.211  0.00  0.00    +0.000 A 
ATOM     21  N   UNL     1       7.429   6.076  15.939  0.00  0.00    +0.000 NA
ENDBRANCH   5  18
ENDBRANCH   1  11
BRANCH   3  22
ATOM     22  C   UNL     1       0.889  10.124  20.017  0.00  0.00    +0.000 C 
ATOM     23  C   UNL     1      -0.431  10.181  20.803  0.00  0.00    +0.000 C 
ATOM     24  C   UNL     1      -0.941  11.607  21.005  0.00  0.00    +0.000 C 
ATOM     25  C   UNL     1      -0.986  12.377  19.690  0.00  0.00    +0.000 C 
ATOM     26  C   UNL     1       0.376  12.400  18.987  0.00  0.00    +0.000 C 
ATOM     27  F   UNL     1       0.194  12.959  17.749  0.00  0.00    +0.000 F 
ATOM     28  C   UNL     1       0.830  10.957  18.738  0.00  0.00    +0.000 C 
BRANCH  26  29
ATOM     29  C   UNL     1       1.465  13.215  19.728  0.00  0.00    +0.000 C 
BRANCH  29  30
ATOM     30  C   UNL     1       1.971  14.432  18.989  0.00  0.00    +0.000 A 
ATOM     31  C   UNL     1       1.333  15.671  19.126  0.00  0.00    +0.000 A 
ATOM     32  C   UNL     1       1.812  16.798  18.452  0.00  0.00    +0.000 A 
ATOM     33  C   UNL     1       2.927  16.696  17.623  0.00  0.00    +0.000 A 
ATOM     34  C   UNL     1       3.558  15.464  17.458  0.00  0.00    +0.000 A 
ATOM     35  C   UNL     1       3.076  14.347  18.136  0.00  0.00    +0.000 A 
ATOM     36  F   UNL     1       3.700  13.173  17.959  0.00  0.00    +0.000 F 
ENDBRANCH  29  30
ENDBRANCH  26  29
ENDBRANCH   3  22
TORSDOF 5
ENDMDL
