MODEL 1
REMARK VINA RESULT:      -6.7      0.000      0.000
REMARK  Name = 
REMARK  5 active torsions:
REMARK  status: ('A' for Active; 'I' for Inactive)
REMARK    1  A    between atoms: C_1  and  O_2
REMARK    2  A    between atoms: O_2  and  C_3
REMARK    3  A    between atoms: C_6  and  N_7
REMARK    4  A    between atoms: N_16  and  C_17
REMARK    5  A    between atoms: C_21  and  N_22
REMARK                            x       y       z     vdW  Elec       q    Type
REMARK                         _______ _______ _______ _____ _____    ______ ____
ROOT
ATOM      1  N   UNL     1      -3.767  11.861  17.683  0.00  0.00    +0.000 N 
ATOM      2  C   UNL     1      -4.791  11.969  18.637  0.00  0.00    +0.000 A 
ATOM      3  N   UNL     1      -6.042  11.703  18.241  0.00  0.00    +0.000 NA
ATOM      4  C   UNL     1      -7.013  11.817  19.172  0.00  0.00    +0.000 A 
ATOM      5  C   UNL     1      -6.800  12.197  20.486  0.00  0.00    +0.000 A 
ATOM      6  N   UNL     1      -7.873  12.265  21.390  0.00  0.00    +0.000 NA
ATOM      7  C   UNL     1      -7.581  12.576  22.615  0.00  0.00    +0.000 A 
ATOM      8  C   UNL     1      -6.191  12.871  23.105  0.00  0.00    +0.000 A 
ATOM      9  O   UNL     1      -6.084  13.129  24.304  0.00  0.00    +0.000 OA
ATOM     10  N   UNL     1      -5.192  12.860  22.143  0.00  0.00    +0.000 N 
ATOM     11  C   UNL     1      -5.480  12.476  20.799  0.00  0.00    +0.000 A 
ATOM     12  N   UNL     1      -4.484  12.353  19.894  0.00  0.00    +0.000 NA
ATOM     13  H   UNL     1      -4.154  11.421  16.853  0.00  0.00    +0.000 HD
ENDROOT
BRANCH   1  17
ATOM     14  C   UNL     1       0.249  10.756  18.466  0.00  0.00    +0.000 A 
ATOM     15  C   UNL     1      -0.636   9.846  17.894  0.00  0.00    +0.000 A 
ATOM     16  C   UNL     1      -1.954  10.213  17.622  0.00  0.00    +0.000 A 
ATOM     17  C   UNL     1      -2.435  11.488  17.952  0.00  0.00    +0.000 A 
ATOM     18  C   UNL     1      -1.531  12.406  18.498  0.00  0.00    +0.000 A 
ATOM     19  C   UNL     1      -0.203  12.039  18.770  0.00  0.00    +0.000 A 
BRANCH  14  21
ATOM     20  C   UNL     1       1.885   9.142  17.933  0.00  0.00    +0.000 C 
ATOM     21  O   UNL     1       1.517  10.293  18.686  0.00  0.00    +0.000 OA
ENDBRANCH  14  21
ENDBRANCH   1  17
BRANCH  10  22
ATOM     22  C   UNL     1      -3.849  13.166  22.494  0.00  0.00    +0.000 A 
ATOM     23  C   UNL     1      -2.961  12.156  22.879  0.00  0.00    +0.000 A 
ATOM     24  C   UNL     1      -1.634  12.468  23.179  0.00  0.00    +0.000 A 
ATOM     25  C   UNL     1      -1.199  13.795  23.131  0.00  0.00    +0.000 A 
ATOM     26  C   UNL     1      -2.082  14.821  22.786  0.00  0.00    +0.000 A 
ATOM     27  C   UNL     1      -3.383  14.486  22.400  0.00  0.00    +0.000 A 
BRANCH  26  28
ATOM     28  N   UNL     1      -1.610  16.129  22.612  0.00  0.00    +0.000 N 
ATOM     29  H   UNL     1      -2.033  16.615  21.828  0.00  0.00    +0.000 HD
ATOM     30  H   UNL     1      -0.597  16.201  22.608  0.00  0.00    +0.000 HD
ENDBRANCH  26  28
ENDBRANCH  10  22
TORSDOF 4
ENDMDL
MODEL 2
REMARK VINA RESULT:      -6.6      0.971      1.646
REMARK  Name = 
REMARK  5 active torsions:
REMARK  status: ('A' for Active; 'I' for Inactive)
REMARK    1  A    between atoms: C_1  and  O_2
REMARK    2  A    between atoms: O_2  and  C_3
REMARK    3  A    between atoms: C_6  and  N_7
REMARK    4  A    between atoms: N_16  and  C_17
REMARK    5  A    between atoms: C_21  and  N_22
REMARK                            x       y       z     vdW  Elec       q    Type
REMARK                         _______ _______ _______ _____ _____    ______ ____
ROOT
ATOM      1  N   UNL     1      -3.827  11.878  17.484  0.00  0.00    +0.000 N 
ATOM      2  C   UNL     1      -4.846  12.025  18.436  0.00  0.00    +0.000 A 
ATOM      3  N   UNL     1      -6.108  11.826  18.035  0.00  0.00    +0.000 NA
ATOM      4  C   UNL     1      -7.075  11.977  18.966  0.00  0.00    +0.000 A 
ATOM      5  C   UNL     1      -6.845  12.331  20.285  0.00  0.00    +0.000 A 
ATOM      6  N   UNL     1      -7.917  12.441  21.188  0.00  0.00    +0.000 NA
ATOM      7  C   UNL     1      -7.611  12.723  22.417  0.00  0.00    +0.000 A 
ATOM      8  C   UNL     1      -6.210  12.943  22.913  0.00  0.00    +0.000 A 
ATOM      9  O   UNL     1      -6.093  13.181  24.115  0.00  0.00    +0.000 OA
ATOM     10  N   UNL     1      -5.211  12.893  21.953  0.00  0.00    +0.000 N 
ATOM     11  C   UNL     1      -5.514  12.540  20.603  0.00  0.00    +0.000 A 
ATOM     12  N   UNL     1      -4.523  12.379  19.699  0.00  0.00    +0.000 NA
ATOM     13  H   UNL     1      -4.233  11.467  16.648  0.00  0.00    +0.000 HD
ENDROOT
BRANCH   1  17
ATOM     14  C   UNL     1       0.105  10.526  18.308  0.00  0.00    +0.000 A 
ATOM     15  C   UNL     1      -0.298  11.803  18.691  0.00  0.00    +0.000 A 
ATOM     16  C   UNL     1      -1.597  12.243  18.433  0.00  0.00    +0.000 A 
ATOM     17  C   UNL     1      -2.515  11.435  17.750  0.00  0.00    +0.000 A 
ATOM     18  C   UNL     1      -2.112  10.142  17.396  0.00  0.00    +0.000 A 
ATOM     19  C   UNL     1      -0.806   9.696  17.657  0.00  0.00    +0.000 A 
BRANCH  14  21
ATOM     20  C   UNL     1       1.892   9.023  17.974  0.00  0.00    +0.000 C 
ATOM     21  O   UNL     1       1.397  10.195  18.612  0.00  0.00    +0.000 OA
ENDBRANCH  14  21
ENDBRANCH   1  17
BRANCH  10  22
ATOM     22  C   UNL     1      -3.855  13.128  22.310  0.00  0.00    +0.000 A 
ATOM     23  C   UNL     1      -3.380  14.429  22.504  0.00  0.00    +0.000 A 
ATOM     24  C   UNL     1      -2.058  14.640  22.897  0.00  0.00    +0.000 A 
ATOM     25  C   UNL     1      -1.195  13.554  23.064  0.00  0.00    +0.000 A 
ATOM     26  C   UNL     1      -1.642  12.250  22.837  0.00  0.00    +0.000 A 
ATOM     27  C   UNL     1      -2.991  12.045  22.533  0.00  0.00    +0.000 A 
BRANCH  26  28
ATOM     28  N   UNL     1      -0.812  11.160  23.131  0.00  0.00    +0.000 N 
ATOM     29  H   UNL     1      -0.915  10.812  24.079  0.00  0.00    +0.000 HD
ATOM     30  H   UNL     1       0.161  11.305  22.880  0.00  0.00    +0.000 HD
ENDBRANCH  26  28
ENDBRANCH  10  22
TORSDOF 4
ENDMDL
MODEL 3
REMARK VINA RESULT:      -6.5      6.874     10.940
REMARK  Name = 
REMARK  5 active torsions:
REMARK  status: ('A' for Active; 'I' for Inactive)
REMARK    1  A    between atoms: C_1  and  O_2
REMARK    2  A    between atoms: O_2  and  C_3
REMARK    3  A    between atoms: C_6  and  N_7
REMARK    4  A    between atoms: N_16  and  C_17
REMARK    5  A    between atoms: C_21  and  N_22
REMARK                            x       y       z     vdW  Elec       q    Type
REMARK                         _______ _______ _______ _____ _____    ______ ____
ROOT
ATOM      1  N   UNL     1       1.351   6.888  20.833  0.00  0.00    +0.000 N 
ATOM      2  C   UNL     1       1.653   5.597  20.371  0.00  0.00    +0.000 A 
ATOM      3  N   UNL     1       0.891   4.586  20.807  0.00  0.00    +0.000 NA
ATOM      4  C   UNL     1       1.200   3.351  20.354  0.00  0.00    +0.000 A 
ATOM      5  C   UNL     1       2.245   3.071  19.492  0.00  0.00    +0.000 A 
ATOM      6  N   UNL     1       2.475   1.754  19.057  0.00  0.00    +0.000 NA
ATOM      7  C   UNL     1       3.440   1.585  18.207  0.00  0.00    +0.000 A 
ATOM      8  C   UNL     1       4.312   2.692  17.684  0.00  0.00    +0.000 A 
ATOM      9  O   UNL     1       5.170   2.362  16.865  0.00  0.00    +0.000 OA
ATOM     10  N   UNL     1       4.078   3.952  18.213  0.00  0.00    +0.000 N 
ATOM     11  C   UNL     1       2.994   4.173  19.114  0.00  0.00    +0.000 A 
ATOM     12  N   UNL     1       2.698   5.423  19.534  0.00  0.00    +0.000 NA
ATOM     13  H   UNL     1       0.459   6.849  21.318  0.00  0.00    +0.000 HD
ENDROOT
BRANCH   1  17
ATOM     14  C   UNL     1       1.916  10.480  18.656  0.00  0.00    +0.000 A 
ATOM     15  C   UNL     1       2.354   9.264  18.138  0.00  0.00    +0.000 A 
ATOM     16  C   UNL     1       2.155   8.079  18.847  0.00  0.00    +0.000 A 
ATOM     17  C   UNL     1       1.550   8.082  20.111  0.00  0.00    +0.000 A 
ATOM     18  C   UNL     1       1.086   9.305  20.611  0.00  0.00    +0.000 A 
ATOM     19  C   UNL     1       1.283  10.497  19.897  0.00  0.00    +0.000 A 
BRANCH  14  21
ATOM     20  C   UNL     1       2.245  12.815  18.578  0.00  0.00    +0.000 C 
ATOM     21  O   UNL     1       2.159  11.578  17.878  0.00  0.00    +0.000 OA
ENDBRANCH  14  21
ENDBRANCH   1  17
BRANCH  10  22
ATOM     22  C   UNL     1       4.874   5.060  17.815  0.00  0.00    +0.000 A 
ATOM     23  C   UNL     1       4.448   5.920  16.798  0.00  0.00    +0.000 A 
ATOM     24  C   UNL     1       5.221   7.029  16.449  0.00  0.00    +0.000 A 
ATOM     25  C   UNL     1       6.440   7.262  17.090  0.00  0.00    +0.000 A 
ATOM     26  C   UNL     1       6.900   6.392  18.081  0.00  0.00    +0.000 A 
ATOM     27  C   UNL     1       6.075   5.337  18.485  0.00  0.00    +0.000 A 
BRANCH  26  28
ATOM     28  N   UNL     1       8.056   6.701  18.810  0.00  0.00    +0.000 N 
ATOM     29  H   UNL     1       8.882   6.826  18.233  0.00  0.00    +0.000 HD
ATOM     30  H   UNL     1       8.226   6.077  19.592  0.00  0.00    +0.000 HD
ENDBRANCH  26  28
ENDBRANCH  10  22
TORSDOF 4
ENDMDL
MODEL 4
REMARK VINA RESULT:      -6.5      9.940     12.135
REMARK  Name = 
REMARK  5 active torsions:
REMARK  status: ('A' for Active; 'I' for Inactive)
REMARK    1  A    between atoms: C_1  and  O_2
REMARK    2  A    between atoms: O_2  and  C_3
REMARK    3  A    between atoms: C_6  and  N_7
REMARK    4  A    between atoms: N_16  and  C_17
REMARK    5  A    between atoms: C_21  and  N_22
REMARK                            x       y       z     vdW  Elec       q    Type
REMARK                         _______ _______ _______ _____ _____    ______ ____
ROOT
ATOM      1  N   UNL     1       8.997  10.903  21.630  0.00  0.00    +0.000 N 
ATOM      2  C   UNL     1       8.258  11.742  22.477  0.00  0.00    +0.000 A 
ATOM      3  N   UNL     1       8.112  11.367  23.754  0.00  0.00    +0.000 NA
ATOM      4  C   UNL     1       7.393  12.186  24.552  0.00  0.00    +0.000 A 
ATOM      5  C   UNL     1       6.798  13.364  24.134  0.00  0.00    +0.000 A 
ATOM      6  N   UNL     1       6.088  14.164  25.046  0.00  0.00    +0.000 NA
ATOM      7  C   UNL     1       5.608  15.279  24.587  0.00  0.00    +0.000 A 
ATOM      8  C   UNL     1       5.758  15.744  23.166  0.00  0.00    +0.000 A 
ATOM      9  O   UNL     1       5.260  16.838  22.900  0.00  0.00    +0.000 OA
ATOM     10  N   UNL     1       6.404  14.870  22.305  0.00  0.00    +0.000 N 
ATOM     11  C   UNL     1       6.981  13.659  22.794  0.00  0.00    +0.000 A 
ATOM     12  N   UNL     1       7.710  12.870  21.975  0.00  0.00    +0.000 NA
ATOM     13  H   UNL     1       9.453  10.198  22.203  0.00  0.00    +0.000 HD
ENDROOT
BRANCH   1  17
ATOM     14  C   UNL     1      11.343  12.146  18.326  0.00  0.00    +0.000 A 
ATOM     15  C   UNL     1      11.726  12.467  19.626  0.00  0.00    +0.000 A 
ATOM     16  C   UNL     1      10.963  12.046  20.715  0.00  0.00    +0.000 A 
ATOM     17  C   UNL     1       9.774  11.326  20.533  0.00  0.00    +0.000 A 
ATOM     18  C   UNL     1       9.413  10.981  19.225  0.00  0.00    +0.000 A 
ATOM     19  C   UNL     1      10.182  11.402  18.129  0.00  0.00    +0.000 A 
BRANCH  14  21
ATOM     20  C   UNL     1      12.333  14.018  17.288  0.00  0.00    +0.000 C 
ATOM     21  O   UNL     1      12.165  12.605  17.334  0.00  0.00    +0.000 OA
ENDBRANCH  14  21
ENDBRANCH   1  17
BRANCH  10  22
ATOM     22  C   UNL     1       6.562  15.197  20.931  0.00  0.00    +0.000 A 
ATOM     23  C   UNL     1       7.718  15.839  20.475  0.00  0.00    +0.000 A 
ATOM     24  C   UNL     1       7.877  16.114  19.115  0.00  0.00    +0.000 A 
ATOM     25  C   UNL     1       6.865  15.780  18.211  0.00  0.00    +0.000 A 
ATOM     26  C   UNL     1       5.687  15.173  18.654  0.00  0.00    +0.000 A 
ATOM     27  C   UNL     1       5.579  14.820  20.003  0.00  0.00    +0.000 A 
BRANCH  26  28
ATOM     28  N   UNL     1       4.735  14.723  17.729  0.00  0.00    +0.000 N 
ATOM     29  H   UNL     1       5.134  14.429  16.843  0.00  0.00    +0.000 HD
ATOM     30  H   UNL     1       3.952  15.356  17.607  0.00  0.00    +0.000 HD
ENDBRANCH  26  28
ENDBRANCH  10  22
TORSDOF 4
ENDMDL
MODEL 5
REMARK VINA RESULT:      -6.4      2.043      4.531
REMARK  Name = 
REMARK  5 active torsions:
REMARK  status: ('A' for Active; 'I' for Inactive)
REMARK    1  A    between atoms: C_1  and  O_2
REMARK    2  A    between atoms: O_2  and  C_3
REMARK    3  A    between atoms: C_6  and  N_7
REMARK    4  A    between atoms: N_16  and  C_17
REMARK    5  A    between atoms: C_21  and  N_22
REMARK                            x       y       z     vdW  Elec       q    Type
REMARK                         _______ _______ _______ _____ _____    ______ ____
ROOT
ATOM      1  N   UNL     1      -1.603  11.605  22.842  0.00  0.00    +0.000 N 
ATOM      2  C   UNL     1      -2.706  12.448  23.053  0.00  0.00    +0.000 A 
ATOM      3  N   UNL     1      -2.692  13.231  24.138  0.00  0.00    +0.000 NA
ATOM      4  C   UNL     1      -3.764  14.031  24.325  0.00  0.00    +0.000 A 
ATOM      5  C   UNL     1      -4.862  14.081  23.484  0.00  0.00    +0.000 A 
ATOM      6  N   UNL     1      -5.923  14.965  23.749  0.00  0.00    +0.000 NA
ATOM      7  C   UNL     1      -6.888  14.989  22.883  0.00  0.00    +0.000 A 
ATOM      8  C   UNL     1      -6.938  14.136  21.647  0.00  0.00    +0.000 A 
ATOM      9  O   UNL     1      -7.916  14.298  20.918  0.00  0.00    +0.000 OA
ATOM     10  N   UNL     1      -5.896  13.234  21.488  0.00  0.00    +0.000 N 
ATOM     11  C   UNL     1      -4.800  13.219  22.402  0.00  0.00    +0.000 A 
ATOM     12  N   UNL     1      -3.734  12.421  22.177  0.00  0.00    +0.000 NA
ATOM     13  H   UNL     1      -0.875  11.868  23.500  0.00  0.00    +0.000 HD
ENDROOT
BRANCH   1  17
ATOM     14  C   UNL     1      -0.147  10.384  19.054  0.00  0.00    +0.000 A 
ATOM     15  C   UNL     1       0.253   9.722  20.212  0.00  0.00    +0.000 A 
ATOM     16  C   UNL     1      -0.237  10.114  21.457  0.00  0.00    +0.000 A 
ATOM     17  C   UNL     1      -1.109  11.203  21.584  0.00  0.00    +0.000 A 
ATOM     18  C   UNL     1      -1.530  11.844  20.413  0.00  0.00    +0.000 A 
ATOM     19  C   UNL     1      -1.040  11.449  19.158  0.00  0.00    +0.000 A 
BRANCH  14  21
ATOM     20  C   UNL     1       1.544   9.094  18.034  0.00  0.00    +0.000 C 
ATOM     21  O   UNL     1       0.391   9.916  17.886  0.00  0.00    +0.000 OA
ENDBRANCH  14  21
ENDBRANCH   1  17
BRANCH  10  22
ATOM     22  C   UNL     1      -5.870  12.352  20.374  0.00  0.00    +0.000 A 
ATOM     23  C   UNL     1      -4.987  12.567  19.310  0.00  0.00    +0.000 A 
ATOM     24  C   UNL     1      -4.943  11.668  18.244  0.00  0.00    +0.000 A 
ATOM     25  C   UNL     1      -5.807  10.569  18.218  0.00  0.00    +0.000 A 
ATOM     26  C   UNL     1      -6.722  10.361  19.253  0.00  0.00    +0.000 A 
ATOM     27  C   UNL     1      -6.694  11.216  20.358  0.00  0.00    +0.000 A 
BRANCH  26  28
ATOM     28  N   UNL     1      -7.493   9.191  19.287  0.00  0.00    +0.000 N 
ATOM     29  H   UNL     1      -7.873   8.925  18.384  0.00  0.00    +0.000 HD
ATOM     30  H   UNL     1      -8.198   9.186  20.017  0.00  0.00    +0.000 HD
ENDBRANCH  26  28
ENDBRANCH  10  22
TORSDOF 4
ENDMDL
MODEL 6
REMARK VINA RESULT:      -6.4     10.786     13.889
REMARK  Name = 
REMARK  5 active torsions:
REMARK  status: ('A' for Active; 'I' for Inactive)
REMARK    1  A    between atoms: C_1  and  O_2
REMARK    2  A    between atoms: O_2  and  C_3
REMARK    3  A    between atoms: C_6  and  N_7
REMARK    4  A    between atoms: N_16  and  C_17
REMARK    5  A    between atoms: C_21  and  N_22
REMARK                            x       y       z     vdW  Elec       q    Type
REMARK                         _______ _______ _______ _____ _____    ______ ____
ROOT
ATOM      1  N   UNL     1       6.721  15.851  21.198  0.00  0.00    +0.000 N 
ATOM      2  C   UNL     1       7.622  16.109  20.153  0.00  0.00    +0.000 A 
ATOM      3  N   UNL     1       7.656  17.349  19.651  0.00  0.00    +0.000 NA
ATOM      4  C   UNL     1       8.527  17.575  18.643  0.00  0.00    +0.000 A 
ATOM      5  C   UNL     1       9.364  16.616  18.101  0.00  0.00    +0.000 A 
ATOM      6  N   UNL     1      10.256  16.953  17.067  0.00  0.00    +0.000 NA
ATOM      7  C   UNL     1      11.044  16.010  16.652  0.00  0.00    +0.000 A 
ATOM      8  C   UNL     1      11.047  14.608  17.194  0.00  0.00    +0.000 A 
ATOM      9  O   UNL     1      11.875  13.841  16.703  0.00  0.00    +0.000 OA
ATOM     10  N   UNL     1      10.091  14.327  18.159  0.00  0.00    +0.000 N 
ATOM     11  C   UNL     1       9.243  15.358  18.665  0.00  0.00    +0.000 A 
ATOM     12  N   UNL     1       8.395  15.104  19.686  0.00  0.00    +0.000 NA
ATOM     13  H   UNL     1       6.344  16.740  21.515  0.00  0.00    +0.000 HD
ENDROOT
BRANCH   1  17
ATOM     14  C   UNL     1       7.334  13.033  24.303  0.00  0.00    +0.000 A 
ATOM     15  C   UNL     1       6.306  12.855  23.380  0.00  0.00    +0.000 A 
ATOM     16  C   UNL     1       6.112  13.775  22.349  0.00  0.00    +0.000 A 
ATOM     17  C   UNL     1       6.916  14.917  22.235  0.00  0.00    +0.000 A 
ATOM     18  C   UNL     1       7.966  15.072  23.148  0.00  0.00    +0.000 A 
ATOM     19  C   UNL     1       8.163  14.146  24.185  0.00  0.00    +0.000 A 
BRANCH  14  21
ATOM     20  C   UNL     1       6.229  11.377  25.569  0.00  0.00    +0.000 C 
ATOM     21  O   UNL     1       7.436  12.070  25.270  0.00  0.00    +0.000 OA
ENDBRANCH  14  21
ENDBRANCH   1  17
BRANCH  10  22
ATOM     22  C   UNL     1       9.983  13.021  18.707  0.00  0.00    +0.000 A 
ATOM     23  C   UNL     1      10.567  12.711  19.940  0.00  0.00    +0.000 A 
ATOM     24  C   UNL     1      10.414  11.435  20.486  0.00  0.00    +0.000 A 
ATOM     25  C   UNL     1       9.709  10.453  19.785  0.00  0.00    +0.000 A 
ATOM     26  C   UNL     1       9.153  10.734  18.535  0.00  0.00    +0.000 A 
ATOM     27  C   UNL     1       9.234  12.040  18.041  0.00  0.00    +0.000 A 
BRANCH  26  28
ATOM     28  N   UNL     1       8.338   9.789  17.898  0.00  0.00    +0.000 N 
ATOM     29  H   UNL     1       8.835   8.955  17.600  0.00  0.00    +0.000 HD
ATOM     30  H   UNL     1       7.763  10.177  17.157  0.00  0.00    +0.000 HD
ENDBRANCH  26  28
ENDBRANCH  10  22
TORSDOF 4
ENDMDL
MODEL 7
REMARK VINA RESULT:      -6.3      1.983      4.399
REMARK  Name = 
REMARK  5 active torsions:
REMARK  status: ('A' for Active; 'I' for Inactive)
REMARK    1  A    between atoms: C_1  and  O_2
REMARK    2  A    between atoms: O_2  and  C_3
REMARK    3  A    between atoms: C_6  and  N_7
REMARK    4  A    between atoms: N_16  and  C_17
REMARK    5  A    between atoms: C_21  and  N_22
REMARK                            x       y       z     vdW  Elec       q    Type
REMARK                         _______ _______ _______ _____ _____    ______ ____
ROOT
ATOM      1  N   UNL     1      -1.681  11.686  23.153  0.00  0.00    +0.000 N 
ATOM      2  C   UNL     1      -2.795  12.527  23.296  0.00  0.00    +0.000 A 
ATOM      3  N   UNL     1      -2.835  13.331  24.366  0.00  0.00    +0.000 NA
ATOM      4  C   UNL     1      -3.917  14.130  24.488  0.00  0.00    +0.000 A 
ATOM      5  C   UNL     1      -4.976  14.158  23.596  0.00  0.00    +0.000 A 
ATOM      6  N   UNL     1      -6.050  15.042  23.796  0.00  0.00    +0.000 NA
ATOM      7  C   UNL     1      -6.974  15.046  22.885  0.00  0.00    +0.000 A 
ATOM      8  C   UNL     1      -6.964  14.169  21.665  0.00  0.00    +0.000 A 
ATOM      9  O   UNL     1      -7.908  14.313  20.888  0.00  0.00    +0.000 OA
ATOM     10  N   UNL     1      -5.913  13.269  21.571  0.00  0.00    +0.000 N 
ATOM     11  C   UNL     1      -4.860  13.277  22.535  0.00  0.00    +0.000 A 
ATOM     12  N   UNL     1      -3.781  12.479  22.375  0.00  0.00    +0.000 NA
ATOM     13  H   UNL     1      -0.985  11.964  23.839  0.00  0.00    +0.000 HD
ENDROOT
BRANCH   1  17
ATOM     14  C   UNL     1       0.013  10.422  19.479  0.00  0.00    +0.000 A 
ATOM     15  C   UNL     1      -0.747  11.587  19.543  0.00  0.00    +0.000 A 
ATOM     16  C   UNL     1      -1.293  12.012  20.755  0.00  0.00    +0.000 A 
ATOM     17  C   UNL     1      -1.127  11.263  21.927  0.00  0.00    +0.000 A 
ATOM     18  C   UNL     1      -0.336  10.110  21.861  0.00  0.00    +0.000 A 
ATOM     19  C   UNL     1       0.216   9.683  20.643  0.00  0.00    +0.000 A 
BRANCH  14  21
ATOM     20  C   UNL     1       1.540   9.125  18.234  0.00  0.00    +0.000 C 
ATOM     21  O   UNL     1       0.503  10.100  18.243  0.00  0.00    +0.000 OA
ENDBRANCH  14  21
ENDBRANCH   1  17
BRANCH  10  22
ATOM     22  C   UNL     1      -5.832  12.367  20.476  0.00  0.00    +0.000 A 
ATOM     23  C   UNL     1      -6.728  11.299  20.359  0.00  0.00    +0.000 A 
ATOM     24  C   UNL     1      -6.663  10.448  19.255  0.00  0.00    +0.000 A 
ATOM     25  C   UNL     1      -5.678  10.639  18.281  0.00  0.00    +0.000 A 
ATOM     26  C   UNL     1      -4.751  11.676  18.402  0.00  0.00    +0.000 A 
ATOM     27  C   UNL     1      -4.883  12.576  19.464  0.00  0.00    +0.000 A 
BRANCH  26  28
ATOM     28  N   UNL     1      -3.851  11.941  17.361  0.00  0.00    +0.000 N 
ATOM     29  H   UNL     1      -4.092  12.761  16.812  0.00  0.00    +0.000 HD
ATOM     30  H   UNL     1      -3.649  11.135  16.779  0.00  0.00    +0.000 HD
ENDBRANCH  26  28
ENDBRANCH  10  22
TORSDOF 4
ENDMDL
MODEL 8
REMARK VINA RESULT:      -6.3      1.897      2.816
REMARK  Name = 
REMARK  5 active torsions:
REMARK  status: ('A' for Active; 'I' for Inactive)
REMARK    1  A    between atoms: C_1  and  O_2
REMARK    2  A    between atoms: O_2  and  C_3
REMARK    3  A    between atoms: C_6  and  N_7
REMARK    4  A    between atoms: N_16  and  C_17
REMARK    5  A    between atoms: C_21  and  N_22
REMARK                            x       y       z     vdW  Elec       q    Type
REMARK                         _______ _______ _______ _____ _____    ______ ____
ROOT
ATOM      1  N   UNL     1      -1.567  12.256  17.528  0.00  0.00    +0.000 N 
ATOM      2  C   UNL     1      -2.877  11.872  17.853  0.00  0.00    +0.000 A 
ATOM      3  N   UNL     1      -3.541  11.114  16.972  0.00  0.00    +0.000 NA
ATOM      4  C   UNL     1      -4.802  10.759  17.302  0.00  0.00    +0.000 A 
ATOM      5  C   UNL     1      -5.442  11.134  18.471  0.00  0.00    +0.000 A 
ATOM      6  N   UNL     1      -6.750  10.694  18.738  0.00  0.00    +0.000 NA
ATOM      7  C   UNL     1      -7.258  11.045  19.879  0.00  0.00    +0.000 A 
ATOM      8  C   UNL     1      -6.544  11.884  20.901  0.00  0.00    +0.000 A 
ATOM      9  O   UNL     1      -7.162  12.108  21.942  0.00  0.00    +0.000 OA
ATOM     10  N   UNL     1      -5.287  12.345  20.539  0.00  0.00    +0.000 N 
ATOM     11  C   UNL     1      -4.688  11.937  19.310  0.00  0.00    +0.000 A 
ATOM     12  N   UNL     1      -3.418  12.293  19.017  0.00  0.00    +0.000 NA
ATOM     13  H   UNL     1      -1.279  11.731  16.707  0.00  0.00    +0.000 HD
ENDROOT
BRANCH   1  17
ATOM     14  C   UNL     1       1.544  12.914  20.330  0.00  0.00    +0.000 A 
ATOM     15  C   UNL     1       1.001  13.978  19.614  0.00  0.00    +0.000 A 
ATOM     16  C   UNL     1      -0.032  13.765  18.702  0.00  0.00    +0.000 A 
ATOM     17  C   UNL     1      -0.525  12.477  18.452  0.00  0.00    +0.000 A 
ATOM     18  C   UNL     1       0.004  11.418  19.198  0.00  0.00    +0.000 A 
ATOM     19  C   UNL     1       1.043  11.631  20.118  0.00  0.00    +0.000 A 
BRANCH  14  21
ATOM     20  C   UNL     1       3.420  14.276  20.767  0.00  0.00    +0.000 C 
ATOM     21  O   UNL     1       2.550  13.236  21.199  0.00  0.00    +0.000 OA
ENDBRANCH  14  21
ENDBRANCH   1  17
BRANCH  10  22
ATOM     22  C   UNL     1      -4.546  13.180  21.418  0.00  0.00    +0.000 A 
ATOM     23  C   UNL     1      -3.753  12.630  22.431  0.00  0.00    +0.000 A 
ATOM     24  C   UNL     1      -2.996  13.462  23.257  0.00  0.00    +0.000 A 
ATOM     25  C   UNL     1      -3.057  14.849  23.099  0.00  0.00    +0.000 A 
ATOM     26  C   UNL     1      -3.873  15.417  22.118  0.00  0.00    +0.000 A 
ATOM     27  C   UNL     1      -4.554  14.572  21.238  0.00  0.00    +0.000 A 
BRANCH  26  28
ATOM     28  N   UNL     1      -3.830  16.798  21.878  0.00  0.00    +0.000 N 
ATOM     29  H   UNL     1      -4.719  17.189  21.582  0.00  0.00    +0.000 HD
ATOM     30  H   UNL     1      -3.065  17.084  21.275  0.00  0.00    +0.000 HD
ENDBRANCH  26  28
ENDBRANCH  10  22
TORSDOF 4
ENDMDL
MODEL 9
REMARK VINA RESULT:      -6.2      0.815      1.242
REMARK  Name = 
REMARK  5 active torsions:
REMARK  status: ('A' for Active; 'I' for Inactive)
REMARK    1  A    between atoms: C_1  and  O_2
REMARK    2  A    between atoms: O_2  and  C_3
REMARK    3  A    between atoms: C_6  and  N_7
REMARK    4  A    between atoms: N_16  and  C_17
REMARK    5  A    between atoms: C_21  and  N_22
REMARK                            x       y       z     vdW  Elec       q    Type
REMARK                         _______ _______ _______ _____ _____    ______ ____
ROOT
ATOM      1  N   UNL     1      -4.592  11.913  17.812  0.00  0.00    +0.000 N 
ATOM      2  C   UNL     1      -5.415  12.108  18.932  0.00  0.00    +0.000 A 
ATOM      3  N   UNL     1      -6.738  11.997  18.760  0.00  0.00    +0.000 NA
ATOM      4  C   UNL     1      -7.513  12.193  19.849  0.00  0.00    +0.000 A 
ATOM      5  C   UNL     1      -7.031  12.505  21.108  0.00  0.00    +0.000 A 
ATOM      6  N   UNL     1      -7.917  12.667  22.188  0.00  0.00    +0.000 NA
ATOM      7  C   UNL     1      -7.381  12.905  23.346  0.00  0.00    +0.000 A 
ATOM      8  C   UNL     1      -5.903  13.025  23.586  0.00  0.00    +0.000 A 
ATOM      9  O   UNL     1      -5.560  13.232  24.750  0.00  0.00    +0.000 OA
ATOM     10  N   UNL     1      -5.094  12.930  22.463  0.00  0.00    +0.000 N 
ATOM     11  C   UNL     1      -5.654  12.623  21.187  0.00  0.00    +0.000 A 
ATOM     12  N   UNL     1      -4.851  12.416  20.120  0.00  0.00    +0.000 NA
ATOM     13  H   UNL     1      -5.166  11.545  17.059  0.00  0.00    +0.000 HD
ENDROOT
BRANCH   1  17
ATOM     14  C   UNL     1      -0.678  10.291  17.908  0.00  0.00    +0.000 A 
ATOM     15  C   UNL     1      -0.999  11.407  18.676  0.00  0.00    +0.000 A 
ATOM     16  C   UNL     1      -2.291  11.933  18.657  0.00  0.00    +0.000 A 
ATOM     17  C   UNL     1      -3.286  11.382  17.838  0.00  0.00    +0.000 A 
ATOM     18  C   UNL     1      -2.964  10.242  17.093  0.00  0.00    +0.000 A 
ATOM     19  C   UNL     1      -1.665   9.710  17.114  0.00  0.00    +0.000 A 
BRANCH  14  21
ATOM     20  C   UNL     1       1.517  10.762  18.633  0.00  0.00    +0.000 C 
ATOM     21  O   UNL     1       0.616   9.856  18.005  0.00  0.00    +0.000 OA
ENDBRANCH  14  21
ENDBRANCH   1  17
BRANCH  10  22
ATOM     22  C   UNL     1      -3.685  13.070  22.576  0.00  0.00    +0.000 A 
ATOM     23  C   UNL     1      -2.886  11.992  22.974  0.00  0.00    +0.000 A 
ATOM     24  C   UNL     1      -1.499  12.135  23.037  0.00  0.00    +0.000 A 
ATOM     25  C   UNL     1      -0.907  13.365  22.739  0.00  0.00    +0.000 A 
ATOM     26  C   UNL     1      -1.692  14.463  22.378  0.00  0.00    +0.000 A 
ATOM     27  C   UNL     1      -3.071  14.283  22.229  0.00  0.00    +0.000 A 
BRANCH  26  28
ATOM     28  N   UNL     1      -1.086  15.653  21.954  0.00  0.00    +0.000 N 
ATOM     29  H   UNL     1      -1.745  16.354  21.631  0.00  0.00    +0.000 HD
ATOM     30  H   UNL     1      -0.322  15.514  21.301  0.00  0.00    +0.000 HD
ENDBRANCH  26  28
ENDBRANCH  10  22
TORSDOF 4
ENDMDL
