MODEL 1
REMARK VINA RESULT:      -5.5      0.000      0.000
REMARK  Name = 
REMARK  8 active torsions:
REMARK  status: ('A' for Active; 'I' for Inactive)
REMARK    1  A    between atoms: C_1  and  C_2
REMARK    2  A    between atoms: C_2  and  C_3
REMARK    3  A    between atoms: C_3  and  S_4
REMARK    4  A    between atoms: C_6  and  O_7
REMARK    5  A    between atoms: C_8  and  C_9
REMARK    6  A    between atoms: C_9  and  O_10
REMARK    7  A    between atoms: C_9  and  C_11
REMARK    8  A    between atoms: C_11  and  O_12
REMARK                            x       y       z     vdW  Elec       q    Type
REMARK                         _______ _______ _______ _____ _____    ______ ____
ROOT
ATOM      1  S   UNL     1       3.595   5.972  18.325  0.00  0.00    +0.000 S 
ATOM      2  C   UNL     1       4.183   5.092  16.848  0.00  0.00    +0.000 C 
ATOM      3  C   UNL     1       5.042   3.931  17.327  0.00  0.00    +0.000 C 
ATOM      4  C   UNL     1       5.917   4.441  18.478  0.00  0.00    +0.000 C 
ATOM      5  C   UNL     1       5.041   5.409  19.304  0.00  0.00    +0.000 C 
ENDROOT
BRANCH   3   6
ATOM      6  O   UNL     1       5.767   3.322  16.273  0.00  0.00    +0.000 OA
ATOM      7  H   UNL     1       5.415   2.423  16.131  0.00  0.00    +0.000 HD
ENDBRANCH   3   6
BRANCH   1   8
ATOM      8  C   UNL     1       2.411   4.703  18.890  0.00  0.00    +0.000 C 
BRANCH   8  10
ATOM      9  C   UNL     1       1.581   3.540  20.958  0.00  0.00    +0.000 C 
ATOM     10  C   UNL     1       2.207   4.809  20.398  0.00  0.00    +0.000 C 
ENDBRANCH   8  10
ENDBRANCH   1   8
BRANCH   4  11
ATOM     11  C   UNL     1       7.284   5.063  18.125  0.00  0.00    +0.000 C 
BRANCH  11  12
ATOM     12  O   UNL     1       8.229   4.050  17.751  0.00  0.00    +0.000 OA
ATOM     13  H   UNL     1       8.779   3.796  18.509  0.00  0.00    +0.000 HD
ENDBRANCH  11  12
BRANCH  11  14
ATOM     14  C   UNL     1       7.866   6.001  19.194  0.00  0.00    +0.000 C 
BRANCH  14  15
ATOM     15  O   UNL     1       8.112   5.285  20.405  0.00  0.00    +0.000 OA
ATOM     16  H   UNL     1       8.867   4.690  20.239  0.00  0.00    +0.000 HD
ENDBRANCH  14  15
ENDBRANCH  11  14
ENDBRANCH   4  11
TORSDOF 7
ENDMDL
MODEL 2
REMARK VINA RESULT:      -5.4      1.759      2.234
REMARK  Name = 
REMARK  8 active torsions:
REMARK  status: ('A' for Active; 'I' for Inactive)
REMARK    1  A    between atoms: C_1  and  C_2
REMARK    2  A    between atoms: C_2  and  C_3
REMARK    3  A    between atoms: C_3  and  S_4
REMARK    4  A    between atoms: C_6  and  O_7
REMARK    5  A    between atoms: C_8  and  C_9
REMARK    6  A    between atoms: C_9  and  O_10
REMARK    7  A    between atoms: C_9  and  C_11
REMARK    8  A    between atoms: C_11  and  O_12
REMARK                            x       y       z     vdW  Elec       q    Type
REMARK                         _______ _______ _______ _____ _____    ______ ____
ROOT
ATOM      1  S   UNL     1       2.361   4.643  17.948  0.00  0.00    +0.000 S 
ATOM      2  C   UNL     1       3.290   3.132  18.345  0.00  0.00    +0.000 C 
ATOM      3  C   UNL     1       4.397   3.524  19.312  0.00  0.00    +0.000 C 
ATOM      4  C   UNL     1       4.998   4.846  18.822  0.00  0.00    +0.000 C 
ATOM      5  C   UNL     1       3.823   5.698  18.293  0.00  0.00    +0.000 C 
ENDROOT
BRANCH   3   6
ATOM      6  O   UNL     1       5.346   2.488  19.498  0.00  0.00    +0.000 OA
ATOM      7  H   UNL     1       5.461   2.338  20.455  0.00  0.00    +0.000 HD
ENDBRANCH   3   6
BRANCH   1   8
ATOM      8  C   UNL     1       1.538   4.836  19.565  0.00  0.00    +0.000 C 
BRANCH   8  10
ATOM      9  C   UNL     1       1.299   3.088  21.355  0.00  0.00    +0.000 C 
ATOM     10  C   UNL     1       0.858   3.532  19.968  0.00  0.00    +0.000 C 
ENDBRANCH   8  10
ENDBRANCH   1   8
BRANCH   4  11
ATOM     11  C   UNL     1       6.162   4.779  17.811  0.00  0.00    +0.000 C 
BRANCH  11  12
ATOM     12  O   UNL     1       7.355   4.281  18.431  0.00  0.00    +0.000 OA
ATOM     13  H   UNL     1       7.728   4.938  19.040  0.00  0.00    +0.000 HD
ENDBRANCH  11  12
BRANCH  11  14
ATOM     14  C   UNL     1       6.434   6.085  17.048  0.00  0.00    +0.000 C 
BRANCH  14  15
ATOM     15  O   UNL     1       7.370   5.862  15.993  0.00  0.00    +0.000 OA
ATOM     16  H   UNL     1       8.261   5.881  16.391  0.00  0.00    +0.000 HD
ENDBRANCH  14  15
ENDBRANCH  11  14
ENDBRANCH   4  11
TORSDOF 7
ENDMDL
MODEL 3
REMARK VINA RESULT:      -5.4      2.147      3.380
REMARK  Name = 
REMARK  8 active torsions:
REMARK  status: ('A' for Active; 'I' for Inactive)
REMARK    1  A    between atoms: C_1  and  C_2
REMARK    2  A    between atoms: C_2  and  C_3
REMARK    3  A    between atoms: C_3  and  S_4
REMARK    4  A    between atoms: C_6  and  O_7
REMARK    5  A    between atoms: C_8  and  C_9
REMARK    6  A    between atoms: C_9  and  O_10
REMARK    7  A    between atoms: C_9  and  C_11
REMARK    8  A    between atoms: C_11  and  O_12
REMARK                            x       y       z     vdW  Elec       q    Type
REMARK                         _______ _______ _______ _____ _____    ______ ____
ROOT
ATOM      1  S   UNL     1       3.209   5.090  18.049  0.00  0.00    +0.000 S 
ATOM      2  C   UNL     1       4.455   4.569  19.265  0.00  0.00    +0.000 C 
ATOM      3  C   UNL     1       5.697   5.416  19.030  0.00  0.00    +0.000 C 
ATOM      4  C   UNL     1       5.909   5.524  17.515  0.00  0.00    +0.000 C 
ATOM      5  C   UNL     1       4.507   5.656  16.881  0.00  0.00    +0.000 C 
ENDROOT
BRANCH   3   6
ATOM      6  O   UNL     1       6.824   4.935  19.741  0.00  0.00    +0.000 OA
ATOM      7  H   UNL     1       7.266   4.252  19.202  0.00  0.00    +0.000 HD
ENDBRANCH   3   6
BRANCH   1   8
ATOM      8  C   UNL     1       2.830   6.713  18.792  0.00  0.00    +0.000 C 
BRANCH   8  10
ATOM      9  C   UNL     1       1.862   8.827  17.838  0.00  0.00    +0.000 C 
ATOM     10  C   UNL     1       2.998   7.818  17.756  0.00  0.00    +0.000 C 
ENDBRANCH   8  10
ENDBRANCH   1   8
BRANCH   4  11
ATOM     11  C   UNL     1       6.752   4.430  16.825  0.00  0.00    +0.000 C 
BRANCH  11  12
ATOM     12  O   UNL     1       8.092   4.415  17.336  0.00  0.00    +0.000 OA
ATOM     13  H   UNL     1       8.533   5.263  17.174  0.00  0.00    +0.000 HD
ENDBRANCH  11  12
BRANCH  11  14
ATOM     14  C   UNL     1       6.741   4.477  15.289  0.00  0.00    +0.000 C 
BRANCH  14  15
ATOM     15  O   UNL     1       7.647   5.473  14.813  0.00  0.00    +0.000 OA
ATOM     16  H   UNL     1       7.374   5.699  13.904  0.00  0.00    +0.000 HD
ENDBRANCH  14  15
ENDBRANCH  11  14
ENDBRANCH   4  11
TORSDOF 7
ENDMDL
MODEL 4
REMARK VINA RESULT:      -5.3      1.309      1.470
REMARK  Name = 
REMARK  8 active torsions:
REMARK  status: ('A' for Active; 'I' for Inactive)
REMARK    1  A    between atoms: C_1  and  C_2
REMARK    2  A    between atoms: C_2  and  C_3
REMARK    3  A    between atoms: C_3  and  S_4
REMARK    4  A    between atoms: C_6  and  O_7
REMARK    5  A    between atoms: C_8  and  C_9
REMARK    6  A    between atoms: C_9  and  O_10
REMARK    7  A    between atoms: C_9  and  C_11
REMARK    8  A    between atoms: C_11  and  O_12
REMARK                            x       y       z     vdW  Elec       q    Type
REMARK                         _______ _______ _______ _____ _____    ______ ____
ROOT
ATOM      1  S   UNL     1       3.774   5.824  18.701  0.00  0.00    +0.000 S 
ATOM      2  C   UNL     1       4.427   6.607  17.197  0.00  0.00    +0.000 C 
ATOM      3  C   UNL     1       5.150   5.528  16.404  0.00  0.00    +0.000 C 
ATOM      4  C   UNL     1       5.951   4.677  17.395  0.00  0.00    +0.000 C 
ATOM      5  C   UNL     1       5.078   4.533  18.661  0.00  0.00    +0.000 C 
ENDROOT
BRANCH   3   6
ATOM      6  O   UNL     1       5.920   6.062  15.341  0.00  0.00    +0.000 OA
ATOM      7  H   UNL     1       6.025   5.375  14.655  0.00  0.00    +0.000 HD
ENDBRANCH   3   6
BRANCH   1   8
ATOM      8  C   UNL     1       2.452   4.855  17.897  0.00  0.00    +0.000 C 
BRANCH   8  10
ATOM      9  C   UNL     1       1.263   2.732  18.527  0.00  0.00    +0.000 C 
ATOM     10  C   UNL     1       1.599   4.155  18.949  0.00  0.00    +0.000 C 
ENDBRANCH   8  10
ENDBRANCH   1   8
BRANCH   4  11
ATOM     11  C   UNL     1       7.388   5.127  17.735  0.00  0.00    +0.000 C 
BRANCH  11  12
ATOM     12  O   UNL     1       8.295   4.016  17.709  0.00  0.00    +0.000 OA
ATOM     13  H   UNL     1       8.333   3.622  16.823  0.00  0.00    +0.000 HD
ENDBRANCH  11  12
BRANCH  11  14
ATOM     14  C   UNL     1       7.525   5.928  19.039  0.00  0.00    +0.000 C 
BRANCH  14  15
ATOM     15  O   UNL     1       8.393   5.254  19.951  0.00  0.00    +0.000 OA
ATOM     16  H   UNL     1       7.952   5.257  20.822  0.00  0.00    +0.000 HD
ENDBRANCH  14  15
ENDBRANCH  11  14
ENDBRANCH   4  11
TORSDOF 7
ENDMDL
MODEL 5
REMARK VINA RESULT:      -5.3      1.637      2.171
REMARK  Name = 
REMARK  8 active torsions:
REMARK  status: ('A' for Active; 'I' for Inactive)
REMARK    1  A    between atoms: C_1  and  C_2
REMARK    2  A    between atoms: C_2  and  C_3
REMARK    3  A    between atoms: C_3  and  S_4
REMARK    4  A    between atoms: C_6  and  O_7
REMARK    5  A    between atoms: C_8  and  C_9
REMARK    6  A    between atoms: C_9  and  O_10
REMARK    7  A    between atoms: C_9  and  C_11
REMARK    8  A    between atoms: C_11  and  O_12
REMARK                            x       y       z     vdW  Elec       q    Type
REMARK                         _______ _______ _______ _____ _____    ______ ____
ROOT
ATOM      1  S   UNL     1       1.950   4.124  17.913  0.00  0.00    +0.000 S 
ATOM      2  C   UNL     1       3.185   2.878  18.388  0.00  0.00    +0.000 C 
ATOM      3  C   UNL     1       4.290   3.603  19.142  0.00  0.00    +0.000 C 
ATOM      4  C   UNL     1       4.575   4.916  18.403  0.00  0.00    +0.000 C 
ATOM      5  C   UNL     1       3.212   5.457  17.919  0.00  0.00    +0.000 C 
ENDROOT
BRANCH   3   6
ATOM      6  O   UNL     1       5.433   2.789  19.342  0.00  0.00    +0.000 OA
ATOM      7  H   UNL     1       5.949   2.765  18.514  0.00  0.00    +0.000 HD
ENDBRANCH   3   6
BRANCH   1   8
ATOM      8  C   UNL     1       1.275   4.423  19.581  0.00  0.00    +0.000 C 
BRANCH   8  10
ATOM      9  C   UNL     1       1.560   2.894  21.556  0.00  0.00    +0.000 C 
ATOM     10  C   UNL     1       0.855   3.106  20.224  0.00  0.00    +0.000 C 
ENDBRANCH   8  10
ENDBRANCH   1   8
BRANCH   4  11
ATOM     11  C   UNL     1       5.621   4.893  17.268  0.00  0.00    +0.000 C 
BRANCH  11  12
ATOM     12  O   UNL     1       5.713   3.588  16.679  0.00  0.00    +0.000 OA
ATOM     13  H   UNL     1       6.132   3.633  15.805  0.00  0.00    +0.000 HD
ENDBRANCH  11  12
BRANCH  11  14
ATOM     14  C   UNL     1       7.009   5.429  17.654  0.00  0.00    +0.000 C 
BRANCH  14  15
ATOM     15  O   UNL     1       7.572   4.645  18.706  0.00  0.00    +0.000 OA
ATOM     16  H   UNL     1       7.566   3.716  18.407  0.00  0.00    +0.000 HD
ENDBRANCH  14  15
ENDBRANCH  11  14
ENDBRANCH   4  11
TORSDOF 7
ENDMDL
MODEL 6
REMARK VINA RESULT:      -5.3      2.059      2.784
REMARK  Name = 
REMARK  8 active torsions:
REMARK  status: ('A' for Active; 'I' for Inactive)
REMARK    1  A    between atoms: C_1  and  C_2
REMARK    2  A    between atoms: C_2  and  C_3
REMARK    3  A    between atoms: C_3  and  S_4
REMARK    4  A    between atoms: C_6  and  O_7
REMARK    5  A    between atoms: C_8  and  C_9
REMARK    6  A    between atoms: C_9  and  O_10
REMARK    7  A    between atoms: C_9  and  C_11
REMARK    8  A    between atoms: C_11  and  O_12
REMARK                            x       y       z     vdW  Elec       q    Type
REMARK                         _______ _______ _______ _____ _____    ______ ____
ROOT
ATOM      1  S   UNL     1       3.749   3.673  19.397  0.00  0.00    +0.000 S 
ATOM      2  C   UNL     1       3.724   5.489  19.355  0.00  0.00    +0.000 C 
ATOM      3  C   UNL     1       3.548   5.905  17.903  0.00  0.00    +0.000 C 
ATOM      4  C   UNL     1       4.438   4.998  17.046  0.00  0.00    +0.000 C 
ATOM      5  C   UNL     1       4.364   3.587  17.669  0.00  0.00    +0.000 C 
ENDROOT
BRANCH   3   6
ATOM      6  O   UNL     1       3.768   7.291  17.705  0.00  0.00    +0.000 OA
ATOM      7  H   UNL     1       2.913   7.719  17.512  0.00  0.00    +0.000 HD
ENDBRANCH   3   6
BRANCH   1   8
ATOM      8  C   UNL     1       1.980   3.412  19.036  0.00  0.00    +0.000 C 
BRANCH   8  10
ATOM      9  C   UNL     1       1.530   2.823  21.438  0.00  0.00    +0.000 C 
ATOM     10  C   UNL     1       1.140   3.718  20.272  0.00  0.00    +0.000 C 
ENDBRANCH   8  10
ENDBRANCH   1   8
BRANCH   4  11
ATOM     11  C   UNL     1       5.896   5.443  16.800  0.00  0.00    +0.000 C 
BRANCH  11  12
ATOM     12  O   UNL     1       5.945   6.620  15.983  0.00  0.00    +0.000 OA
ATOM     13  H   UNL     1       5.798   6.399  15.049  0.00  0.00    +0.000 HD
ENDBRANCH  11  12
BRANCH  11  14
ATOM     14  C   UNL     1       6.824   4.346  16.254  0.00  0.00    +0.000 C 
BRANCH  14  15
ATOM     15  O   UNL     1       7.962   4.188  17.102  0.00  0.00    +0.000 OA
ATOM     16  H   UNL     1       7.629   3.951  17.989  0.00  0.00    +0.000 HD
ENDBRANCH  14  15
ENDBRANCH  11  14
ENDBRANCH   4  11
TORSDOF 7
ENDMDL
MODEL 7
REMARK VINA RESULT:      -5.2      1.691      2.793
REMARK  Name = 
REMARK  8 active torsions:
REMARK  status: ('A' for Active; 'I' for Inactive)
REMARK    1  A    between atoms: C_1  and  C_2
REMARK    2  A    between atoms: C_2  and  C_3
REMARK    3  A    between atoms: C_3  and  S_4
REMARK    4  A    between atoms: C_6  and  O_7
REMARK    5  A    between atoms: C_8  and  C_9
REMARK    6  A    between atoms: C_9  and  O_10
REMARK    7  A    between atoms: C_9  and  C_11
REMARK    8  A    between atoms: C_11  and  O_12
REMARK                            x       y       z     vdW  Elec       q    Type
REMARK                         _______ _______ _______ _____ _____    ______ ____
ROOT
ATOM      1  S   UNL     1       2.869   3.328  18.775  0.00  0.00    +0.000 S 
ATOM      2  C   UNL     1       4.657   3.078  18.987  0.00  0.00    +0.000 C 
ATOM      3  C   UNL     1       5.346   4.370  18.575  0.00  0.00    +0.000 C 
ATOM      4  C   UNL     1       4.654   4.884  17.308  0.00  0.00    +0.000 C 
ATOM      5  C   UNL     1       3.146   4.598  17.478  0.00  0.00    +0.000 C 
ENDROOT
BRANCH   3   6
ATOM      6  O   UNL     1       6.749   4.220  18.452  0.00  0.00    +0.000 OA
ATOM      7  H   UNL     1       7.178   5.049  18.737  0.00  0.00    +0.000 HD
ENDBRANCH   3   6
BRANCH   1   8
ATOM      8  C   UNL     1       2.630   4.467  20.180  0.00  0.00    +0.000 C 
BRANCH   8  10
ATOM      9  C   UNL     1       1.537   2.656  21.537  0.00  0.00    +0.000 C 
ATOM     10  C   UNL     1       1.396   4.064  20.980  0.00  0.00    +0.000 C 
ENDBRANCH   8  10
ENDBRANCH   1   8
BRANCH   4  11
ATOM     11  C   UNL     1       5.183   4.387  15.945  0.00  0.00    +0.000 C 
BRANCH  11  12
ATOM     12  O   UNL     1       5.896   3.151  16.090  0.00  0.00    +0.000 OA
ATOM     13  H   UNL     1       5.395   2.417  15.700  0.00  0.00    +0.000 HD
ENDBRANCH  11  12
BRANCH  11  14
ATOM     14  C   UNL     1       6.007   5.417  15.155  0.00  0.00    +0.000 C 
BRANCH  14  15
ATOM     15  O   UNL     1       7.306   5.565  15.731  0.00  0.00    +0.000 OA
ATOM     16  H   UNL     1       7.919   5.021  15.201  0.00  0.00    +0.000 HD
ENDBRANCH  14  15
ENDBRANCH  11  14
ENDBRANCH   4  11
TORSDOF 7
ENDMDL
MODEL 8
REMARK VINA RESULT:      -5.2      2.077      2.982
REMARK  Name = 
REMARK  8 active torsions:
REMARK  status: ('A' for Active; 'I' for Inactive)
REMARK    1  A    between atoms: C_1  and  C_2
REMARK    2  A    between atoms: C_2  and  C_3
REMARK    3  A    between atoms: C_3  and  S_4
REMARK    4  A    between atoms: C_6  and  O_7
REMARK    5  A    between atoms: C_8  and  C_9
REMARK    6  A    between atoms: C_9  and  O_10
REMARK    7  A    between atoms: C_9  and  C_11
REMARK    8  A    between atoms: C_11  and  O_12
REMARK                            x       y       z     vdW  Elec       q    Type
REMARK                         _______ _______ _______ _____ _____    ______ ____
ROOT
ATOM      1  S   UNL     1       4.093   3.635  19.127  0.00  0.00    +0.000 S 
ATOM      2  C   UNL     1       5.118   5.129  18.990  0.00  0.00    +0.000 C 
ATOM      3  C   UNL     1       4.938   5.672  17.580  0.00  0.00    +0.000 C 
ATOM      4  C   UNL     1       4.952   4.481  16.616  0.00  0.00    +0.000 C 
ATOM      5  C   UNL     1       4.195   3.333  17.319  0.00  0.00    +0.000 C 
ENDROOT
BRANCH   3   6
ATOM      6  O   UNL     1       5.878   6.685  17.266  0.00  0.00    +0.000 OA
ATOM      7  H   UNL     1       5.805   7.396  17.930  0.00  0.00    +0.000 HD
ENDBRANCH   3   6
BRANCH   1   8
ATOM      8  C   UNL     1       2.471   4.472  19.140  0.00  0.00    +0.000 C 
BRANCH   8  10
ATOM      9  C   UNL     1       0.807   2.612  18.841  0.00  0.00    +0.000 C 
ATOM     10  C   UNL     1       1.515   3.782  18.173  0.00  0.00    +0.000 C 
ENDBRANCH   8  10
ENDBRANCH   1   8
BRANCH   4  11
ATOM     11  C   UNL     1       6.315   4.017  16.061  0.00  0.00    +0.000 C 
BRANCH  11  12
ATOM     12  O   UNL     1       7.360   4.226  17.022  0.00  0.00    +0.000 OA
ATOM     13  H   UNL     1       7.376   3.508  17.675  0.00  0.00    +0.000 HD
ENDBRANCH  11  12
BRANCH  11  14
ATOM     14  C   UNL     1       6.692   4.604  14.692  0.00  0.00    +0.000 C 
BRANCH  14  15
ATOM     15  O   UNL     1       7.624   5.675  14.847  0.00  0.00    +0.000 OA
ATOM     16  H   UNL     1       8.499   5.273  15.007  0.00  0.00    +0.000 HD
ENDBRANCH  14  15
ENDBRANCH  11  14
ENDBRANCH   4  11
TORSDOF 7
ENDMDL
MODEL 9
REMARK VINA RESULT:      -5.2      1.727      2.935
REMARK  Name = 
REMARK  8 active torsions:
REMARK  status: ('A' for Active; 'I' for Inactive)
REMARK    1  A    between atoms: C_1  and  C_2
REMARK    2  A    between atoms: C_2  and  C_3
REMARK    3  A    between atoms: C_3  and  S_4
REMARK    4  A    between atoms: C_6  and  O_7
REMARK    5  A    between atoms: C_8  and  C_9
REMARK    6  A    between atoms: C_9  and  O_10
REMARK    7  A    between atoms: C_9  and  C_11
REMARK    8  A    between atoms: C_11  and  O_12
REMARK                            x       y       z     vdW  Elec       q    Type
REMARK                         _______ _______ _______ _____ _____    ______ ____
ROOT
ATOM      1  S   UNL     1       3.302   3.058  18.359  0.00  0.00    +0.000 S 
ATOM      2  C   UNL     1       4.704   3.408  19.461  0.00  0.00    +0.000 C 
ATOM      3  C   UNL     1       5.241   4.781  19.084  0.00  0.00    +0.000 C 
ATOM      4  C   UNL     1       5.255   4.873  17.554  0.00  0.00    +0.000 C 
ATOM      5  C   UNL     1       3.981   4.158  17.056  0.00  0.00    +0.000 C 
ENDROOT
BRANCH   3   6
ATOM      6  O   UNL     1       6.489   5.060  19.695  0.00  0.00    +0.000 OA
ATOM      7  H   UNL     1       6.781   5.949  19.417  0.00  0.00    +0.000 HD
ENDBRANCH   3   6
BRANCH   1   8
ATOM      8  C   UNL     1       2.131   4.249  19.094  0.00  0.00    +0.000 C 
BRANCH   8  10
ATOM      9  C   UNL     1       1.377   3.009  21.146  0.00  0.00    +0.000 C 
ATOM     10  C   UNL     1       0.979   3.509  19.765  0.00  0.00    +0.000 C 
ENDBRANCH   8  10
ENDBRANCH   1   8
BRANCH   4  11
ATOM     11  C   UNL     1       6.517   4.382  16.814  0.00  0.00    +0.000 C 
BRANCH  11  12
ATOM     12  O   UNL     1       7.659   5.180  17.156  0.00  0.00    +0.000 OA
ATOM     13  H   UNL     1       7.848   5.829  16.460  0.00  0.00    +0.000 HD
ENDBRANCH  11  12
BRANCH  11  14
ATOM     14  C   UNL     1       6.365   4.252  15.289  0.00  0.00    +0.000 C 
BRANCH  14  15
ATOM     15  O   UNL     1       6.508   5.527  14.663  0.00  0.00    +0.000 OA
ATOM     16  H   UNL     1       5.610   5.849  14.459  0.00  0.00    +0.000 HD
ENDBRANCH  14  15
ENDBRANCH  11  14
ENDBRANCH   4  11
TORSDOF 7
ENDMDL
