MODEL 1
REMARK VINA RESULT:      -8.2      0.000      0.000
REMARK  Name = 
REMARK  17 active torsions:
REMARK  status: ('A' for Active; 'I' for Inactive)
REMARK    1  A    between atoms: C_1  and  C_2
REMARK    2  A    between atoms: C_2  and  N_3
REMARK    3  A    between atoms: C_2  and  C_15
REMARK    4  A    between atoms: C_4  and  C_6
REMARK    5  A    between atoms: C_6  and  N_7
REMARK    6  A    between atoms: C_8  and  O_10
REMARK    7  A    between atoms: O_10  and  C_11
REMARK    8  A    between atoms: C_11  and  C_12
REMARK    9  A    between atoms: C_11  and  C_13
REMARK   10  A    between atoms: C_11  and  C_14
REMARK   11  A    between atoms: N_17  and  C_18
REMARK   12  A    between atoms: C_18  and  C_19
REMARK   13  A    between atoms: C_18  and  C_26
REMARK   14  A    between atoms: C_19  and  C_20
REMARK   15  A    between atoms: C_26  and  O_28
REMARK   16  A    between atoms: O_28  and  C_29
REMARK   17  A    between atoms: C_29  and  C_30
REMARK                            x       y       z     vdW  Elec       q    Type
REMARK                         _______ _______ _______ _____ _____    ______ ____
ROOT
ATOM      1  C   UNL     1       6.001   5.708  18.722  0.00  0.00    +0.000 C 
ATOM      2  O   UNL     1       5.647   5.214  19.792  0.00  0.00    +0.000 OA
ATOM      3  N   UNL     1       5.079   6.153  17.785  0.00  0.00    +0.000 N 
ATOM      4  H   UNL     1       5.423   6.624  16.956  0.00  0.00    +0.000 HD
ENDROOT
BRANCH   1   6
ATOM      5  C   UNL     1       7.549   5.581  16.761  0.00  0.00    +0.000 C 
ATOM      6  C   UNL     1       7.489   5.707  18.282  0.00  0.00    +0.000 C 
BRANCH   6   7
ATOM      7  N   UNL     1       8.194   6.885  18.779  0.00  0.00    +0.000 N 
ATOM      8  C   UNL     1       8.118   8.126  18.164  0.00  0.00    +0.000 C 
ATOM      9  O   UNL     1       7.415   8.364  17.187  0.00  0.00    +0.000 OA
ATOM     10  H   UNL     1       8.576   6.878  19.721  0.00  0.00    +0.000 HD
BRANCH   8  11
ATOM     11  C   UNL     1       8.908   9.226  18.887  0.00  0.00    +0.000 C 
BRANCH  11  12
ATOM     12  N   UNL     1       9.020  10.388  18.051  0.00  0.00    +0.000 N 
ATOM     13  C   UNL     1       9.150  11.613  18.601  0.00  0.00    +0.000 C 
ATOM     14  O   UNL     1       9.122  11.813  19.801  0.00  0.00    +0.000 OA
ATOM     15  H   UNL     1       8.988  10.394  17.049  0.00  0.00    +0.000 HD
BRANCH  13  16
ATOM     16  O   UNL     1       9.300  12.551  17.604  0.00  0.00    +0.000 OA
BRANCH  16  17
ATOM     17  C   UNL     1      10.382  13.477  17.855  0.00  0.00    +0.000 C 
ATOM     18  C   UNL     1       9.560  14.739  18.387  0.00  0.00    +0.000 C 
ATOM     19  C   UNL     1      11.319  13.071  19.011  0.00  0.00    +0.000 C 
ATOM     20  C   UNL     1      11.337  13.216  16.615  0.00  0.00    +0.000 C 
ENDBRANCH  16  17
ENDBRANCH  13  16
ENDBRANCH  11  12
ENDBRANCH   8  11
ENDBRANCH   6   7
ENDBRANCH   1   6
BRANCH   3  21
ATOM     21  C   UNL     1       3.631   6.257  18.100  0.00  0.00    +0.000 C 
BRANCH  21  22
ATOM     22  C   UNL     1       2.681   5.128  17.579  0.00  0.00    +0.000 C 
ATOM     23  O   UNL     1       1.460   5.235  17.531  0.00  0.00    +0.000 OA
BRANCH  22  24
ATOM     24  O   UNL     1       3.336   3.960  17.277  0.00  0.00    +0.000 OA
BRANCH  24  25
ATOM     25  C   UNL     1       2.634   2.711  17.595  0.00  0.00    +0.000 C 
BRANCH  25  26
ATOM     26  C   UNL     1       2.393   2.608  19.077  0.00  0.00    +0.000 A 
ATOM     27  C   UNL     1       1.086   2.709  19.471  0.00  0.00    +0.000 A 
ATOM     28  C   UNL     1       0.793   2.929  20.778  0.00  0.00    +0.000 A 
ATOM     29  C   UNL     1       1.730   2.786  21.790  0.00  0.00    +0.000 A 
ATOM     30  C   UNL     1       3.039   2.551  21.440  0.00  0.00    +0.000 A 
ATOM     31  C   UNL     1       3.380   2.519  20.080  0.00  0.00    +0.000 A 
ENDBRANCH  25  26
ENDBRANCH  24  25
ENDBRANCH  22  24
ENDBRANCH  21  22
BRANCH  21  32
ATOM     32  C   UNL     1       3.065   7.667  17.763  0.00  0.00    +0.000 C 
BRANCH  32  33
ATOM     33  C   UNL     1       2.101   8.217  18.795  0.00  0.00    +0.000 A 
ATOM     34  C   UNL     1       1.341   9.363  18.521  0.00  0.00    +0.000 A 
ATOM     35  C   UNL     1       0.560   9.953  19.515  0.00  0.00    +0.000 A 
ATOM     36  C   UNL     1       0.505   9.386  20.785  0.00  0.00    +0.000 A 
ATOM     37  C   UNL     1       1.198   8.206  21.049  0.00  0.00    +0.000 A 
ATOM     38  C   UNL     1       1.985   7.618  20.057  0.00  0.00    +0.000 A 
ENDBRANCH  32  33
ENDBRANCH  21  32
ENDBRANCH   3  21
TORSDOF 13
ENDMDL
MODEL 2
REMARK VINA RESULT:      -8.0      4.933      8.127
REMARK  Name = 
REMARK  17 active torsions:
REMARK  status: ('A' for Active; 'I' for Inactive)
REMARK    1  A    between atoms: C_1  and  C_2
REMARK    2  A    between atoms: C_2  and  N_3
REMARK    3  A    between atoms: C_2  and  C_15
REMARK    4  A    between atoms: C_4  and  C_6
REMARK    5  A    between atoms: C_6  and  N_7
REMARK    6  A    between atoms: C_8  and  O_10
REMARK    7  A    between atoms: O_10  and  C_11
REMARK    8  A    between atoms: C_11  and  C_12
REMARK    9  A    between atoms: C_11  and  C_13
REMARK   10  A    between atoms: C_11  and  C_14
REMARK   11  A    between atoms: N_17  and  C_18
REMARK   12  A    between atoms: C_18  and  C_19
REMARK   13  A    between atoms: C_18  and  C_26
REMARK   14  A    between atoms: C_19  and  C_20
REMARK   15  A    between atoms: C_26  and  O_28
REMARK   16  A    between atoms: O_28  and  C_29
REMARK   17  A    between atoms: C_29  and  C_30
REMARK                            x       y       z     vdW  Elec       q    Type
REMARK                         _______ _______ _______ _____ _____    ______ ____
ROOT
ATOM      1  C   UNL     1       1.429   8.758  19.495  0.00  0.00    +0.000 C 
ATOM      2  O   UNL     1       1.538   8.297  20.631  0.00  0.00    +0.000 OA
ATOM      3  N   UNL     1       2.097   8.200  18.415  0.00  0.00    +0.000 N 
ATOM      4  H   UNL     1       1.910   8.569  17.490  0.00  0.00    +0.000 HD
ENDROOT
BRANCH   1   6
ATOM      5  C   UNL     1      -0.079   9.970  17.910  0.00  0.00    +0.000 C 
ATOM      6  C   UNL     1       0.677  10.090  19.232  0.00  0.00    +0.000 C 
BRANCH   6   7
ATOM      7  N   UNL     1      -0.193  10.443  20.350  0.00  0.00    +0.000 N 
ATOM      8  C   UNL     1      -0.018  11.589  21.111  0.00  0.00    +0.000 C 
ATOM      9  O   UNL     1       0.841  12.436  20.886  0.00  0.00    +0.000 OA
ATOM     10  H   UNL     1      -1.088   9.973  20.454  0.00  0.00    +0.000 HD
BRANCH   8  11
ATOM     11  C   UNL     1      -1.077  11.775  22.207  0.00  0.00    +0.000 C 
BRANCH  11  12
ATOM     12  N   UNL     1      -0.723  12.873  23.060  0.00  0.00    +0.000 N 
ATOM     13  C   UNL     1      -1.339  14.067  22.924  0.00  0.00    +0.000 C 
ATOM     14  O   UNL     1      -2.164  14.299  22.060  0.00  0.00    +0.000 OA
ATOM     15  H   UNL     1      -0.015  12.861  23.769  0.00  0.00    +0.000 HD
BRANCH  13  16
ATOM     16  O   UNL     1      -0.874  14.935  23.887  0.00  0.00    +0.000 OA
BRANCH  16  17
ATOM     17  C   UNL     1      -1.932  15.515  24.684  0.00  0.00    +0.000 C 
ATOM     18  C   UNL     1      -2.471  16.630  23.676  0.00  0.00    +0.000 C 
ATOM     19  C   UNL     1      -3.127  14.575  24.946  0.00  0.00    +0.000 C 
ATOM     20  C   UNL     1      -1.279  15.548  26.130  0.00  0.00    +0.000 C 
ENDBRANCH  16  17
ENDBRANCH  13  16
ENDBRANCH  11  12
ENDBRANCH   8  11
ENDBRANCH   6   7
ENDBRANCH   1   6
BRANCH   3  21
ATOM     21  C   UNL     1       2.806   6.899  18.521  0.00  0.00    +0.000 C 
BRANCH  21  22
ATOM     22  C   UNL     1       4.181   6.748  17.787  0.00  0.00    +0.000 C 
ATOM     23  O   UNL     1       4.348   6.998  16.598  0.00  0.00    +0.000 OA
BRANCH  22  24
ATOM     24  O   UNL     1       5.163   6.206  18.577  0.00  0.00    +0.000 OA
BRANCH  24  25
ATOM     25  C   UNL     1       5.835   5.007  18.061  0.00  0.00    +0.000 C 
BRANCH  25  26
ATOM     26  C   UNL     1       4.951   3.801  18.222  0.00  0.00    +0.000 A 
ATOM     27  C   UNL     1       4.984   3.206  19.455  0.00  0.00    +0.000 A 
ATOM     28  C   UNL     1       4.470   1.959  19.614  0.00  0.00    +0.000 A 
ATOM     29  C   UNL     1       3.662   1.355  18.661  0.00  0.00    +0.000 A 
ATOM     30  C   UNL     1       3.494   1.987  17.452  0.00  0.00    +0.000 A 
ATOM     31  C   UNL     1       4.185   3.183  17.211  0.00  0.00    +0.000 A 
ENDBRANCH  25  26
ENDBRANCH  24  25
ENDBRANCH  22  24
ENDBRANCH  21  22
BRANCH  21  32
ATOM     32  C   UNL     1       1.866   5.700  18.205  0.00  0.00    +0.000 C 
BRANCH  32  33
ATOM     33  C   UNL     1       1.652   4.750  19.367  0.00  0.00    +0.000 A 
ATOM     34  C   UNL     1       2.272   4.986  20.602  0.00  0.00    +0.000 A 
ATOM     35  C   UNL     1       2.194   4.044  21.628  0.00  0.00    +0.000 A 
ATOM     36  C   UNL     1       1.468   2.871  21.442  0.00  0.00    +0.000 A 
ATOM     37  C   UNL     1       0.787   2.659  20.246  0.00  0.00    +0.000 A 
ATOM     38  C   UNL     1       0.869   3.598  19.215  0.00  0.00    +0.000 A 
ENDBRANCH  32  33
ENDBRANCH  21  32
ENDBRANCH   3  21
TORSDOF 13
ENDMDL
MODEL 3
REMARK VINA RESULT:      -8.0      1.291      1.995
REMARK  Name = 
REMARK  17 active torsions:
REMARK  status: ('A' for Active; 'I' for Inactive)
REMARK    1  A    between atoms: C_1  and  C_2
REMARK    2  A    between atoms: C_2  and  N_3
REMARK    3  A    between atoms: C_2  and  C_15
REMARK    4  A    between atoms: C_4  and  C_6
REMARK    5  A    between atoms: C_6  and  N_7
REMARK    6  A    between atoms: C_8  and  O_10
REMARK    7  A    between atoms: O_10  and  C_11
REMARK    8  A    between atoms: C_11  and  C_12
REMARK    9  A    between atoms: C_11  and  C_13
REMARK   10  A    between atoms: C_11  and  C_14
REMARK   11  A    between atoms: N_17  and  C_18
REMARK   12  A    between atoms: C_18  and  C_19
REMARK   13  A    between atoms: C_18  and  C_26
REMARK   14  A    between atoms: C_19  and  C_20
REMARK   15  A    between atoms: C_26  and  O_28
REMARK   16  A    between atoms: O_28  and  C_29
REMARK   17  A    between atoms: C_29  and  C_30
REMARK                            x       y       z     vdW  Elec       q    Type
REMARK                         _______ _______ _______ _____ _____    ______ ____
ROOT
ATOM      1  C   UNL     1       6.239   5.080  18.997  0.00  0.00    +0.000 C 
ATOM      2  O   UNL     1       5.763   4.080  19.532  0.00  0.00    +0.000 OA
ATOM      3  N   UNL     1       5.542   5.793  18.032  0.00  0.00    +0.000 N 
ATOM      4  H   UNL     1       5.946   6.653  17.682  0.00  0.00    +0.000 HD
ENDROOT
BRANCH   1   6
ATOM      5  C   UNL     1       8.622   4.631  18.383  0.00  0.00    +0.000 C 
ATOM      6  C   UNL     1       7.712   5.506  19.242  0.00  0.00    +0.000 C 
BRANCH   6   7
ATOM      7  N   UNL     1       7.903   6.933  18.996  0.00  0.00    +0.000 N 
ATOM      8  C   UNL     1       7.938   7.482  17.723  0.00  0.00    +0.000 C 
ATOM      9  O   UNL     1       7.757   6.837  16.694  0.00  0.00    +0.000 OA
ATOM     10  H   UNL     1       7.787   7.592  19.761  0.00  0.00    +0.000 HD
BRANCH   8  11
ATOM     11  C   UNL     1       8.108   9.008  17.709  0.00  0.00    +0.000 C 
BRANCH  11  12
ATOM     12  N   UNL     1       8.715   9.451  18.932  0.00  0.00    +0.000 N 
ATOM     13  C   UNL     1       9.541  10.518  18.934  0.00  0.00    +0.000 C 
ATOM     14  O   UNL     1       9.863  11.116  17.925  0.00  0.00    +0.000 OA
ATOM     15  H   UNL     1       8.605   9.021  19.830  0.00  0.00    +0.000 HD
BRANCH  13  16
ATOM     16  O   UNL     1       9.945  10.783  20.224  0.00  0.00    +0.000 OA
BRANCH  16  17
ATOM     17  C   UNL     1      10.008  12.198  20.518  0.00  0.00    +0.000 C 
ATOM     18  C   UNL     1      11.509  12.514  20.075  0.00  0.00    +0.000 C 
ATOM     19  C   UNL     1       9.113  13.080  19.623  0.00  0.00    +0.000 C 
ATOM     20  C   UNL     1       9.212  12.289  21.888  0.00  0.00    +0.000 C 
ENDBRANCH  16  17
ENDBRANCH  13  16
ENDBRANCH  11  12
ENDBRANCH   8  11
ENDBRANCH   6   7
ENDBRANCH   1   6
BRANCH   3  21
ATOM     21  C   UNL     1       4.110   5.522  17.743  0.00  0.00    +0.000 C 
BRANCH  21  22
ATOM     22  C   UNL     1       3.765   4.350  16.763  0.00  0.00    +0.000 C 
ATOM     23  O   UNL     1       4.475   4.023  15.818  0.00  0.00    +0.000 OA
BRANCH  22  24
ATOM     24  O   UNL     1       2.536   3.788  16.997  0.00  0.00    +0.000 OA
BRANCH  24  25
ATOM     25  C   UNL     1       2.528   2.467  17.638  0.00  0.00    +0.000 C 
BRANCH  25  26
ATOM     26  C   UNL     1       2.266   2.601  19.113  0.00  0.00    +0.000 A 
ATOM     27  C   UNL     1       1.106   3.244  19.450  0.00  0.00    +0.000 A 
ATOM     28  C   UNL     1       0.923   3.678  20.723  0.00  0.00    +0.000 A 
ATOM     29  C   UNL     1       1.728   3.270  21.776  0.00  0.00    +0.000 A 
ATOM     30  C   UNL     1       2.837   2.508  21.495  0.00  0.00    +0.000 A 
ATOM     31  C   UNL     1       3.138   2.221  20.155  0.00  0.00    +0.000 A 
ENDBRANCH  25  26
ENDBRANCH  24  25
ENDBRANCH  22  24
ENDBRANCH  21  22
BRANCH  21  32
ATOM     32  C   UNL     1       3.342   6.820  17.358  0.00  0.00    +0.000 C 
BRANCH  32  33
ATOM     33  C   UNL     1       2.587   7.462  18.505  0.00  0.00    +0.000 A 
ATOM     34  C   UNL     1       2.450   6.794  19.731  0.00  0.00    +0.000 A 
ATOM     35  C   UNL     1       1.640   7.317  20.739  0.00  0.00    +0.000 A 
ATOM     36  C   UNL     1       0.983   8.529  20.546  0.00  0.00    +0.000 A 
ATOM     37  C   UNL     1       1.170   9.238  19.361  0.00  0.00    +0.000 A 
ATOM     38  C   UNL     1       1.975   8.713  18.349  0.00  0.00    +0.000 A 
ENDBRANCH  32  33
ENDBRANCH  21  32
ENDBRANCH   3  21
TORSDOF 13
ENDMDL
MODEL 4
REMARK VINA RESULT:      -7.9      2.629      9.981
REMARK  Name = 
REMARK  17 active torsions:
REMARK  status: ('A' for Active; 'I' for Inactive)
REMARK    1  A    between atoms: C_1  and  C_2
REMARK    2  A    between atoms: C_2  and  N_3
REMARK    3  A    between atoms: C_2  and  C_15
REMARK    4  A    between atoms: C_4  and  C_6
REMARK    5  A    between atoms: C_6  and  N_7
REMARK    6  A    between atoms: C_8  and  O_10
REMARK    7  A    between atoms: O_10  and  C_11
REMARK    8  A    between atoms: C_11  and  C_12
REMARK    9  A    between atoms: C_11  and  C_13
REMARK   10  A    between atoms: C_11  and  C_14
REMARK   11  A    between atoms: N_17  and  C_18
REMARK   12  A    between atoms: C_18  and  C_19
REMARK   13  A    between atoms: C_18  and  C_26
REMARK   14  A    between atoms: C_19  and  C_20
REMARK   15  A    between atoms: C_26  and  O_28
REMARK   16  A    between atoms: O_28  and  C_29
REMARK   17  A    between atoms: C_29  and  C_30
REMARK                            x       y       z     vdW  Elec       q    Type
REMARK                         _______ _______ _______ _____ _____    ______ ____
ROOT
ATOM      1  C   UNL     1       8.164   8.810  18.081  0.00  0.00    +0.000 C 
ATOM      2  O   UNL     1       7.505   9.613  17.420  0.00  0.00    +0.000 OA
ATOM      3  N   UNL     1       9.166   9.226  18.945  0.00  0.00    +0.000 N 
ATOM      4  H   UNL     1       9.623   8.531  19.524  0.00  0.00    +0.000 HD
ENDROOT
BRANCH   1   6
ATOM      5  C   UNL     1       8.073   6.586  19.222  0.00  0.00    +0.000 C 
ATOM      6  C   UNL     1       8.030   7.279  17.861  0.00  0.00    +0.000 C 
BRANCH   6   7
ATOM      7  N   UNL     1       6.828   6.952  17.099  0.00  0.00    +0.000 N 
ATOM      8  C   UNL     1       6.705   5.798  16.341  0.00  0.00    +0.000 C 
ATOM      9  O   UNL     1       7.563   4.922  16.283  0.00  0.00    +0.000 OA
ATOM     10  H   UNL     1       5.964   7.452  17.289  0.00  0.00    +0.000 HD
BRANCH   8  11
ATOM     11  C   UNL     1       5.338   5.644  15.659  0.00  0.00    +0.000 C 
BRANCH  11  12
ATOM     12  N   UNL     1       4.498   4.767  16.423  0.00  0.00    +0.000 N 
ATOM     13  C   UNL     1       3.776   5.245  17.459  0.00  0.00    +0.000 C 
ATOM     14  O   UNL     1       3.834   6.401  17.836  0.00  0.00    +0.000 OA
ATOM     15  H   UNL     1       4.398   3.780  16.282  0.00  0.00    +0.000 HD
BRANCH  13  16
ATOM     16  O   UNL     1       3.009   4.233  17.991  0.00  0.00    +0.000 OA
BRANCH  16  17
ATOM     17  C   UNL     1       3.765   3.336  18.837  0.00  0.00    +0.000 C 
ATOM     18  C   UNL     1       4.993   4.280  19.228  0.00  0.00    +0.000 C 
ATOM     19  C   UNL     1       3.076   2.974  20.168  0.00  0.00    +0.000 C 
ATOM     20  C   UNL     1       3.628   1.956  18.065  0.00  0.00    +0.000 C 
ENDBRANCH  16  17
ENDBRANCH  13  16
ENDBRANCH  11  12
ENDBRANCH   8  11
ENDBRANCH   6   7
ENDBRANCH   1   6
BRANCH   3  21
ATOM     21  C   UNL     1       9.362  10.659  19.284  0.00  0.00    +0.000 C 
BRANCH  21  22
ATOM     22  C   UNL     1      10.467  11.455  18.511  0.00  0.00    +0.000 C 
ATOM     23  O   UNL     1      11.668  11.326  18.719  0.00  0.00    +0.000 OA
BRANCH  22  24
ATOM     24  O   UNL     1       9.960  12.392  17.646  0.00  0.00    +0.000 OA
BRANCH  24  25
ATOM     25  C   UNL     1       8.528  12.691  17.768  0.00  0.00    +0.000 C 
BRANCH  25  26
ATOM     26  C   UNL     1       8.324  14.131  18.152  0.00  0.00    +0.000 A 
ATOM     27  C   UNL     1       9.391  14.959  17.926  0.00  0.00    +0.000 A 
ATOM     28  C   UNL     1       9.423  16.187  18.504  0.00  0.00    +0.000 A 
ATOM     29  C   UNL     1       8.310  16.767  19.093  0.00  0.00    +0.000 A 
ATOM     30  C   UNL     1       7.169  16.010  19.220  0.00  0.00    +0.000 A 
ATOM     31  C   UNL     1       7.195  14.672  18.801  0.00  0.00    +0.000 A 
ENDBRANCH  25  26
ENDBRANCH  24  25
ENDBRANCH  22  24
ENDBRANCH  21  22
BRANCH  21  32
ATOM     32  C   UNL     1       9.483  10.879  20.820  0.00  0.00    +0.000 C 
BRANCH  32  33
ATOM     33  C   UNL     1       9.251  12.309  21.266  0.00  0.00    +0.000 A 
ATOM     34  C   UNL     1      10.270  13.265  21.153  0.00  0.00    +0.000 A 
ATOM     35  C   UNL     1      10.110  14.543  21.691  0.00  0.00    +0.000 A 
ATOM     36  C   UNL     1       8.917  14.889  22.320  0.00  0.00    +0.000 A 
ATOM     37  C   UNL     1       7.870  13.971  22.374  0.00  0.00    +0.000 A 
ATOM     38  C   UNL     1       8.031  12.690  21.842  0.00  0.00    +0.000 A 
ENDBRANCH  32  33
ENDBRANCH  21  32
ENDBRANCH   3  21
TORSDOF 13
ENDMDL
MODEL 5
REMARK VINA RESULT:      -7.9      0.890      1.518
REMARK  Name = 
REMARK  17 active torsions:
REMARK  status: ('A' for Active; 'I' for Inactive)
REMARK    1  A    between atoms: C_1  and  C_2
REMARK    2  A    between atoms: C_2  and  N_3
REMARK    3  A    between atoms: C_2  and  C_15
REMARK    4  A    between atoms: C_4  and  C_6
REMARK    5  A    between atoms: C_6  and  N_7
REMARK    6  A    between atoms: C_8  and  O_10
REMARK    7  A    between atoms: O_10  and  C_11
REMARK    8  A    between atoms: C_11  and  C_12
REMARK    9  A    between atoms: C_11  and  C_13
REMARK   10  A    between atoms: C_11  and  C_14
REMARK   11  A    between atoms: N_17  and  C_18
REMARK   12  A    between atoms: C_18  and  C_19
REMARK   13  A    between atoms: C_18  and  C_26
REMARK   14  A    between atoms: C_19  and  C_20
REMARK   15  A    between atoms: C_26  and  O_28
REMARK   16  A    between atoms: O_28  and  C_29
REMARK   17  A    between atoms: C_29  and  C_30
REMARK                            x       y       z     vdW  Elec       q    Type
REMARK                         _______ _______ _______ _____ _____    ______ ____
ROOT
ATOM      1  C   UNL     1       5.746   6.103  18.068  0.00  0.00    +0.000 C 
ATOM      2  O   UNL     1       5.604   5.401  19.068  0.00  0.00    +0.000 OA
ATOM      3  N   UNL     1       4.658   6.621  17.380  0.00  0.00    +0.000 N 
ATOM      4  H   UNL     1       4.832   7.257  16.611  0.00  0.00    +0.000 HD
ENDROOT
BRANCH   1   6
ATOM      5  C   UNL     1       7.213   5.472  16.143  0.00  0.00    +0.000 C 
ATOM      6  C   UNL     1       7.140   6.311  17.416  0.00  0.00    +0.000 C 
BRANCH   6   7
ATOM      7  N   UNL     1       7.412   7.726  17.177  0.00  0.00    +0.000 N 
ATOM      8  C   UNL     1       8.183   8.502  18.028  0.00  0.00    +0.000 C 
ATOM      9  O   UNL     1       8.751   8.066  19.025  0.00  0.00    +0.000 OA
ATOM     10  H   UNL     1       7.231   8.120  16.258  0.00  0.00    +0.000 HD
BRANCH   8  11
ATOM     11  C   UNL     1       8.368   9.950  17.553  0.00  0.00    +0.000 C 
BRANCH  11  12
ATOM     12  N   UNL     1       9.236  10.659  18.449  0.00  0.00    +0.000 N 
ATOM     13  C   UNL     1       9.199  12.008  18.508  0.00  0.00    +0.000 C 
ATOM     14  O   UNL     1       8.494  12.689  17.788  0.00  0.00    +0.000 OA
ATOM     15  H   UNL     1       9.921  10.245  19.052  0.00  0.00    +0.000 HD
BRANCH  13  16
ATOM     16  O   UNL     1      10.074  12.449  19.476  0.00  0.00    +0.000 OA
BRANCH  16  17
ATOM     17  C   UNL     1      11.340  12.890  18.936  0.00  0.00    +0.000 C 
ATOM     18  C   UNL     1      12.331  11.866  19.657  0.00  0.00    +0.000 C 
ATOM     19  C   UNL     1      11.514  12.644  17.422  0.00  0.00    +0.000 C 
ATOM     20  C   UNL     1      11.174  14.469  18.947  0.00  0.00    +0.000 C 
ENDBRANCH  16  17
ENDBRANCH  13  16
ENDBRANCH  11  12
ENDBRANCH   8  11
ENDBRANCH   6   7
ENDBRANCH   1   6
BRANCH   3  21
ATOM     21  C   UNL     1       3.278   6.539  17.923  0.00  0.00    +0.000 C 
BRANCH  21  22
ATOM     22  C   UNL     1       2.394   5.315  17.508  0.00  0.00    +0.000 C 
ATOM     23  O   UNL     1       1.168   5.323  17.535  0.00  0.00    +0.000 OA
BRANCH  22  24
ATOM     24  O   UNL     1       3.123   4.192  17.209  0.00  0.00    +0.000 OA
BRANCH  24  25
ATOM     25  C   UNL     1       2.563   2.909  17.648  0.00  0.00    +0.000 C 
BRANCH  25  26
ATOM     26  C   UNL     1       2.378   2.900  19.141  0.00  0.00    +0.000 A 
ATOM     27  C   UNL     1       3.521   2.738  19.876  0.00  0.00    +0.000 A 
ATOM     28  C   UNL     1       3.435   2.418  21.193  0.00  0.00    +0.000 A 
ATOM     29  C   UNL     1       2.252   2.512  21.910  0.00  0.00    +0.000 A 
ATOM     30  C   UNL     1       1.094   2.805  21.227  0.00  0.00    +0.000 A 
ATOM     31  C   UNL     1       1.149   2.943  19.832  0.00  0.00    +0.000 A 
ENDBRANCH  25  26
ENDBRANCH  24  25
ENDBRANCH  22  24
ENDBRANCH  21  22
BRANCH  21  32
ATOM     32  C   UNL     1       2.504   7.877  17.743  0.00  0.00    +0.000 C 
BRANCH  32  33
ATOM     33  C   UNL     1       1.836   8.388  19.004  0.00  0.00    +0.000 A 
ATOM     34  C   UNL     1       1.205   9.640  19.019  0.00  0.00    +0.000 A 
ATOM     35  C   UNL     1       0.714  10.175  20.211  0.00  0.00    +0.000 A 
ATOM     36  C   UNL     1       0.820   9.450  21.394  0.00  0.00    +0.000 A 
ATOM     37  C   UNL     1       1.379   8.174  21.379  0.00  0.00    +0.000 A 
ATOM     38  C   UNL     1       1.876   7.640  20.189  0.00  0.00    +0.000 A 
ENDBRANCH  32  33
ENDBRANCH  21  32
ENDBRANCH   3  21
TORSDOF 13
ENDMDL
MODEL 6
REMARK VINA RESULT:      -7.9      1.622      4.490
REMARK  Name = 
REMARK  17 active torsions:
REMARK  status: ('A' for Active; 'I' for Inactive)
REMARK    1  A    between atoms: C_1  and  C_2
REMARK    2  A    between atoms: C_2  and  N_3
REMARK    3  A    between atoms: C_2  and  C_15
REMARK    4  A    between atoms: C_4  and  C_6
REMARK    5  A    between atoms: C_6  and  N_7
REMARK    6  A    between atoms: C_8  and  O_10
REMARK    7  A    between atoms: O_10  and  C_11
REMARK    8  A    between atoms: C_11  and  C_12
REMARK    9  A    between atoms: C_11  and  C_13
REMARK   10  A    between atoms: C_11  and  C_14
REMARK   11  A    between atoms: N_17  and  C_18
REMARK   12  A    between atoms: C_18  and  C_19
REMARK   13  A    between atoms: C_18  and  C_26
REMARK   14  A    between atoms: C_19  and  C_20
REMARK   15  A    between atoms: C_26  and  O_28
REMARK   16  A    between atoms: O_28  and  C_29
REMARK   17  A    between atoms: C_29  and  C_30
REMARK                            x       y       z     vdW  Elec       q    Type
REMARK                         _______ _______ _______ _____ _____    ______ ____
ROOT
ATOM      1  C   UNL     1       5.505   6.122  18.140  0.00  0.00    +0.000 C 
ATOM      2  O   UNL     1       5.328   5.427  19.139  0.00  0.00    +0.000 OA
ATOM      3  N   UNL     1       4.452   6.750  17.491  0.00  0.00    +0.000 N 
ATOM      4  H   UNL     1       4.662   7.374  16.722  0.00  0.00    +0.000 HD
ENDROOT
BRANCH   1   6
ATOM      5  C   UNL     1       6.874   5.293  16.217  0.00  0.00    +0.000 C 
ATOM      6  C   UNL     1       6.892   6.201  17.445  0.00  0.00    +0.000 C 
BRANCH   6   7
ATOM      7  N   UNL     1       7.250   7.579  17.122  0.00  0.00    +0.000 N 
ATOM      8  C   UNL     1       8.078   8.352  17.923  0.00  0.00    +0.000 C 
ATOM      9  O   UNL     1       8.628   7.938  18.938  0.00  0.00    +0.000 OA
ATOM     10  H   UNL     1       7.084   7.932  16.184  0.00  0.00    +0.000 HD
BRANCH   8  11
ATOM     11  C   UNL     1       8.348   9.756  17.364  0.00  0.00    +0.000 C 
BRANCH  11  12
ATOM     12  N   UNL     1       9.167  10.504  18.275  0.00  0.00    +0.000 N 
ATOM     13  C   UNL     1       9.081  11.851  18.320  0.00  0.00    +0.000 C 
ATOM     14  O   UNL     1       8.372  12.500  17.574  0.00  0.00    +0.000 OA
ATOM     15  H   UNL     1       9.849  10.120  18.901  0.00  0.00    +0.000 HD
BRANCH  13  16
ATOM     16  O   UNL     1       9.913  12.331  19.307  0.00  0.00    +0.000 OA
BRANCH  16  17
ATOM     17  C   UNL     1      11.018  13.105  18.788  0.00  0.00    +0.000 C 
ATOM     18  C   UNL     1      10.318  14.532  18.631  0.00  0.00    +0.000 C 
ATOM     19  C   UNL     1      12.178  13.316  19.782  0.00  0.00    +0.000 C 
ATOM     20  C   UNL     1      11.694  12.083  17.779  0.00  0.00    +0.000 C 
ENDBRANCH  16  17
ENDBRANCH  13  16
ENDBRANCH  11  12
ENDBRANCH   8  11
ENDBRANCH   6   7
ENDBRANCH   1   6
BRANCH   3  21
ATOM     21  C   UNL     1       3.088   6.796  18.079  0.00  0.00    +0.000 C 
BRANCH  21  22
ATOM     22  C   UNL     1       2.336   8.169  18.089  0.00  0.00    +0.000 C 
ATOM     23  O   UNL     1       2.385   8.977  17.168  0.00  0.00    +0.000 OA
BRANCH  22  24
ATOM     24  O   UNL     1       1.698   8.432  19.275  0.00  0.00    +0.000 OA
BRANCH  24  25
ATOM     25  C   UNL     1       0.906   9.666  19.336  0.00  0.00    +0.000 C 
BRANCH  25  26
ATOM     26  C   UNL     1       0.236   9.794  20.677  0.00  0.00    +0.000 A 
ATOM     27  C   UNL     1      -0.552  10.901  20.840  0.00  0.00    +0.000 A 
ATOM     28  C   UNL     1      -0.951  11.265  22.085  0.00  0.00    +0.000 A 
ATOM     29  C   UNL     1      -0.837  10.426  23.183  0.00  0.00    +0.000 A 
ATOM     30  C   UNL     1      -0.164   9.236  23.030  0.00  0.00    +0.000 A 
ATOM     31  C   UNL     1       0.422   8.946  21.789  0.00  0.00    +0.000 A 
ENDBRANCH  25  26
ENDBRANCH  24  25
ENDBRANCH  22  24
ENDBRANCH  21  22
BRANCH  21  32
ATOM     32  C   UNL     1       3.038   6.117  19.479  0.00  0.00    +0.000 C 
BRANCH  32  33
ATOM     33  C   UNL     1       2.296   4.796  19.507  0.00  0.00    +0.000 A 
ATOM     34  C   UNL     1       2.216   3.999  18.355  0.00  0.00    +0.000 A 
ATOM     35  C   UNL     1       1.419   2.855  18.336  0.00  0.00    +0.000 A 
ATOM     36  C   UNL     1       0.717   2.476  19.477  0.00  0.00    +0.000 A 
ATOM     37  C   UNL     1       0.846   3.218  20.649  0.00  0.00    +0.000 A 
ATOM     38  C   UNL     1       1.639   4.368  20.668  0.00  0.00    +0.000 A 
ENDBRANCH  32  33
ENDBRANCH  21  32
ENDBRANCH   3  21
TORSDOF 13
ENDMDL
MODEL 7
REMARK VINA RESULT:      -7.9      1.945      5.057
REMARK  Name = 
REMARK  17 active torsions:
REMARK  status: ('A' for Active; 'I' for Inactive)
REMARK    1  A    between atoms: C_1  and  C_2
REMARK    2  A    between atoms: C_2  and  N_3
REMARK    3  A    between atoms: C_2  and  C_15
REMARK    4  A    between atoms: C_4  and  C_6
REMARK    5  A    between atoms: C_6  and  N_7
REMARK    6  A    between atoms: C_8  and  O_10
REMARK    7  A    between atoms: O_10  and  C_11
REMARK    8  A    between atoms: C_11  and  C_12
REMARK    9  A    between atoms: C_11  and  C_13
REMARK   10  A    between atoms: C_11  and  C_14
REMARK   11  A    between atoms: N_17  and  C_18
REMARK   12  A    between atoms: C_18  and  C_19
REMARK   13  A    between atoms: C_18  and  C_26
REMARK   14  A    between atoms: C_19  and  C_20
REMARK   15  A    between atoms: C_26  and  O_28
REMARK   16  A    between atoms: O_28  and  C_29
REMARK   17  A    between atoms: C_29  and  C_30
REMARK                            x       y       z     vdW  Elec       q    Type
REMARK                         _______ _______ _______ _____ _____    ______ ____
ROOT
ATOM      1  C   UNL     1       4.904   6.001  17.440  0.00  0.00    +0.000 C 
ATOM      2  O   UNL     1       4.257   5.083  16.938  0.00  0.00    +0.000 OA
ATOM      3  N   UNL     1       4.285   7.069  18.073  0.00  0.00    +0.000 N 
ATOM      4  H   UNL     1       4.865   7.757  18.539  0.00  0.00    +0.000 HD
ENDROOT
BRANCH   1   6
ATOM      5  C   UNL     1       6.856   5.178  16.110  0.00  0.00    +0.000 C 
ATOM      6  C   UNL     1       6.441   6.107  17.249  0.00  0.00    +0.000 C 
BRANCH   6   7
ATOM      7  N   UNL     1       6.859   7.489  17.031  0.00  0.00    +0.000 N 
ATOM      8  C   UNL     1       7.810   8.124  17.816  0.00  0.00    +0.000 C 
ATOM      9  O   UNL     1       8.426   7.573  18.724  0.00  0.00    +0.000 OA
ATOM     10  H   UNL     1       6.629   7.948  16.154  0.00  0.00    +0.000 HD
BRANCH   8  11
ATOM     11  C   UNL     1       8.119   9.561  17.376  0.00  0.00    +0.000 C 
BRANCH  11  12
ATOM     12  N   UNL     1       9.104  10.144  18.242  0.00  0.00    +0.000 N 
ATOM     13  C   UNL     1       9.285  11.482  18.266  0.00  0.00    +0.000 C 
ATOM     14  O   UNL     1       8.686  12.249  17.535  0.00  0.00    +0.000 OA
ATOM     15  H   UNL     1       9.723   9.641  18.849  0.00  0.00    +0.000 HD
BRANCH  13  16
ATOM     16  O   UNL     1      10.234  11.801  19.211  0.00  0.00    +0.000 OA
BRANCH  16  17
ATOM     17  C   UNL     1      10.440  13.226  19.347  0.00  0.00    +0.000 C 
ATOM     18  C   UNL     1       9.184  13.611  20.255  0.00  0.00    +0.000 C 
ATOM     19  C   UNL     1      11.686  13.619  20.167  0.00  0.00    +0.000 C 
ATOM     20  C   UNL     1      10.924  13.632  17.890  0.00  0.00    +0.000 C 
ENDBRANCH  16  17
ENDBRANCH  13  16
ENDBRANCH  11  12
ENDBRANCH   8  11
ENDBRANCH   6   7
ENDBRANCH   1   6
BRANCH   3  21
ATOM     21  C   UNL     1       2.829   7.066  18.367  0.00  0.00    +0.000 C 
BRANCH  21  22
ATOM     22  C   UNL     1       2.009   8.361  18.048  0.00  0.00    +0.000 C 
ATOM     23  O   UNL     1       2.232   9.086  17.085  0.00  0.00    +0.000 OA
BRANCH  22  24
ATOM     24  O   UNL     1       1.081   8.670  19.011  0.00  0.00    +0.000 OA
BRANCH  24  25
ATOM     25  C   UNL     1       0.911  10.093  19.328  0.00  0.00    +0.000 C 
BRANCH  25  26
ATOM     26  C   UNL     1      -0.406  10.594  18.802  0.00  0.00    +0.000 A 
ATOM     27  C   UNL     1      -0.959  11.638  19.493  0.00  0.00    +0.000 A 
ATOM     28  C   UNL     1      -2.262  11.961  19.293  0.00  0.00    +0.000 A 
ATOM     29  C   UNL     1      -3.000  11.472  18.226  0.00  0.00    +0.000 A 
ATOM     30  C   UNL     1      -2.430  10.513  17.422  0.00  0.00    +0.000 A 
ATOM     31  C   UNL     1      -1.153  10.032  17.745  0.00  0.00    +0.000 A 
ENDBRANCH  25  26
ENDBRANCH  24  25
ENDBRANCH  22  24
ENDBRANCH  21  22
BRANCH  21  32
ATOM     32  C   UNL     1       2.530   6.553  19.806  0.00  0.00    +0.000 C 
BRANCH  32  33
ATOM     33  C   UNL     1       2.105   5.100  19.876  0.00  0.00    +0.000 A 
ATOM     34  C   UNL     1       1.654   4.434  18.727  0.00  0.00    +0.000 A 
ATOM     35  C   UNL     1       1.129   3.144  18.813  0.00  0.00    +0.000 A 
ATOM     36  C   UNL     1       1.078   2.493  20.043  0.00  0.00    +0.000 A 
ATOM     37  C   UNL     1       1.590   3.117  21.179  0.00  0.00    +0.000 A 
ATOM     38  C   UNL     1       2.110   4.410  21.096  0.00  0.00    +0.000 A 
ENDBRANCH  32  33
ENDBRANCH  21  32
ENDBRANCH   3  21
TORSDOF 13
ENDMDL
MODEL 8
REMARK VINA RESULT:      -7.8      1.906      4.784
REMARK  Name = 
REMARK  17 active torsions:
REMARK  status: ('A' for Active; 'I' for Inactive)
REMARK    1  A    between atoms: C_1  and  C_2
REMARK    2  A    between atoms: C_2  and  N_3
REMARK    3  A    between atoms: C_2  and  C_15
REMARK    4  A    between atoms: C_4  and  C_6
REMARK    5  A    between atoms: C_6  and  N_7
REMARK    6  A    between atoms: C_8  and  O_10
REMARK    7  A    between atoms: O_10  and  C_11
REMARK    8  A    between atoms: C_11  and  C_12
REMARK    9  A    between atoms: C_11  and  C_13
REMARK   10  A    between atoms: C_11  and  C_14
REMARK   11  A    between atoms: N_17  and  C_18
REMARK   12  A    between atoms: C_18  and  C_19
REMARK   13  A    between atoms: C_18  and  C_26
REMARK   14  A    between atoms: C_19  and  C_20
REMARK   15  A    between atoms: C_26  and  O_28
REMARK   16  A    between atoms: O_28  and  C_29
REMARK   17  A    between atoms: C_29  and  C_30
REMARK                            x       y       z     vdW  Elec       q    Type
REMARK                         _______ _______ _______ _____ _____    ______ ____
ROOT
ATOM      1  C   UNL     1       4.948   6.717  17.192  0.00  0.00    +0.000 C 
ATOM      2  O   UNL     1       4.355   6.703  16.114  0.00  0.00    +0.000 OA
ATOM      3  N   UNL     1       4.290   6.987  18.383  0.00  0.00    +0.000 N 
ATOM      4  H   UNL     1       4.810   6.907  19.249  0.00  0.00    +0.000 HD
ENDROOT
BRANCH   1   6
ATOM      5  C   UNL     1       6.965   5.639  16.177  0.00  0.00    +0.000 C 
ATOM      6  C   UNL     1       6.495   6.602  17.266  0.00  0.00    +0.000 C 
BRANCH   6   7
ATOM      7  N   UNL     1       7.133   7.913  17.174  0.00  0.00    +0.000 N 
ATOM      8  C   UNL     1       8.126   8.332  18.047  0.00  0.00    +0.000 C 
ATOM      9  O   UNL     1       8.598   7.629  18.935  0.00  0.00    +0.000 OA
ATOM     10  H   UNL     1       7.025   8.462  16.326  0.00  0.00    +0.000 HD
BRANCH   8  11
ATOM     11  C   UNL     1       8.678   9.730  17.733  0.00  0.00    +0.000 C 
BRANCH  11  12
ATOM     12  N   UNL     1       8.560  10.580  18.883  0.00  0.00    +0.000 N 
ATOM     13  C   UNL     1       9.648  11.202  19.386  0.00  0.00    +0.000 C 
ATOM     14  O   UNL     1      10.771  11.039  18.948  0.00  0.00    +0.000 OA
ATOM     15  H   UNL     1       7.718  10.757  19.398  0.00  0.00    +0.000 HD
BRANCH  13  16
ATOM     16  O   UNL     1       9.272  12.002  20.442  0.00  0.00    +0.000 OA
BRANCH  16  17
ATOM     17  C   UNL     1       9.552  13.403  20.217  0.00  0.00    +0.000 C 
ATOM     18  C   UNL     1       9.875  13.872  21.709  0.00  0.00    +0.000 C 
ATOM     19  C   UNL     1      10.835  13.679  19.405  0.00  0.00    +0.000 C 
ATOM     20  C   UNL     1       8.450  13.794  19.144  0.00  0.00    +0.000 C 
ENDBRANCH  16  17
ENDBRANCH  13  16
ENDBRANCH  11  12
ENDBRANCH   8  11
ENDBRANCH   6   7
ENDBRANCH   1   6
BRANCH   3  21
ATOM     21  C   UNL     1       2.809   7.064  18.458  0.00  0.00    +0.000 C 
BRANCH  21  22
ATOM     22  C   UNL     1       2.126   8.439  18.149  0.00  0.00    +0.000 C 
ATOM     23  O   UNL     1       2.584   9.264  17.365  0.00  0.00    +0.000 OA
BRANCH  22  24
ATOM     24  O   UNL     1       1.018   8.683  18.920  0.00  0.00    +0.000 OA
BRANCH  24  25
ATOM     25  C   UNL     1       0.700  10.090  19.189  0.00  0.00    +0.000 C 
BRANCH  25  26
ATOM     26  C   UNL     1       0.252  10.263  20.614  0.00  0.00    +0.000 A 
ATOM     27  C   UNL     1       0.248   9.125  21.374  0.00  0.00    +0.000 A 
ATOM     28  C   UNL     1      -0.412   9.110  22.560  0.00  0.00    +0.000 A 
ATOM     29  C   UNL     1      -0.858  10.266  23.183  0.00  0.00    +0.000 A 
ATOM     30  C   UNL     1      -0.751  11.457  22.505  0.00  0.00    +0.000 A 
ATOM     31  C   UNL     1      -0.247  11.447  21.196  0.00  0.00    +0.000 A 
ENDBRANCH  25  26
ENDBRANCH  24  25
ENDBRANCH  22  24
ENDBRANCH  21  22
BRANCH  21  32
ATOM     32  C   UNL     1       2.263   6.451  19.780  0.00  0.00    +0.000 C 
BRANCH  32  33
ATOM     33  C   UNL     1       1.923   4.977  19.692  0.00  0.00    +0.000 A 
ATOM     34  C   UNL     1       1.820   4.343  18.445  0.00  0.00    +0.000 A 
ATOM     35  C   UNL     1       1.370   3.026  18.352  0.00  0.00    +0.000 A 
ATOM     36  C   UNL     1       1.049   2.316  19.506  0.00  0.00    +0.000 A 
ATOM     37  C   UNL     1       1.218   2.911  20.755  0.00  0.00    +0.000 A 
ATOM     38  C   UNL     1       1.662   4.231  20.850  0.00  0.00    +0.000 A 
ENDBRANCH  32  33
ENDBRANCH  21  32
ENDBRANCH   3  21
TORSDOF 13
ENDMDL
MODEL 9
REMARK VINA RESULT:      -7.8      1.708      4.686
REMARK  Name = 
REMARK  17 active torsions:
REMARK  status: ('A' for Active; 'I' for Inactive)
REMARK    1  A    between atoms: C_1  and  C_2
REMARK    2  A    between atoms: C_2  and  N_3
REMARK    3  A    between atoms: C_2  and  C_15
REMARK    4  A    between atoms: C_4  and  C_6
REMARK    5  A    between atoms: C_6  and  N_7
REMARK    6  A    between atoms: C_8  and  O_10
REMARK    7  A    between atoms: O_10  and  C_11
REMARK    8  A    between atoms: C_11  and  C_12
REMARK    9  A    between atoms: C_11  and  C_13
REMARK   10  A    between atoms: C_11  and  C_14
REMARK   11  A    between atoms: N_17  and  C_18
REMARK   12  A    between atoms: C_18  and  C_19
REMARK   13  A    between atoms: C_18  and  C_26
REMARK   14  A    between atoms: C_19  and  C_20
REMARK   15  A    between atoms: C_26  and  O_28
REMARK   16  A    between atoms: O_28  and  C_29
REMARK   17  A    between atoms: C_29  and  C_30
REMARK                            x       y       z     vdW  Elec       q    Type
REMARK                         _______ _______ _______ _____ _____    ______ ____
ROOT
ATOM      1  C   UNL     1       5.506   5.447  18.417  0.00  0.00    +0.000 C 
ATOM      2  O   UNL     1       5.030   4.564  17.704  0.00  0.00    +0.000 OA
ATOM      3  N   UNL     1       4.742   6.519  18.858  0.00  0.00    +0.000 N 
ATOM      4  H   UNL     1       5.160   7.174  19.507  0.00  0.00    +0.000 HD
ENDROOT
BRANCH   1   6
ATOM      5  C   UNL     1       7.737   4.453  17.882  0.00  0.00    +0.000 C 
ATOM      6  C   UNL     1       7.026   5.506  18.728  0.00  0.00    +0.000 C 
BRANCH   6   7
ATOM      7  N   UNL     1       7.560   6.850  18.524  0.00  0.00    +0.000 N 
ATOM      8  C   UNL     1       7.325   7.591  17.376  0.00  0.00    +0.000 C 
ATOM      9  O   UNL     1       6.605   7.216  16.455  0.00  0.00    +0.000 OA
ATOM     10  H   UNL     1       7.930   7.366  19.318  0.00  0.00    +0.000 HD
BRANCH   8  11
ATOM     11  C   UNL     1       7.952   8.992  17.401  0.00  0.00    +0.000 C 
BRANCH  11  12
ATOM     12  N   UNL     1       8.457   9.287  18.712  0.00  0.00    +0.000 N 
ATOM     13  C   UNL     1       9.328  10.302  18.894  0.00  0.00    +0.000 C 
ATOM     14  O   UNL     1       9.773  10.972  17.981  0.00  0.00    +0.000 OA
ATOM     15  H   UNL     1       8.242   8.782  19.550  0.00  0.00    +0.000 HD
BRANCH  13  16
ATOM     16  O   UNL     1       9.616  10.425  20.235  0.00  0.00    +0.000 OA
BRANCH  16  17
ATOM     17  C   UNL     1       9.735  11.800  20.665  0.00  0.00    +0.000 C 
ATOM     18  C   UNL     1      11.296  12.040  20.428  0.00  0.00    +0.000 C 
ATOM     19  C   UNL     1       9.014  12.820  19.760  0.00  0.00    +0.000 C 
ATOM     20  C   UNL     1       8.786  11.834  21.937  0.00  0.00    +0.000 C 
ENDBRANCH  16  17
ENDBRANCH  13  16
ENDBRANCH  11  12
ENDBRANCH   8  11
ENDBRANCH   6   7
ENDBRANCH   1   6
BRANCH   3  21
ATOM     21  C   UNL     1       3.269   6.556  18.674  0.00  0.00    +0.000 C 
BRANCH  21  22
ATOM     22  C   UNL     1       2.635   7.852  18.065  0.00  0.00    +0.000 C 
ATOM     23  O   UNL     1       3.174   8.527  17.195  0.00  0.00    +0.000 OA
BRANCH  22  24
ATOM     24  O   UNL     1       1.461   8.222  18.672  0.00  0.00    +0.000 OA
BRANCH  24  25
ATOM     25  C   UNL     1       1.335   9.633  19.053  0.00  0.00    +0.000 C 
BRANCH  25  26
ATOM     26  C   UNL     1       0.641   9.757  20.383  0.00  0.00    +0.000 A 
ATOM     27  C   UNL     1      -0.327  10.721  20.455  0.00  0.00    +0.000 A 
ATOM     28  C   UNL     1      -0.795  11.115  21.668  0.00  0.00    +0.000 A 
ATOM     29  C   UNL     1      -0.546  10.405  22.833  0.00  0.00    +0.000 A 
ATOM     30  C   UNL     1       0.323   9.341  22.777  0.00  0.00    +0.000 A 
ATOM     31  C   UNL     1       0.961   9.052  21.562  0.00  0.00    +0.000 A 
ENDBRANCH  25  26
ENDBRANCH  24  25
ENDBRANCH  22  24
ENDBRANCH  21  22
BRANCH  21  32
ATOM     32  C   UNL     1       2.513   6.114  19.962  0.00  0.00    +0.000 C 
BRANCH  32  33
ATOM     33  C   UNL     1       2.046   4.673  19.948  0.00  0.00    +0.000 A 
ATOM     34  C   UNL     1       1.660   4.060  18.747  0.00  0.00    +0.000 A 
ATOM     35  C   UNL     1       1.097   2.784  18.748  0.00  0.00    +0.000 A 
ATOM     36  C   UNL     1       0.942   2.093  19.947  0.00  0.00    +0.000 A 
ATOM     37  C   UNL     1       1.389   2.660  21.138  0.00  0.00    +0.000 A 
ATOM     38  C   UNL     1       1.947   3.940  21.139  0.00  0.00    +0.000 A 
ENDBRANCH  32  33
ENDBRANCH  21  32
ENDBRANCH   3  21
TORSDOF 13
ENDMDL
