MODEL 1
REMARK VINA RESULT:      -8.7      0.000      0.000
REMARK  Name = 
REMARK  6 active torsions:
REMARK  status: ('A' for Active; 'I' for Inactive)
REMARK    1  A    between atoms: C_1  and  O_2
REMARK    2  A    between atoms: O_2  and  C_3
REMARK    3  A    between atoms: C_3  and  C_5
REMARK    4  A    between atoms: N_18  and  C_19
REMARK    5  A    between atoms: C_19  and  C_20
REMARK    6  A    between atoms: C_20  and  C_21
REMARK                            x       y       z     vdW  Elec       q    Type
REMARK                         _______ _______ _______ _____ _____    ______ ____
ROOT
ATOM      1  C   UNL     1       2.442   4.475  20.144  0.00  0.00    +0.000 A 
ATOM      2  C   UNL     1       1.765   5.445  20.863  0.00  0.00    +0.000 A 
ATOM      3  C   UNL     1       1.771   6.707  20.261  0.00  0.00    +0.000 A 
ATOM      4  C   UNL     1       1.161   8.004  20.566  0.00  0.00    +0.000 A 
ATOM      5  C   UNL     1       0.332   8.399  21.642  0.00  0.00    +0.000 A 
ATOM      6  C   UNL     1      -0.159   9.702  21.711  0.00  0.00    +0.000 A 
ATOM      7  C   UNL     1       0.163  10.632  20.731  0.00  0.00    +0.000 A 
ATOM      8  C   UNL     1       0.986  10.290  19.648  0.00  0.00    +0.000 A 
ATOM      9  C   UNL     1       1.480   8.979  19.567  0.00  0.00    +0.000 A 
ATOM     10  N   UNL     1       2.293   8.412  18.590  0.00  0.00    +0.000 N 
ATOM     11  C   UNL     1       2.394   7.148  19.053  0.00  0.00    +0.000 A 
ATOM     12  C   UNL     1       3.101   6.155  18.395  0.00  0.00    +0.000 A 
ATOM     13  C   UNL     1       3.769   6.213  17.226  0.00  0.00    +0.000 A 
ATOM     14  N   UNL     1       4.254   4.889  17.053  0.00  0.00    +0.000 N 
ATOM     15  C   UNL     1       3.867   4.130  18.108  0.00  0.00    +0.000 A 
ATOM     16  N   UNL     1       3.132   4.904  18.895  0.00  0.00    +0.000 N 
ATOM     17  H   UNL     1       2.684   8.844  17.759  0.00  0.00    +0.000 HD
ENDROOT
BRANCH   1  18
ATOM     18  C   UNL     1       2.433   3.069  20.564  0.00  0.00    +0.000 C 
ATOM     19  O   UNL     1       3.410   2.456  20.930  0.00  0.00    +0.000 OA
BRANCH  18  21
ATOM     20  C   UNL     1       0.852   2.282  19.003  0.00  0.00    +0.000 C 
ATOM     21  O   UNL     1       1.159   2.633  20.354  0.00  0.00    +0.000 OA
ENDBRANCH  18  21
ENDBRANCH   1  18
BRANCH  14  22
ATOM     22  C   UNL     1       5.036   4.311  15.947  0.00  0.00    +0.000 C 
BRANCH  22  23
ATOM     23  C   UNL     1       6.549   4.284  16.138  0.00  0.00    +0.000 C 
BRANCH  23  24
ATOM     24  C   UNL     1       7.121   5.354  17.037  0.00  0.00    +0.000 A 
ATOM     25  C   UNL     1       7.203   6.701  16.658  0.00  0.00    +0.000 A 
ATOM     26  C   UNL     1       7.758   7.648  17.523  0.00  0.00    +0.000 A 
ATOM     27  C   UNL     1       8.211   7.265  18.782  0.00  0.00    +0.000 A 
ATOM     28  C   UNL     1       8.093   5.939  19.189  0.00  0.00    +0.000 A 
ATOM     29  C   UNL     1       7.545   4.992  18.325  0.00  0.00    +0.000 A 
ENDBRANCH  23  24
ENDBRANCH  22  23
ENDBRANCH  14  22
TORSDOF 5
ENDMDL
MODEL 2
REMARK VINA RESULT:      -8.7      3.751      5.904
REMARK  Name = 
REMARK  6 active torsions:
REMARK  status: ('A' for Active; 'I' for Inactive)
REMARK    1  A    between atoms: C_1  and  O_2
REMARK    2  A    between atoms: O_2  and  C_3
REMARK    3  A    between atoms: C_3  and  C_5
REMARK    4  A    between atoms: N_18  and  C_19
REMARK    5  A    between atoms: C_19  and  C_20
REMARK    6  A    between atoms: C_20  and  C_21
REMARK                            x       y       z     vdW  Elec       q    Type
REMARK                         _______ _______ _______ _____ _____    ______ ____
ROOT
ATOM      1  C   UNL     1       5.872   4.620  15.967  0.00  0.00    +0.000 A 
ATOM      2  C   UNL     1       4.762   3.833  16.224  0.00  0.00    +0.000 A 
ATOM      3  C   UNL     1       4.215   4.023  17.497  0.00  0.00    +0.000 A 
ATOM      4  C   UNL     1       3.041   3.508  18.207  0.00  0.00    +0.000 A 
ATOM      5  C   UNL     1       2.044   2.594  17.792  0.00  0.00    +0.000 A 
ATOM      6  C   UNL     1       0.989   2.267  18.643  0.00  0.00    +0.000 A 
ATOM      7  C   UNL     1       0.905   2.828  19.912  0.00  0.00    +0.000 A 
ATOM      8  C   UNL     1       1.871   3.734  20.370  0.00  0.00    +0.000 A 
ATOM      9  C   UNL     1       2.933   4.073  19.517  0.00  0.00    +0.000 A 
ATOM     10  N   UNL     1       3.990   4.950  19.747  0.00  0.00    +0.000 N 
ATOM     11  C   UNL     1       4.644   4.865  18.568  0.00  0.00    +0.000 A 
ATOM     12  C   UNL     1       5.785   5.594  18.281  0.00  0.00    +0.000 A 
ATOM     13  C   UNL     1       6.433   6.501  19.039  0.00  0.00    +0.000 A 
ATOM     14  N   UNL     1       7.500   6.931  18.206  0.00  0.00    +0.000 N 
ATOM     15  C   UNL     1       7.441   6.267  17.025  0.00  0.00    +0.000 A 
ATOM     16  N   UNL     1       6.369   5.488  17.071  0.00  0.00    +0.000 N 
ATOM     17  H   UNL     1       4.192   5.500  20.575  0.00  0.00    +0.000 HD
ENDROOT
BRANCH   1  18
ATOM     18  C   UNL     1       6.499   4.643  14.641  0.00  0.00    +0.000 C 
ATOM     19  O   UNL     1       7.518   5.238  14.374  0.00  0.00    +0.000 OA
BRANCH  18  21
ATOM     20  C   UNL     1       6.219   3.532  12.581  0.00  0.00    +0.000 C 
ATOM     21  O   UNL     1       5.651   3.958  13.822  0.00  0.00    +0.000 OA
ENDBRANCH  18  21
ENDBRANCH   1  18
BRANCH  14  22
ATOM     22  C   UNL     1       8.544   7.938  18.461  0.00  0.00    +0.000 C 
BRANCH  22  23
ATOM     23  C   UNL     1       8.250   9.350  17.964  0.00  0.00    +0.000 C 
BRANCH  23  24
ATOM     24  C   UNL     1       9.092  10.450  18.567  0.00  0.00    +0.000 A 
ATOM     25  C   UNL     1       9.581  11.530  17.818  0.00  0.00    +0.000 A 
ATOM     26  C   UNL     1      10.370  12.512  18.422  0.00  0.00    +0.000 A 
ATOM     27  C   UNL     1      10.655  12.440  19.782  0.00  0.00    +0.000 A 
ATOM     28  C   UNL     1      10.138  11.399  20.547  0.00  0.00    +0.000 A 
ATOM     29  C   UNL     1       9.355  10.415  19.945  0.00  0.00    +0.000 A 
ENDBRANCH  23  24
ENDBRANCH  22  23
ENDBRANCH  14  22
TORSDOF 5
ENDMDL
MODEL 3
REMARK VINA RESULT:      -8.4      0.605      1.385
REMARK  Name = 
REMARK  6 active torsions:
REMARK  status: ('A' for Active; 'I' for Inactive)
REMARK    1  A    between atoms: C_1  and  O_2
REMARK    2  A    between atoms: O_2  and  C_3
REMARK    3  A    between atoms: C_3  and  C_5
REMARK    4  A    between atoms: N_18  and  C_19
REMARK    5  A    between atoms: C_19  and  C_20
REMARK    6  A    between atoms: C_20  and  C_21
REMARK                            x       y       z     vdW  Elec       q    Type
REMARK                         _______ _______ _______ _____ _____    ______ ____
ROOT
ATOM      1  C   UNL     1       2.516   4.170  19.853  0.00  0.00    +0.000 A 
ATOM      2  C   UNL     1       1.860   5.106  20.633  0.00  0.00    +0.000 A 
ATOM      3  C   UNL     1       1.895   6.403  20.113  0.00  0.00    +0.000 A 
ATOM      4  C   UNL     1       1.314   7.692  20.500  0.00  0.00    +0.000 A 
ATOM      5  C   UNL     1       0.493   8.036  21.600  0.00  0.00    +0.000 A 
ATOM      6  C   UNL     1       0.032   9.342  21.753  0.00  0.00    +0.000 A 
ATOM      7  C   UNL     1       0.375  10.326  20.834  0.00  0.00    +0.000 A 
ATOM      8  C   UNL     1       1.191  10.035  19.731  0.00  0.00    +0.000 A 
ATOM      9  C   UNL     1       1.655   8.721  19.566  0.00  0.00    +0.000 A 
ATOM     10  N   UNL     1       2.457   8.200  18.554  0.00  0.00    +0.000 N 
ATOM     11  C   UNL     1       2.529   6.907  18.935  0.00  0.00    +0.000 A 
ATOM     12  C   UNL     1       3.213   5.943  18.215  0.00  0.00    +0.000 A 
ATOM     13  C   UNL     1       3.883   6.060  17.052  0.00  0.00    +0.000 A 
ATOM     14  N   UNL     1       4.339   4.739  16.793  0.00  0.00    +0.000 N 
ATOM     15  C   UNL     1       3.934   3.923  17.799  0.00  0.00    +0.000 A 
ATOM     16  N   UNL     1       3.217   4.661  18.633  0.00  0.00    +0.000 N 
ATOM     17  H   UNL     1       2.858   8.675  17.753  0.00  0.00    +0.000 HD
ENDROOT
BRANCH   1  18
ATOM     18  C   UNL     1       2.475   2.740  20.182  0.00  0.00    +0.000 C 
ATOM     19  O   UNL     1       1.665   1.958  19.740  0.00  0.00    +0.000 OA
BRANCH  18  21
ATOM     20  C   UNL     1       4.623   1.892  20.651  0.00  0.00    +0.000 C 
ATOM     21  O   UNL     1       3.445   2.552  21.121  0.00  0.00    +0.000 OA
ENDBRANCH  18  21
ENDBRANCH   1  18
BRANCH  14  22
ATOM     22  C   UNL     1       5.109   4.216  15.652  0.00  0.00    +0.000 C 
BRANCH  22  23
ATOM     23  C   UNL     1       6.624   4.358  15.744  0.00  0.00    +0.000 C 
BRANCH  23  24
ATOM     24  C   UNL     1       7.139   5.250  16.850  0.00  0.00    +0.000 A 
ATOM     25  C   UNL     1       7.565   4.754  18.090  0.00  0.00    +0.000 A 
ATOM     26  C   UNL     1       8.016   5.624  19.085  0.00  0.00    +0.000 A 
ATOM     27  C   UNL     1       8.070   6.994  18.843  0.00  0.00    +0.000 A 
ATOM     28  C   UNL     1       7.693   7.496  17.600  0.00  0.00    +0.000 A 
ATOM     29  C   UNL     1       7.237   6.628  16.608  0.00  0.00    +0.000 A 
ENDBRANCH  23  24
ENDBRANCH  22  23
ENDBRANCH  14  22
TORSDOF 5
ENDMDL
MODEL 4
REMARK VINA RESULT:      -8.4      1.654      2.806
REMARK  Name = 
REMARK  6 active torsions:
REMARK  status: ('A' for Active; 'I' for Inactive)
REMARK    1  A    between atoms: C_1  and  O_2
REMARK    2  A    between atoms: O_2  and  C_3
REMARK    3  A    between atoms: C_3  and  C_5
REMARK    4  A    between atoms: N_18  and  C_19
REMARK    5  A    between atoms: C_19  and  C_20
REMARK    6  A    between atoms: C_20  and  C_21
REMARK                            x       y       z     vdW  Elec       q    Type
REMARK                         _______ _______ _______ _____ _____    ______ ____
ROOT
ATOM      1  C   UNL     1       2.562   4.457  20.447  0.00  0.00    +0.000 A 
ATOM      2  C   UNL     1       1.771   5.445  21.008  0.00  0.00    +0.000 A 
ATOM      3  C   UNL     1       1.824   6.667  20.330  0.00  0.00    +0.000 A 
ATOM      4  C   UNL     1       1.146   7.959  20.468  0.00  0.00    +0.000 A 
ATOM      5  C   UNL     1       0.172   8.391  21.399  0.00  0.00    +0.000 A 
ATOM      6  C   UNL     1      -0.357   9.678  21.320  0.00  0.00    +0.000 A 
ATOM      7  C   UNL     1       0.067  10.557  20.330  0.00  0.00    +0.000 A 
ATOM      8  C   UNL     1       1.033  10.177  19.388  0.00  0.00    +0.000 A 
ATOM      9  C   UNL     1       1.567   8.881  19.458  0.00  0.00    +0.000 A 
ATOM     10  N   UNL     1       2.517   8.284  18.634  0.00  0.00    +0.000 N 
ATOM     11  C   UNL     1       2.589   7.054  19.187  0.00  0.00    +0.000 A 
ATOM     12  C   UNL     1       3.401   6.048  18.693  0.00  0.00    +0.000 A 
ATOM     13  C   UNL     1       4.215   6.056  17.620  0.00  0.00    +0.000 A 
ATOM     14  N   UNL     1       4.753   4.742  17.597  0.00  0.00    +0.000 N 
ATOM     15  C   UNL     1       4.251   4.036  18.641  0.00  0.00    +0.000 A 
ATOM     16  N   UNL     1       3.399   4.831  19.273  0.00  0.00    +0.000 N 
ATOM     17  H   UNL     1       3.003   8.677  17.834  0.00  0.00    +0.000 HD
ENDROOT
BRANCH   1  18
ATOM     18  C   UNL     1       2.534   3.080  20.953  0.00  0.00    +0.000 C 
ATOM     19  O   UNL     1       3.473   2.520  21.471  0.00  0.00    +0.000 OA
BRANCH  18  21
ATOM     20  C   UNL     1       1.119   2.302  19.237  0.00  0.00    +0.000 C 
ATOM     21  O   UNL     1       1.304   2.593  20.624  0.00  0.00    +0.000 OA
ENDBRANCH  18  21
ENDBRANCH   1  18
BRANCH  14  22
ATOM     22  C   UNL     1       5.689   4.124  16.642  0.00  0.00    +0.000 C 
BRANCH  22  23
ATOM     23  C   UNL     1       6.444   5.083  15.728  0.00  0.00    +0.000 C 
BRANCH  23  24
ATOM     24  C   UNL     1       6.584   4.651  14.287  0.00  0.00    +0.000 A 
ATOM     25  C   UNL     1       5.740   3.703  13.693  0.00  0.00    +0.000 A 
ATOM     26  C   UNL     1       5.924   3.325  12.361  0.00  0.00    +0.000 A 
ATOM     27  C   UNL     1       6.935   3.909  11.602  0.00  0.00    +0.000 A 
ATOM     28  C   UNL     1       7.751   4.885  12.166  0.00  0.00    +0.000 A 
ATOM     29  C   UNL     1       7.572   5.259  13.498  0.00  0.00    +0.000 A 
ENDBRANCH  23  24
ENDBRANCH  22  23
ENDBRANCH  14  22
TORSDOF 5
ENDMDL
MODEL 5
REMARK VINA RESULT:      -8.3      1.596      2.645
REMARK  Name = 
REMARK  6 active torsions:
REMARK  status: ('A' for Active; 'I' for Inactive)
REMARK    1  A    between atoms: C_1  and  O_2
REMARK    2  A    between atoms: O_2  and  C_3
REMARK    3  A    between atoms: C_3  and  C_5
REMARK    4  A    between atoms: N_18  and  C_19
REMARK    5  A    between atoms: C_19  and  C_20
REMARK    6  A    between atoms: C_20  and  C_21
REMARK                            x       y       z     vdW  Elec       q    Type
REMARK                         _______ _______ _______ _____ _____    ______ ____
ROOT
ATOM      1  C   UNL     1       2.274   4.732  20.432  0.00  0.00    +0.000 A 
ATOM      2  C   UNL     1       1.570   5.818  20.923  0.00  0.00    +0.000 A 
ATOM      3  C   UNL     1       1.707   6.977  20.153  0.00  0.00    +0.000 A 
ATOM      4  C   UNL     1       1.132   8.325  20.198  0.00  0.00    +0.000 A 
ATOM      5  C   UNL     1       0.209   8.900  21.103  0.00  0.00    +0.000 A 
ATOM      6  C   UNL     1      -0.221  10.215  20.930  0.00  0.00    +0.000 A 
ATOM      7  C   UNL     1       0.255  10.981  19.872  0.00  0.00    +0.000 A 
ATOM      8  C   UNL     1       1.174  10.457  18.953  0.00  0.00    +0.000 A 
ATOM      9  C   UNL     1       1.608   9.132  19.117  0.00  0.00    +0.000 A 
ATOM     10  N   UNL     1       2.496   8.402  18.332  0.00  0.00    +0.000 N 
ATOM     11  C   UNL     1       2.481   7.216  18.977  0.00  0.00    +0.000 A 
ATOM     12  C   UNL     1       3.206   6.115  18.554  0.00  0.00    +0.000 A 
ATOM     13  C   UNL     1       4.003   5.979  17.475  0.00  0.00    +0.000 A 
ATOM     14  N   UNL     1       4.437   4.629  17.548  0.00  0.00    +0.000 N 
ATOM     15  C   UNL     1       3.898   4.045  18.648  0.00  0.00    +0.000 A 
ATOM     16  N   UNL     1       3.119   4.950  19.225  0.00  0.00    +0.000 N 
ATOM     17  H   UNL     1       2.999   8.695  17.500  0.00  0.00    +0.000 HD
ENDROOT
BRANCH   1  18
ATOM     18  C   UNL     1       2.148   3.403  21.042  0.00  0.00    +0.000 C 
ATOM     19  O   UNL     1       2.983   2.892  21.752  0.00  0.00    +0.000 OA
BRANCH  18  21
ATOM     20  C   UNL     1       1.102   2.167  19.329  0.00  0.00    +0.000 C 
ATOM     21  O   UNL     1       0.982   2.887  20.558  0.00  0.00    +0.000 OA
ENDBRANCH  18  21
ENDBRANCH   1  18
BRANCH  14  22
ATOM     22  C   UNL     1       5.308   3.870  16.635  0.00  0.00    +0.000 C 
BRANCH  22  23
ATOM     23  C   UNL     1       6.498   4.629  16.058  0.00  0.00    +0.000 C 
BRANCH  23  24
ATOM     24  C   UNL     1       6.692   4.518  14.564  0.00  0.00    +0.000 A 
ATOM     25  C   UNL     1       7.628   5.288  13.859  0.00  0.00    +0.000 A 
ATOM     26  C   UNL     1       7.754   5.159  12.474  0.00  0.00    +0.000 A 
ATOM     27  C   UNL     1       6.966   4.243  11.783  0.00  0.00    +0.000 A 
ATOM     28  C   UNL     1       6.065   3.439  12.476  0.00  0.00    +0.000 A 
ATOM     29  C   UNL     1       5.934   3.572  13.858  0.00  0.00    +0.000 A 
ENDBRANCH  23  24
ENDBRANCH  22  23
ENDBRANCH  14  22
TORSDOF 5
ENDMDL
MODEL 6
REMARK VINA RESULT:      -8.2      2.396      3.799
REMARK  Name = 
REMARK  6 active torsions:
REMARK  status: ('A' for Active; 'I' for Inactive)
REMARK    1  A    between atoms: C_1  and  O_2
REMARK    2  A    between atoms: O_2  and  C_3
REMARK    3  A    between atoms: C_3  and  C_5
REMARK    4  A    between atoms: N_18  and  C_19
REMARK    5  A    between atoms: C_19  and  C_20
REMARK    6  A    between atoms: C_20  and  C_21
REMARK                            x       y       z     vdW  Elec       q    Type
REMARK                         _______ _______ _______ _____ _____    ______ ____
ROOT
ATOM      1  C   UNL     1       3.667   4.237  19.507  0.00  0.00    +0.000 A 
ATOM      2  C   UNL     1       2.884   5.212  20.101  0.00  0.00    +0.000 A 
ATOM      3  C   UNL     1       2.789   6.394  19.359  0.00  0.00    +0.000 A 
ATOM      4  C   UNL     1       2.054   7.653  19.506  0.00  0.00    +0.000 A 
ATOM      5  C   UNL     1       1.164   8.085  20.517  0.00  0.00    +0.000 A 
ATOM      6  C   UNL     1       0.553   9.335  20.431  0.00  0.00    +0.000 A 
ATOM      7  C   UNL     1       0.813  10.176  19.356  0.00  0.00    +0.000 A 
ATOM      8  C   UNL     1       1.691   9.796  18.332  0.00  0.00    +0.000 A 
ATOM      9  C   UNL     1       2.307   8.536  18.408  0.00  0.00    +0.000 A 
ATOM     10  N   UNL     1       3.194   7.944  17.514  0.00  0.00    +0.000 N 
ATOM     11  C   UNL     1       3.400   6.754  18.119  0.00  0.00    +0.000 A 
ATOM     12  C   UNL     1       4.212   5.766  17.590  0.00  0.00    +0.000 A 
ATOM     13  C   UNL     1       4.902   5.756  16.432  0.00  0.00    +0.000 A 
ATOM     14  N   UNL     1       5.512   4.474  16.417  0.00  0.00    +0.000 N 
ATOM     15  C   UNL     1       5.170   3.803  17.546  0.00  0.00    +0.000 A 
ATOM     16  N   UNL     1       4.347   4.587  18.228  0.00  0.00    +0.000 N 
ATOM     17  H   UNL     1       3.565   8.316  16.646  0.00  0.00    +0.000 HD
ENDROOT
BRANCH   1  18
ATOM     18  C   UNL     1       3.777   2.892  20.083  0.00  0.00    +0.000 C 
ATOM     19  O   UNL     1       4.821   2.352  20.371  0.00  0.00    +0.000 OA
BRANCH  18  21
ATOM     20  C   UNL     1       1.976   2.006  18.848  0.00  0.00    +0.000 C 
ATOM     21  O   UNL     1       2.505   2.402  20.116  0.00  0.00    +0.000 OA
ENDBRANCH  18  21
ENDBRANCH   1  18
BRANCH  14  22
ATOM     22  C   UNL     1       6.373   3.853  15.396  0.00  0.00    +0.000 C 
BRANCH  22  23
ATOM     23  C   UNL     1       6.372   4.518  14.024  0.00  0.00    +0.000 C 
BRANCH  23  24
ATOM     24  C   UNL     1       5.862   3.673  12.880  0.00  0.00    +0.000 A 
ATOM     25  C   UNL     1       4.567   3.801  12.359  0.00  0.00    +0.000 A 
ATOM     26  C   UNL     1       4.139   2.982  11.312  0.00  0.00    +0.000 A 
ATOM     27  C   UNL     1       5.008   2.046  10.758  0.00  0.00    +0.000 A 
ATOM     28  C   UNL     1       6.311   1.939  11.235  0.00  0.00    +0.000 A 
ATOM     29  C   UNL     1       6.737   2.753  12.284  0.00  0.00    +0.000 A 
ENDBRANCH  23  24
ENDBRANCH  22  23
ENDBRANCH  14  22
TORSDOF 5
ENDMDL
MODEL 7
REMARK VINA RESULT:      -8.0      1.841      6.867
REMARK  Name = 
REMARK  6 active torsions:
REMARK  status: ('A' for Active; 'I' for Inactive)
REMARK    1  A    between atoms: C_1  and  O_2
REMARK    2  A    between atoms: O_2  and  C_3
REMARK    3  A    between atoms: C_3  and  C_5
REMARK    4  A    between atoms: N_18  and  C_19
REMARK    5  A    between atoms: C_19  and  C_20
REMARK    6  A    between atoms: C_20  and  C_21
REMARK                            x       y       z     vdW  Elec       q    Type
REMARK                         _______ _______ _______ _____ _____    ______ ____
ROOT
ATOM      1  C   UNL     1       2.546   4.130  19.979  0.00  0.00    +0.000 A 
ATOM      2  C   UNL     1       3.339   3.636  18.958  0.00  0.00    +0.000 A 
ATOM      3  C   UNL     1       3.816   4.617  18.084  0.00  0.00    +0.000 A 
ATOM      4  C   UNL     1       4.718   4.626  16.929  0.00  0.00    +0.000 A 
ATOM      5  C   UNL     1       5.420   3.570  16.303  0.00  0.00    +0.000 A 
ATOM      6  C   UNL     1       6.254   3.825  15.215  0.00  0.00    +0.000 A 
ATOM      7  C   UNL     1       6.404   5.117  14.727  0.00  0.00    +0.000 A 
ATOM      8  C   UNL     1       5.725   6.196  15.309  0.00  0.00    +0.000 A 
ATOM      9  C   UNL     1       4.887   5.949  16.408  0.00  0.00    +0.000 A 
ATOM     10  N   UNL     1       4.131   6.853  17.149  0.00  0.00    +0.000 N 
ATOM     11  C   UNL     1       3.579   6.026  18.062  0.00  0.00    +0.000 A 
ATOM     12  C   UNL     1       2.740   6.465  19.072  0.00  0.00    +0.000 A 
ATOM     13  C   UNL     1       2.339   7.718  19.367  0.00  0.00    +0.000 A 
ATOM     14  N   UNL     1       1.523   7.547  20.516  0.00  0.00    +0.000 N 
ATOM     15  C   UNL     1       1.471   6.229  20.835  0.00  0.00    +0.000 A 
ATOM     16  N   UNL     1       2.249   5.590  19.973  0.00  0.00    +0.000 N 
ATOM     17  H   UNL     1       4.041   7.856  17.028  0.00  0.00    +0.000 HD
ENDROOT
BRANCH   1  18
ATOM     18  C   UNL     1       2.062   3.261  21.058  0.00  0.00    +0.000 C 
ATOM     19  O   UNL     1       2.739   2.876  21.984  0.00  0.00    +0.000 OA
BRANCH  18  21
ATOM     20  C   UNL     1       0.609   2.443  19.392  0.00  0.00    +0.000 C 
ATOM     21  O   UNL     1       0.781   2.938  20.722  0.00  0.00    +0.000 OA
ENDBRANCH  18  21
ENDBRANCH   1  18
BRANCH  14  22
ATOM     22  C   UNL     1       0.816   8.553  21.326  0.00  0.00    +0.000 C 
BRANCH  22  23
ATOM     23  C   UNL     1       0.947  10.000  20.862  0.00  0.00    +0.000 C 
BRANCH  23  24
ATOM     24  C   UNL     1      -0.185  10.525  20.011  0.00  0.00    +0.000 A 
ATOM     25  C   UNL     1      -0.452  10.046  18.721  0.00  0.00    +0.000 A 
ATOM     26  C   UNL     1      -1.502  10.579  17.970  0.00  0.00    +0.000 A 
ATOM     27  C   UNL     1      -2.310  11.577  18.507  0.00  0.00    +0.000 A 
ATOM     28  C   UNL     1      -2.084  12.031  19.804  0.00  0.00    +0.000 A 
ATOM     29  C   UNL     1      -1.033  11.503  20.553  0.00  0.00    +0.000 A 
ENDBRANCH  23  24
ENDBRANCH  22  23
ENDBRANCH  14  22
TORSDOF 5
ENDMDL
MODEL 8
REMARK VINA RESULT:      -8.0      1.839      7.201
REMARK  Name = 
REMARK  6 active torsions:
REMARK  status: ('A' for Active; 'I' for Inactive)
REMARK    1  A    between atoms: C_1  and  O_2
REMARK    2  A    between atoms: O_2  and  C_3
REMARK    3  A    between atoms: C_3  and  C_5
REMARK    4  A    between atoms: N_18  and  C_19
REMARK    5  A    between atoms: C_19  and  C_20
REMARK    6  A    between atoms: C_20  and  C_21
REMARK                            x       y       z     vdW  Elec       q    Type
REMARK                         _______ _______ _______ _____ _____    ______ ____
ROOT
ATOM      1  C   UNL     1       2.603   4.022  19.949  0.00  0.00    +0.000 A 
ATOM      2  C   UNL     1       3.383   3.542  18.911  0.00  0.00    +0.000 A 
ATOM      3  C   UNL     1       3.848   4.535  18.044  0.00  0.00    +0.000 A 
ATOM      4  C   UNL     1       4.734   4.561  16.877  0.00  0.00    +0.000 A 
ATOM      5  C   UNL     1       5.428   3.513  16.227  0.00  0.00    +0.000 A 
ATOM      6  C   UNL     1       6.247   3.783  15.132  0.00  0.00    +0.000 A 
ATOM      7  C   UNL     1       6.389   5.082  14.659  0.00  0.00    +0.000 A 
ATOM      8  C   UNL     1       5.718   6.152  15.265  0.00  0.00    +0.000 A 
ATOM      9  C   UNL     1       4.896   5.890  16.372  0.00  0.00    +0.000 A 
ATOM     10  N   UNL     1       4.150   6.784  17.135  0.00  0.00    +0.000 N 
ATOM     11  C   UNL     1       3.610   5.944  18.044  0.00  0.00    +0.000 A 
ATOM     12  C   UNL     1       2.784   6.369  19.071  0.00  0.00    +0.000 A 
ATOM     13  C   UNL     1       2.388   7.618  19.388  0.00  0.00    +0.000 A 
ATOM     14  N   UNL     1       1.587   7.431  20.546  0.00  0.00    +0.000 N 
ATOM     15  C   UNL     1       1.540   6.109  20.848  0.00  0.00    +0.000 A 
ATOM     16  N   UNL     1       2.307   5.482  19.967  0.00  0.00    +0.000 N 
ATOM     17  H   UNL     1       4.058   7.789  17.029  0.00  0.00    +0.000 HD
ENDROOT
BRANCH   1  18
ATOM     18  C   UNL     1       2.135   3.138  21.023  0.00  0.00    +0.000 C 
ATOM     19  O   UNL     1       2.830   2.721  21.921  0.00  0.00    +0.000 OA
BRANCH  18  21
ATOM     20  C   UNL     1       0.615   2.419  19.372  0.00  0.00    +0.000 C 
ATOM     21  O   UNL     1       0.839   2.846  20.718  0.00  0.00    +0.000 OA
ENDBRANCH  18  21
ENDBRANCH   1  18
BRANCH  14  22
ATOM     22  C   UNL     1       0.891   8.426  21.380  0.00  0.00    +0.000 C 
BRANCH  22  23
ATOM     23  C   UNL     1       0.711   9.809  20.763  0.00  0.00    +0.000 C 
BRANCH  23  24
ATOM     24  C   UNL     1      -0.374  10.667  21.370  0.00  0.00    +0.000 A 
ATOM     25  C   UNL     1      -0.704  10.624  22.732  0.00  0.00    +0.000 A 
ATOM     26  C   UNL     1      -1.729  11.427  23.238  0.00  0.00    +0.000 A 
ATOM     27  C   UNL     1      -2.415  12.298  22.397  0.00  0.00    +0.000 A 
ATOM     28  C   UNL     1      -2.066  12.385  21.052  0.00  0.00    +0.000 A 
ATOM     29  C   UNL     1      -1.047  11.579  20.544  0.00  0.00    +0.000 A 
ENDBRANCH  23  24
ENDBRANCH  22  23
ENDBRANCH  14  22
TORSDOF 5
ENDMDL
MODEL 9
REMARK VINA RESULT:      -8.0      1.859      3.060
REMARK  Name = 
REMARK  6 active torsions:
REMARK  status: ('A' for Active; 'I' for Inactive)
REMARK    1  A    between atoms: C_1  and  O_2
REMARK    2  A    between atoms: O_2  and  C_3
REMARK    3  A    between atoms: C_3  and  C_5
REMARK    4  A    between atoms: N_18  and  C_19
REMARK    5  A    between atoms: C_19  and  C_20
REMARK    6  A    between atoms: C_20  and  C_21
REMARK                            x       y       z     vdW  Elec       q    Type
REMARK                         _______ _______ _______ _____ _____    ______ ____
ROOT
ATOM      1  C   UNL     1       2.238   4.888  19.840  0.00  0.00    +0.000 A 
ATOM      2  C   UNL     1       1.476   5.598  20.753  0.00  0.00    +0.000 A 
ATOM      3  C   UNL     1       1.458   6.977  20.526  0.00  0.00    +0.000 A 
ATOM      4  C   UNL     1       0.772   8.119  21.136  0.00  0.00    +0.000 A 
ATOM      5  C   UNL     1      -0.136   8.173  22.220  0.00  0.00    +0.000 A 
ATOM      6  C   UNL     1      -0.691   9.390  22.615  0.00  0.00    +0.000 A 
ATOM      7  C   UNL     1      -0.356  10.566  21.956  0.00  0.00    +0.000 A 
ATOM      8  C   UNL     1       0.543  10.565  20.881  0.00  0.00    +0.000 A 
ATOM      9  C   UNL     1       1.102   9.343  20.473  0.00  0.00    +0.000 A 
ATOM     10  N   UNL     1       1.996   9.097  19.435  0.00  0.00    +0.000 N 
ATOM     11  C   UNL     1       2.129   7.757  19.534  0.00  0.00    +0.000 A 
ATOM     12  C   UNL     1       2.918   7.009  18.677  0.00  0.00    +0.000 A 
ATOM     13  C   UNL     1       3.649   7.410  17.619  0.00  0.00    +0.000 A 
ATOM     14  N   UNL     1       4.205   6.203  17.118  0.00  0.00    +0.000 N 
ATOM     15  C   UNL     1       3.793   5.167  17.892  0.00  0.00    +0.000 A 
ATOM     16  N   UNL     1       2.978   5.669  18.810  0.00  0.00    +0.000 N 
ATOM     17  H   UNL     1       2.414   9.755  18.786  0.00  0.00    +0.000 HD
ENDROOT
BRANCH   1  18
ATOM     18  C   UNL     1       2.270   3.421  19.851  0.00  0.00    +0.000 C 
ATOM     19  O   UNL     1       1.484   2.714  19.264  0.00  0.00    +0.000 OA
BRANCH  18  21
ATOM     20  C   UNL     1       4.327   2.307  20.135  0.00  0.00    +0.000 C 
ATOM     21  O   UNL     1       3.273   3.082  20.710  0.00  0.00    +0.000 OA
ENDBRANCH  18  21
ENDBRANCH   1  18
BRANCH  14  22
ATOM     22  C   UNL     1       5.076   5.981  15.952  0.00  0.00    +0.000 C 
BRANCH  22  23
ATOM     23  C   UNL     1       5.354   4.525  15.590  0.00  0.00    +0.000 C 
BRANCH  23  24
ATOM     24  C   UNL     1       5.940   4.286  14.219  0.00  0.00    +0.000 A 
ATOM     25  C   UNL     1       5.345   3.436  13.276  0.00  0.00    +0.000 A 
ATOM     26  C   UNL     1       5.938   3.236  12.027  0.00  0.00    +0.000 A 
ATOM     27  C   UNL     1       7.115   3.902  11.698  0.00  0.00    +0.000 A 
ATOM     28  C   UNL     1       7.693   4.783  12.607  0.00  0.00    +0.000 A 
ATOM     29  C   UNL     1       7.104   4.980  13.857  0.00  0.00    +0.000 A 
ENDBRANCH  23  24
ENDBRANCH  22  23
ENDBRANCH  14  22
TORSDOF 5
ENDMDL
