MODEL 1
REMARK VINA RESULT:      -7.8      0.000      0.000
REMARK  Name = 
REMARK  4 active torsions:
REMARK  status: ('A' for Active; 'I' for Inactive)
REMARK    1  A    between atoms: C_1  and  N_2
REMARK    2  A    between atoms: C_5  and  O_6
REMARK    3  A    between atoms: O_6  and  C_7
REMARK    4  A    between atoms: C_7  and  C_9
REMARK                            x       y       z     vdW  Elec       q    Type
REMARK                         _______ _______ _______ _____ _____    ______ ____
ROOT
ATOM      1  C   UNL     1       5.054   4.114  18.114  0.00  0.00    +0.000 C 
ATOM      2  O   UNL     1       5.629   4.134  19.193  0.00  0.00    +0.000 OA
ENDROOT
BRANCH   1   3
ATOM      3  C   UNL     1       5.742   4.424  16.841  0.00  0.00    +0.000 A 
ATOM      4  C   UNL     1       6.786   5.329  16.760  0.00  0.00    +0.000 A 
ATOM      5  N   UNL     1       7.458   5.608  15.613  0.00  0.00    +0.000 NA
ATOM      6  C   UNL     1       7.087   4.968  14.490  0.00  0.00    +0.000 A 
ATOM      7  C   UNL     1       7.775   5.213  13.308  0.00  0.00    +0.000 A 
ATOM      8  C   UNL     1       7.435   4.572  12.113  0.00  0.00    +0.000 A 
ATOM      9  C   UNL     1       6.379   3.668  12.088  0.00  0.00    +0.000 A 
ATOM     10  C   UNL     1       5.671   3.402  13.260  0.00  0.00    +0.000 A 
ATOM     11  C   UNL     1       6.024   4.040  14.463  0.00  0.00    +0.000 A 
ATOM     12  C   UNL     1       5.349   3.779  15.667  0.00  0.00    +0.000 A 
ENDBRANCH   1   3
BRANCH   1  13
ATOM     13  O   UNL     1       3.740   3.839  17.915  0.00  0.00    +0.000 OA
BRANCH  13  18
ATOM     14  C   UNL     1       1.414   8.133  20.737  0.00  0.00    +0.000 C 
ATOM     15  N   UNL     1       2.287   7.099  20.177  0.00  0.00    +0.000 NA
ATOM     16  C   UNL     1       1.776   5.763  20.514  0.00  0.00    +0.000 C 
ATOM     17  C   UNL     1       2.672   4.665  19.945  0.00  0.00    +0.000 C 
ATOM     18  C   UNL     1       2.822   4.823  18.433  0.00  0.00    +0.000 C 
ATOM     19  C   UNL     1       3.353   6.221  18.125  0.00  0.00    +0.000 C 
ATOM     20  C   UNL     1       2.427   7.279  18.725  0.00  0.00    +0.000 C 
ENDBRANCH  13  18
ENDBRANCH   1  13
TORSDOF 3
ENDMDL
MODEL 2
REMARK VINA RESULT:      -7.8      0.902      1.506
REMARK  Name = 
REMARK  4 active torsions:
REMARK  status: ('A' for Active; 'I' for Inactive)
REMARK    1  A    between atoms: C_1  and  N_2
REMARK    2  A    between atoms: C_5  and  O_6
REMARK    3  A    between atoms: O_6  and  C_7
REMARK    4  A    between atoms: C_7  and  C_9
REMARK                            x       y       z     vdW  Elec       q    Type
REMARK                         _______ _______ _______ _____ _____    ______ ____
ROOT
ATOM      1  C   UNL     1       5.056   4.549  18.106  0.00  0.00    +0.000 C 
ATOM      2  O   UNL     1       5.642   4.147  19.100  0.00  0.00    +0.000 OA
ENDROOT
BRANCH   1   3
ATOM      3  C   UNL     1       5.728   4.715  16.798  0.00  0.00    +0.000 A 
ATOM      4  C   UNL     1       6.840   5.521  16.630  0.00  0.00    +0.000 A 
ATOM      5  N   UNL     1       7.498   5.666  15.451  0.00  0.00    +0.000 NA
ATOM      6  C   UNL     1       7.043   4.986  14.384  0.00  0.00    +0.000 A 
ATOM      7  C   UNL     1       7.713   5.093  13.171  0.00  0.00    +0.000 A 
ATOM      8  C   UNL     1       7.286   4.404  12.032  0.00  0.00    +0.000 A 
ATOM      9  C   UNL     1       6.160   3.593  12.095  0.00  0.00    +0.000 A 
ATOM     10  C   UNL     1       5.468   3.466  13.300  0.00  0.00    +0.000 A 
ATOM     11  C   UNL     1       5.907   4.151  14.446  0.00  0.00    +0.000 A 
ATOM     12  C   UNL     1       5.249   4.028  15.681  0.00  0.00    +0.000 A 
ENDBRANCH   1   3
BRANCH   1  13
ATOM     13  O   UNL     1       3.751   4.919  18.045  0.00  0.00    +0.000 OA
BRANCH  13  18
ATOM     14  C   UNL     1       1.199   9.749  19.448  0.00  0.00    +0.000 C 
ATOM     15  N   UNL     1       1.566   8.417  18.960  0.00  0.00    +0.000 NA
ATOM     16  C   UNL     1       2.604   8.522  17.926  0.00  0.00    +0.000 C 
ATOM     17  C   UNL     1       3.002   7.146  17.396  0.00  0.00    +0.000 C 
ATOM     18  C   UNL     1       3.463   6.243  18.538  0.00  0.00    +0.000 C 
ATOM     19  C   UNL     1       2.359   6.161  19.589  0.00  0.00    +0.000 C 
ATOM     20  C   UNL     1       1.993   7.563  20.077  0.00  0.00    +0.000 C 
ENDBRANCH  13  18
ENDBRANCH   1  13
TORSDOF 3
ENDMDL
MODEL 3
REMARK VINA RESULT:      -7.7      1.621      2.272
REMARK  Name = 
REMARK  4 active torsions:
REMARK  status: ('A' for Active; 'I' for Inactive)
REMARK    1  A    between atoms: C_1  and  N_2
REMARK    2  A    between atoms: C_5  and  O_6
REMARK    3  A    between atoms: O_6  and  C_7
REMARK    4  A    between atoms: C_7  and  C_9
REMARK                            x       y       z     vdW  Elec       q    Type
REMARK                         _______ _______ _______ _____ _____    ______ ____
ROOT
ATOM      1  C   UNL     1       5.589   5.503  17.928  0.00  0.00    +0.000 C 
ATOM      2  O   UNL     1       6.351   5.748  18.851  0.00  0.00    +0.000 OA
ENDROOT
BRANCH   1   3
ATOM      3  C   UNL     1       6.062   5.279  16.544  0.00  0.00    +0.000 A 
ATOM      4  C   UNL     1       7.257   5.794  16.073  0.00  0.00    +0.000 A 
ATOM      5  N   UNL     1       7.734   5.578  14.820  0.00  0.00    +0.000 NA
ATOM      6  C   UNL     1       7.001   4.818  13.987  0.00  0.00    +0.000 A 
ATOM      7  C   UNL     1       7.477   4.556  12.708  0.00  0.00    +0.000 A 
ATOM      8  C   UNL     1       6.760   3.768  11.803  0.00  0.00    +0.000 A 
ATOM      9  C   UNL     1       5.532   3.231  12.174  0.00  0.00    +0.000 A 
ATOM     10  C   UNL     1       5.030   3.477  13.452  0.00  0.00    +0.000 A 
ATOM     11  C   UNL     1       5.760   4.259  14.364  0.00  0.00    +0.000 A 
ATOM     12  C   UNL     1       5.298   4.508  15.666  0.00  0.00    +0.000 A 
ENDBRANCH   1   3
BRANCH   1  13
ATOM     13  O   UNL     1       4.236   5.422  18.010  0.00  0.00    +0.000 OA
BRANCH  13  18
ATOM     14  C   UNL     1       1.294   2.444  21.789  0.00  0.00    +0.000 C 
ATOM     15  N   UNL     1       1.854   3.075  20.592  0.00  0.00    +0.000 NA
ATOM     16  C   UNL     1       1.685   4.533  20.658  0.00  0.00    +0.000 C 
ATOM     17  C   UNL     1       2.257   5.216  19.418  0.00  0.00    +0.000 C 
ATOM     18  C   UNL     1       3.727   4.849  19.230  0.00  0.00    +0.000 C 
ATOM     19  C   UNL     1       3.859   3.329  19.167  0.00  0.00    +0.000 C 
ATOM     20  C   UNL     1       3.264   2.696  20.425  0.00  0.00    +0.000 C 
ENDBRANCH  13  18
ENDBRANCH   1  13
TORSDOF 3
ENDMDL
MODEL 4
REMARK VINA RESULT:      -7.6      1.467      2.098
REMARK  Name = 
REMARK  4 active torsions:
REMARK  status: ('A' for Active; 'I' for Inactive)
REMARK    1  A    between atoms: C_1  and  N_2
REMARK    2  A    between atoms: C_5  and  O_6
REMARK    3  A    between atoms: O_6  and  C_7
REMARK    4  A    between atoms: C_7  and  C_9
REMARK                            x       y       z     vdW  Elec       q    Type
REMARK                         _______ _______ _______ _____ _____    ______ ____
ROOT
ATOM      1  C   UNL     1       5.176   5.339  17.914  0.00  0.00    +0.000 C 
ATOM      2  O   UNL     1       5.790   5.152  18.954  0.00  0.00    +0.000 OA
ENDROOT
BRANCH   1   3
ATOM      3  C   UNL     1       5.807   5.205  16.582  0.00  0.00    +0.000 A 
ATOM      4  C   UNL     1       7.026   5.782  16.273  0.00  0.00    +0.000 A 
ATOM      5  N   UNL     1       7.646   5.648  15.073  0.00  0.00    +0.000 NA
ATOM      6  C   UNL     1       7.040   4.910  14.126  0.00  0.00    +0.000 A 
ATOM      7  C   UNL     1       7.663   4.731  12.898  0.00  0.00    +0.000 A 
ATOM      8  C   UNL     1       7.080   3.969  11.881  0.00  0.00    +0.000 A 
ATOM      9  C   UNL     1       5.841   3.374  12.085  0.00  0.00    +0.000 A 
ATOM     10  C   UNL     1       5.192   3.536  13.310  0.00  0.00    +0.000 A 
ATOM     11  C   UNL     1       5.787   4.292  14.334  0.00  0.00    +0.000 A 
ATOM     12  C   UNL     1       5.174   4.457  15.587  0.00  0.00    +0.000 A 
ENDBRANCH   1   3
BRANCH   1  13
ATOM     13  O   UNL     1       3.874   5.711  17.811  0.00  0.00    +0.000 OA
BRANCH  13  18
ATOM     14  C   UNL     1       1.451   2.493  21.759  0.00  0.00    +0.000 C 
ATOM     15  N   UNL     1       2.344   3.307  20.930  0.00  0.00    +0.000 NA
ATOM     16  C   UNL     1       2.553   2.665  19.625  0.00  0.00    +0.000 C 
ATOM     17  C   UNL     1       3.485   3.491  18.743  0.00  0.00    +0.000 C 
ATOM     18  C   UNL     1       2.946   4.909  18.569  0.00  0.00    +0.000 C 
ATOM     19  C   UNL     1       2.742   5.540  19.945  0.00  0.00    +0.000 C 
ATOM     20  C   UNL     1       1.811   4.669  20.789  0.00  0.00    +0.000 C 
ENDBRANCH  13  18
ENDBRANCH   1  13
TORSDOF 3
ENDMDL
MODEL 5
REMARK VINA RESULT:      -7.1      1.792      2.405
REMARK  Name = 
REMARK  4 active torsions:
REMARK  status: ('A' for Active; 'I' for Inactive)
REMARK    1  A    between atoms: C_1  and  N_2
REMARK    2  A    between atoms: C_5  and  O_6
REMARK    3  A    between atoms: O_6  and  C_7
REMARK    4  A    between atoms: C_7  and  C_9
REMARK                            x       y       z     vdW  Elec       q    Type
REMARK                         _______ _______ _______ _____ _____    ______ ____
ROOT
ATOM      1  C   UNL     1       5.777   5.001  18.385  0.00  0.00    +0.000 C 
ATOM      2  O   UNL     1       6.359   4.357  19.246  0.00  0.00    +0.000 OA
ENDROOT
BRANCH   1   3
ATOM      3  C   UNL     1       6.214   5.016  16.971  0.00  0.00    +0.000 A 
ATOM      4  C   UNL     1       7.269   5.791  16.526  0.00  0.00    +0.000 A 
ATOM      5  N   UNL     1       7.715   5.800  15.243  0.00  0.00    +0.000 NA
ATOM      6  C   UNL     1       7.093   5.008  14.351  0.00  0.00    +0.000 A 
ATOM      7  C   UNL     1       7.544   4.975  13.038  0.00  0.00    +0.000 A 
ATOM      8  C   UNL     1       6.938   4.165  12.072  0.00  0.00    +0.000 A 
ATOM      9  C   UNL     1       5.849   3.373  12.417  0.00  0.00    +0.000 A 
ATOM     10  C   UNL     1       5.375   3.385  13.729  0.00  0.00    +0.000 A 
ATOM     11  C   UNL     1       5.995   4.191  14.700  0.00  0.00    +0.000 A 
ATOM     12  C   UNL     1       5.560   4.211  16.035  0.00  0.00    +0.000 A 
ENDBRANCH   1   3
BRANCH   1  13
ATOM     13  O   UNL     1       4.695   5.797  18.579  0.00  0.00    +0.000 OA
BRANCH  13  18
ATOM     14  C   UNL     1       0.503   2.042  18.955  0.00  0.00    +0.000 C 
ATOM     15  N   UNL     1       1.712   2.805  18.636  0.00  0.00    +0.000 NA
ATOM     16  C   UNL     1       1.354   4.103  18.047  0.00  0.00    +0.000 C 
ATOM     17  C   UNL     1       2.597   4.918  17.700  0.00  0.00    +0.000 C 
ATOM     18  C   UNL     1       3.480   5.106  18.932  0.00  0.00    +0.000 C 
ATOM     19  C   UNL     1       3.828   3.737  19.513  0.00  0.00    +0.000 C 
ATOM     20  C   UNL     1       2.550   2.961  19.833  0.00  0.00    +0.000 C 
ENDBRANCH  13  18
ENDBRANCH   1  13
TORSDOF 3
ENDMDL
MODEL 6
REMARK VINA RESULT:      -7.1      4.184      8.602
REMARK  Name = 
REMARK  4 active torsions:
REMARK  status: ('A' for Active; 'I' for Inactive)
REMARK    1  A    between atoms: C_1  and  N_2
REMARK    2  A    between atoms: C_5  and  O_6
REMARK    3  A    between atoms: O_6  and  C_7
REMARK    4  A    between atoms: C_7  and  C_9
REMARK                            x       y       z     vdW  Elec       q    Type
REMARK                         _______ _______ _______ _____ _____    ______ ____
ROOT
ATOM      1  C   UNL     1       2.318   7.939  18.641  0.00  0.00    +0.000 C 
ATOM      2  O   UNL     1       2.664   8.058  17.475  0.00  0.00    +0.000 OA
ENDROOT
BRANCH   1   3
ATOM      3  C   UNL     1       1.476   8.944  19.328  0.00  0.00    +0.000 A 
ATOM      4  C   UNL     1       1.019  10.088  18.697  0.00  0.00    +0.000 A 
ATOM      5  N   UNL     1       0.217  11.010  19.289  0.00  0.00    +0.000 NA
ATOM      6  C   UNL     1      -0.156  10.800  20.565  0.00  0.00    +0.000 A 
ATOM      7  C   UNL     1      -0.998  11.712  21.187  0.00  0.00    +0.000 A 
ATOM      8  C   UNL     1      -1.421  11.539  22.509  0.00  0.00    +0.000 A 
ATOM      9  C   UNL     1      -0.990  10.435  23.236  0.00  0.00    +0.000 A 
ATOM     10  C   UNL     1      -0.143   9.502  22.635  0.00  0.00    +0.000 A 
ATOM     11  C   UNL     1       0.270   9.673  21.302  0.00  0.00    +0.000 A 
ATOM     12  C   UNL     1       1.101   8.743  20.658  0.00  0.00    +0.000 A 
ENDBRANCH   1   3
BRANCH   1  13
ATOM     13  O   UNL     1       2.656   6.922  19.474  0.00  0.00    +0.000 OA
BRANCH  13  18
ATOM     14  C   UNL     1       3.609   1.470  18.387  0.00  0.00    +0.000 C 
ATOM     15  N   UNL     1       3.332   2.781  18.980  0.00  0.00    +0.000 NA
ATOM     16  C   UNL     1       4.479   3.678  18.792  0.00  0.00    +0.000 C 
ATOM     17  C   UNL     1       4.218   5.051  19.407  0.00  0.00    +0.000 C 
ATOM     18  C   UNL     1       2.947   5.668  18.826  0.00  0.00    +0.000 C 
ATOM     19  C   UNL     1       1.780   4.706  19.040  0.00  0.00    +0.000 C 
ATOM     20  C   UNL     1       2.098   3.347  18.416  0.00  0.00    +0.000 C 
ENDBRANCH  13  18
ENDBRANCH   1  13
TORSDOF 3
ENDMDL
MODEL 7
REMARK VINA RESULT:      -7.1      2.284      8.285
REMARK  Name = 
REMARK  4 active torsions:
REMARK  status: ('A' for Active; 'I' for Inactive)
REMARK    1  A    between atoms: C_1  and  N_2
REMARK    2  A    between atoms: C_5  and  O_6
REMARK    3  A    between atoms: O_6  and  C_7
REMARK    4  A    between atoms: C_7  and  C_9
REMARK                            x       y       z     vdW  Elec       q    Type
REMARK                         _______ _______ _______ _____ _____    ______ ____
ROOT
ATOM      1  C   UNL     1       2.368   6.278  19.729  0.00  0.00    +0.000 C 
ATOM      2  O   UNL     1       2.691   5.479  20.595  0.00  0.00    +0.000 OA
ENDROOT
BRANCH   1   3
ATOM      3  C   UNL     1       1.741   7.581  20.042  0.00  0.00    +0.000 A 
ATOM      4  C   UNL     1       1.718   8.632  19.142  0.00  0.00    +0.000 A 
ATOM      5  N   UNL     1       1.120   9.826  19.387  0.00  0.00    +0.000 NA
ATOM      6  C   UNL     1       0.515   9.999  20.576  0.00  0.00    +0.000 A 
ATOM      7  C   UNL     1      -0.129  11.201  20.844  0.00  0.00    +0.000 A 
ATOM      8  C   UNL     1      -0.778  11.432  22.061  0.00  0.00    +0.000 A 
ATOM      9  C   UNL     1      -0.782  10.447  23.042  0.00  0.00    +0.000 A 
ATOM     10  C   UNL     1      -0.144   9.230  22.799  0.00  0.00    +0.000 A 
ATOM     11  C   UNL     1       0.497   8.996  21.570  0.00  0.00    +0.000 A 
ATOM     12  C   UNL     1       1.128   7.776  21.282  0.00  0.00    +0.000 A 
ENDBRANCH   1   3
BRANCH   1  13
ATOM     13  O   UNL     1       2.503   6.101  18.390  0.00  0.00    +0.000 OA
BRANCH  13  18
ATOM     14  C   UNL     1       6.977   4.649  15.277  0.00  0.00    +0.000 C 
ATOM     15  N   UNL     1       5.667   5.054  15.793  0.00  0.00    +0.000 NA
ATOM     16  C   UNL     1       5.093   3.985  16.620  0.00  0.00    +0.000 C 
ATOM     17  C   UNL     1       3.723   4.380  17.167  0.00  0.00    +0.000 C 
ATOM     18  C   UNL     1       3.813   5.686  17.954  0.00  0.00    +0.000 C 
ATOM     19  C   UNL     1       4.415   6.769  17.061  0.00  0.00    +0.000 C 
ATOM     20  C   UNL     1       5.778   6.319  16.534  0.00  0.00    +0.000 C 
ENDBRANCH  13  18
ENDBRANCH   1  13
TORSDOF 3
ENDMDL
MODEL 8
REMARK VINA RESULT:      -7.1      3.017      8.615
REMARK  Name = 
REMARK  4 active torsions:
REMARK  status: ('A' for Active; 'I' for Inactive)
REMARK    1  A    between atoms: C_1  and  N_2
REMARK    2  A    between atoms: C_5  and  O_6
REMARK    3  A    between atoms: O_6  and  C_7
REMARK    4  A    between atoms: C_7  and  C_9
REMARK                            x       y       z     vdW  Elec       q    Type
REMARK                         _______ _______ _______ _____ _____    ______ ____
ROOT
ATOM      1  C   UNL     1       2.162   8.356  18.116  0.00  0.00    +0.000 C 
ATOM      2  O   UNL     1       2.383   9.186  17.246  0.00  0.00    +0.000 OA
ENDROOT
BRANCH   1   3
ATOM      3  C   UNL     1       1.484   8.697  19.387  0.00  0.00    +0.000 A 
ATOM      4  C   UNL     1       1.633   7.940  20.536  0.00  0.00    +0.000 A 
ATOM      5  N   UNL     1       1.053   8.246  21.725  0.00  0.00    +0.000 NA
ATOM      6  C   UNL     1       0.287   9.350  21.790  0.00  0.00    +0.000 A 
ATOM      7  C   UNL     1      -0.297   9.704  23.000  0.00  0.00    +0.000 A 
ATOM      8  C   UNL     1      -1.098  10.843  23.125  0.00  0.00    +0.000 A 
ATOM      9  C   UNL     1      -1.332  11.650  22.018  0.00  0.00    +0.000 A 
ATOM     10  C   UNL     1      -0.757  11.319  20.790  0.00  0.00    +0.000 A 
ATOM     11  C   UNL     1       0.057  10.180  20.671  0.00  0.00    +0.000 A 
ATOM     12  C   UNL     1       0.671   9.830  19.458  0.00  0.00    +0.000 A 
ENDBRANCH   1   3
BRANCH   1  13
ATOM     13  O   UNL     1       2.509   7.044  18.074  0.00  0.00    +0.000 OA
BRANCH  13  18
ATOM     14  C   UNL     1       7.607   4.652  17.774  0.00  0.00    +0.000 C 
ATOM     15  N   UNL     1       6.182   4.985  17.729  0.00  0.00    +0.000 NA
ATOM     16  C   UNL     1       5.673   5.234  19.084  0.00  0.00    +0.000 C 
ATOM     17  C   UNL     1       4.186   5.579  19.066  0.00  0.00    +0.000 C 
ATOM     18  C   UNL     1       3.923   6.780  18.159  0.00  0.00    +0.000 C 
ATOM     19  C   UNL     1       4.466   6.482  16.763  0.00  0.00    +0.000 C 
ATOM     20  C   UNL     1       5.952   6.134  16.840  0.00  0.00    +0.000 C 
ENDBRANCH  13  18
ENDBRANCH   1  13
TORSDOF 3
ENDMDL
MODEL 9
REMARK VINA RESULT:      -7.0      2.597      4.279
REMARK  Name = 
REMARK  4 active torsions:
REMARK  status: ('A' for Active; 'I' for Inactive)
REMARK    1  A    between atoms: C_1  and  N_2
REMARK    2  A    between atoms: C_5  and  O_6
REMARK    3  A    between atoms: O_6  and  C_7
REMARK    4  A    between atoms: C_7  and  C_9
REMARK                            x       y       z     vdW  Elec       q    Type
REMARK                         _______ _______ _______ _____ _____    ______ ____
ROOT
ATOM      1  C   UNL     1       2.094   6.295  20.041  0.00  0.00    +0.000 C 
ATOM      2  O   UNL     1       1.373   5.674  20.807  0.00  0.00    +0.000 OA
ENDROOT
BRANCH   1   3
ATOM      3  C   UNL     1       2.975   5.626  19.058  0.00  0.00    +0.000 A 
ATOM      4  C   UNL     1       3.207   4.262  19.073  0.00  0.00    +0.000 A 
ATOM      5  N   UNL     1       3.982   3.616  18.164  0.00  0.00    +0.000 NA
ATOM      6  C   UNL     1       4.558   4.344  17.191  0.00  0.00    +0.000 A 
ATOM      7  C   UNL     1       5.333   3.706  16.231  0.00  0.00    +0.000 A 
ATOM      8  C   UNL     1       5.950   4.413  15.195  0.00  0.00    +0.000 A 
ATOM      9  C   UNL     1       5.801   5.793  15.113  0.00  0.00    +0.000 A 
ATOM     10  C   UNL     1       5.027   6.460  16.064  0.00  0.00    +0.000 A 
ATOM     11  C   UNL     1       4.398   5.744  17.097  0.00  0.00    +0.000 A 
ATOM     12  C   UNL     1       3.593   6.378  18.057  0.00  0.00    +0.000 A 
ENDBRANCH   1   3
BRANCH   1  13
ATOM     13  O   UNL     1       2.221   7.646  19.984  0.00  0.00    +0.000 OA
BRANCH  13  18
ATOM     14  C   UNL     1      -0.853  11.645  22.507  0.00  0.00    +0.000 C 
ATOM     15  N   UNL     1       0.189  10.826  21.883  0.00  0.00    +0.000 NA
ATOM     16  C   UNL     1       0.419   9.607  22.671  0.00  0.00    +0.000 C 
ATOM     17  C   UNL     1       1.506   8.737  22.043  0.00  0.00    +0.000 C 
ATOM     18  C   UNL     1       1.151   8.390  20.599  0.00  0.00    +0.000 C 
ATOM     19  C   UNL     1       0.919   9.681  19.816  0.00  0.00    +0.000 C 
ATOM     20  C   UNL     1      -0.168  10.517  20.491  0.00  0.00    +0.000 C 
ENDBRANCH  13  18
ENDBRANCH   1  13
TORSDOF 3
ENDMDL
