MODEL 1
REMARK VINA RESULT:      -7.8      0.000      0.000
REMARK  Name = 
REMARK  12 active torsions:
REMARK  status: ('A' for Active; 'I' for Inactive)
REMARK    1  A    between atoms: C_1  and  C_2
REMARK    2  A    between atoms: C_2  and  O_3
REMARK    3  A    between atoms: O_3  and  C_4
REMARK    4  A    between atoms: C_4  and  C_6
REMARK    5  A    between atoms: C_6  and  C_7
REMARK    6  A    between atoms: C_7  and  C_8
REMARK    7  A    between atoms: C_8  and  O_9
REMARK    8  A    between atoms: O_9  and  C_10
REMARK    9  A    between atoms: C_13  and  C_14
REMARK   10  A    between atoms: C_14  and  C_15
REMARK   11  A    between atoms: C_15  and  N_16
REMARK   12  A    between atoms: C_23  and  C_24
REMARK                            x       y       z     vdW  Elec       q    Type
REMARK                         _______ _______ _______ _____ _____    ______ ____
ROOT
ATOM      1  N   UNL     1       2.007   6.991  20.283  0.00  0.00    +0.000 N 
ATOM      2  C   UNL     1       1.428   8.219  20.493  0.00  0.00    +0.000 A 
ATOM      3  N   UNL     1       1.537   9.110  19.443  0.00  0.00    +0.000 NA
ATOM      4  C   UNL     1       0.950  10.268  19.540  0.00  0.00    +0.000 A 
ATOM      5  N   UNL     1       1.011  11.211  18.548  0.00  0.00    +0.000 N 
ATOM      6  N   UNL     1       0.231  10.551  20.696  0.00  0.00    +0.000 N 
ATOM      7  N   UNL     1      -0.495  11.661  20.916  0.00  0.00    +0.000 NA
ATOM      8  C   UNL     1      -0.911  11.427  22.174  0.00  0.00    +0.000 A 
ATOM      9  N   UNL     1      -0.518  10.210  22.698  0.00  0.00    +0.000 NA
ATOM     10  C   UNL     1       0.182   9.667  21.725  0.00  0.00    +0.000 A 
ATOM     11  N   UNL     1       0.789   8.466  21.606  0.00  0.00    +0.000 NA
ATOM     12  H   UNL     1       2.249   6.857  19.308  0.00  0.00    +0.000 HD
ATOM     13  H   UNL     1       1.280  10.881  17.631  0.00  0.00    +0.000 HD
ATOM     14  H   UNL     1       0.300  11.940  18.573  0.00  0.00    +0.000 HD
ENDROOT
BRANCH   8  15
ATOM     15  C   UNL     1      -1.734  12.402  22.949  0.00  0.00    +0.000 A 
ATOM     16  C   UNL     1      -2.992  12.159  23.472  0.00  0.00    +0.000 A 
ATOM     17  C   UNL     1      -3.398  13.344  24.134  0.00  0.00    +0.000 A 
ATOM     18  C   UNL     1      -2.373  14.243  23.966  0.00  0.00    +0.000 A 
ATOM     19  O   UNL     1      -1.357  13.681  23.263  0.00  0.00    +0.000 OA
ENDBRANCH   8  15
BRANCH   1  20
ATOM     20  C   UNL     1       1.393   5.842  20.929  0.00  0.00    +0.000 C 
BRANCH  20  21
ATOM     21  C   UNL     1       2.283   4.594  21.007  0.00  0.00    +0.000 C 
BRANCH  21  25
ATOM     22  C   UNL     1       4.388   3.769  17.283  0.00  0.00    +0.000 A 
ATOM     23  C   UNL     1       3.198   4.490  17.286  0.00  0.00    +0.000 A 
ATOM     24  C   UNL     1       2.532   4.758  18.474  0.00  0.00    +0.000 A 
ATOM     25  C   UNL     1       3.028   4.320  19.709  0.00  0.00    +0.000 A 
ATOM     26  C   UNL     1       4.237   3.607  19.707  0.00  0.00    +0.000 A 
ATOM     27  C   UNL     1       4.911   3.333  18.501  0.00  0.00    +0.000 A 
BRANCH  22  28
ATOM     28  O   UNL     1       5.091   3.450  16.147  0.00  0.00    +0.000 OA
BRANCH  28  29
ATOM     29  C   UNL     1       5.639   4.583  15.466  0.00  0.00    +0.000 C 
BRANCH  29  30
ATOM     30  C   UNL     1       7.008   4.937  16.013  0.00  0.00    +0.000 C 
BRANCH  30  31
ATOM     31  C   UNL     1       6.903   6.172  16.905  0.00  0.00    +0.000 C 
BRANCH  31  32
ATOM     32  C   UNL     1       7.696   5.994  18.168  0.00  0.00    +0.000 C 
ATOM     33  O   UNL     1       7.824   4.941  18.777  0.00  0.00    +0.000 OA
BRANCH  32  34
ATOM     34  O   UNL     1       8.171   7.204  18.574  0.00  0.00    +0.000 OA
BRANCH  34  36
ATOM     35  C   UNL     1       8.537   9.531  18.227  0.00  0.00    +0.000 C 
ATOM     36  C   UNL     1       7.812   8.298  17.720  0.00  0.00    +0.000 C 
ENDBRANCH  34  36
ENDBRANCH  32  34
ENDBRANCH  31  32
ENDBRANCH  30  31
ENDBRANCH  29  30
ENDBRANCH  28  29
ENDBRANCH  22  28
ENDBRANCH  21  25
ENDBRANCH  20  21
ENDBRANCH   1  20
TORSDOF 11
ENDMDL
MODEL 2
REMARK VINA RESULT:      -7.7      5.472      9.834
REMARK  Name = 
REMARK  12 active torsions:
REMARK  status: ('A' for Active; 'I' for Inactive)
REMARK    1  A    between atoms: C_1  and  C_2
REMARK    2  A    between atoms: C_2  and  O_3
REMARK    3  A    between atoms: O_3  and  C_4
REMARK    4  A    between atoms: C_4  and  C_6
REMARK    5  A    between atoms: C_6  and  C_7
REMARK    6  A    between atoms: C_7  and  C_8
REMARK    7  A    between atoms: C_8  and  O_9
REMARK    8  A    between atoms: O_9  and  C_10
REMARK    9  A    between atoms: C_13  and  C_14
REMARK   10  A    between atoms: C_14  and  C_15
REMARK   11  A    between atoms: C_15  and  N_16
REMARK   12  A    between atoms: C_23  and  C_24
REMARK                            x       y       z     vdW  Elec       q    Type
REMARK                         _______ _______ _______ _____ _____    ______ ____
ROOT
ATOM      1  N   UNL     1       7.719   8.125  16.922  0.00  0.00    +0.000 N 
ATOM      2  C   UNL     1       6.864   7.053  17.006  0.00  0.00    +0.000 A 
ATOM      3  N   UNL     1       7.298   5.901  16.380  0.00  0.00    +0.000 NA
ATOM      4  C   UNL     1       6.575   4.824  16.479  0.00  0.00    +0.000 A 
ATOM      5  N   UNL     1       6.931   3.640  15.885  0.00  0.00    +0.000 N 
ATOM      6  N   UNL     1       5.400   4.880  17.219  0.00  0.00    +0.000 N 
ATOM      7  N   UNL     1       4.588   3.841  17.484  0.00  0.00    +0.000 NA
ATOM      8  C   UNL     1       3.616   4.468  18.169  0.00  0.00    +0.000 A 
ATOM      9  N   UNL     1       3.829   5.817  18.376  0.00  0.00    +0.000 NA
ATOM     10  C   UNL     1       4.983   6.041  17.785  0.00  0.00    +0.000 A 
ATOM     11  N   UNL     1       5.748   7.150  17.681  0.00  0.00    +0.000 NA
ATOM     12  H   UNL     1       8.633   7.845  16.586  0.00  0.00    +0.000 HD
ATOM     13  H   UNL     1       7.900   3.549  15.611  0.00  0.00    +0.000 HD
ATOM     14  H   UNL     1       6.485   2.801  16.251  0.00  0.00    +0.000 HD
ENDROOT
BRANCH   8  15
ATOM     15  C   UNL     1       2.396   3.766  18.670  0.00  0.00    +0.000 A 
ATOM     16  C   UNL     1       1.852   3.899  19.935  0.00  0.00    +0.000 A 
ATOM     17  C   UNL     1       0.705   3.068  19.978  0.00  0.00    +0.000 A 
ATOM     18  C   UNL     1       0.624   2.468  18.745  0.00  0.00    +0.000 A 
ATOM     19  O   UNL     1       1.633   2.891  17.942  0.00  0.00    +0.000 OA
ENDBRANCH   8  15
BRANCH   1  20
ATOM     20  C   UNL     1       7.731   9.061  18.035  0.00  0.00    +0.000 C 
BRANCH  20  21
ATOM     21  C   UNL     1       9.045   9.106  18.826  0.00  0.00    +0.000 C 
BRANCH  21  25
ATOM     22  C   UNL     1      10.316  13.186  19.675  0.00  0.00    +0.000 A 
ATOM     23  C   UNL     1      10.037  12.296  20.707  0.00  0.00    +0.000 A 
ATOM     24  C   UNL     1       9.639  10.994  20.435  0.00  0.00    +0.000 A 
ATOM     25  C   UNL     1       9.506  10.526  19.121  0.00  0.00    +0.000 A 
ATOM     26  C   UNL     1       9.804  11.419  18.080  0.00  0.00    +0.000 A 
ATOM     27  C   UNL     1      10.205  12.741  18.357  0.00  0.00    +0.000 A 
BRANCH  22  28
ATOM     28  O   UNL     1      10.695  14.493  19.867  0.00  0.00    +0.000 OA
BRANCH  28  29
ATOM     29  C   UNL     1      10.123  15.407  18.927  0.00  0.00    +0.000 C 
BRANCH  29  30
ATOM     30  C   UNL     1       9.153  16.352  19.608  0.00  0.00    +0.000 C 
BRANCH  30  31
ATOM     31  C   UNL     1       8.303  17.064  18.557  0.00  0.00    +0.000 C 
BRANCH  31  32
ATOM     32  C   UNL     1       6.839  16.837  18.805  0.00  0.00    +0.000 C 
ATOM     33  O   UNL     1       5.992  17.716  18.878  0.00  0.00    +0.000 OA
BRANCH  32  34
ATOM     34  O   UNL     1       6.621  15.511  19.023  0.00  0.00    +0.000 OA
BRANCH  34  36
ATOM     35  C   UNL     1       4.715  14.546  17.970  0.00  0.00    +0.000 C 
ATOM     36  C   UNL     1       6.211  14.778  17.861  0.00  0.00    +0.000 C 
ENDBRANCH  34  36
ENDBRANCH  32  34
ENDBRANCH  31  32
ENDBRANCH  30  31
ENDBRANCH  29  30
ENDBRANCH  28  29
ENDBRANCH  22  28
ENDBRANCH  21  25
ENDBRANCH  20  21
ENDBRANCH   1  20
TORSDOF 11
ENDMDL
MODEL 3
REMARK VINA RESULT:      -7.6      5.776      9.696
REMARK  Name = 
REMARK  12 active torsions:
REMARK  status: ('A' for Active; 'I' for Inactive)
REMARK    1  A    between atoms: C_1  and  C_2
REMARK    2  A    between atoms: C_2  and  O_3
REMARK    3  A    between atoms: O_3  and  C_4
REMARK    4  A    between atoms: C_4  and  C_6
REMARK    5  A    between atoms: C_6  and  C_7
REMARK    6  A    between atoms: C_7  and  C_8
REMARK    7  A    between atoms: C_8  and  O_9
REMARK    8  A    between atoms: O_9  and  C_10
REMARK    9  A    between atoms: C_13  and  C_14
REMARK   10  A    between atoms: C_14  and  C_15
REMARK   11  A    between atoms: C_15  and  N_16
REMARK   12  A    between atoms: C_23  and  C_24
REMARK                            x       y       z     vdW  Elec       q    Type
REMARK                         _______ _______ _______ _____ _____    ______ ____
ROOT
ATOM      1  N   UNL     1       7.713   8.181  16.901  0.00  0.00    +0.000 N 
ATOM      2  C   UNL     1       6.872   7.098  16.994  0.00  0.00    +0.000 A 
ATOM      3  N   UNL     1       7.332   5.941  16.398  0.00  0.00    +0.000 NA
ATOM      4  C   UNL     1       6.623   4.855  16.507  0.00  0.00    +0.000 A 
ATOM      5  N   UNL     1       7.003   3.666  15.943  0.00  0.00    +0.000 N 
ATOM      6  N   UNL     1       5.436   4.909  17.229  0.00  0.00    +0.000 N 
ATOM      7  N   UNL     1       4.635   3.864  17.502  0.00  0.00    +0.000 NA
ATOM      8  C   UNL     1       3.643   4.490  18.160  0.00  0.00    +0.000 A 
ATOM      9  N   UNL     1       3.835   5.847  18.343  0.00  0.00    +0.000 NA
ATOM     10  C   UNL     1       4.994   6.075  17.765  0.00  0.00    +0.000 A 
ATOM     11  N   UNL     1       5.745   7.193  17.651  0.00  0.00    +0.000 NA
ATOM     12  H   UNL     1       8.636   7.907  16.584  0.00  0.00    +0.000 HD
ATOM     13  H   UNL     1       7.978   3.583  15.684  0.00  0.00    +0.000 HD
ATOM     14  H   UNL     1       6.564   2.827  16.318  0.00  0.00    +0.000 HD
ENDROOT
BRANCH   8  15
ATOM     15  C   UNL     1       2.427   3.781  18.657  0.00  0.00    +0.000 A 
ATOM     16  C   UNL     1       1.914   3.861  19.940  0.00  0.00    +0.000 A 
ATOM     17  C   UNL     1       0.758   3.044  19.972  0.00  0.00    +0.000 A 
ATOM     18  C   UNL     1       0.639   2.503  18.715  0.00  0.00    +0.000 A 
ATOM     19  O   UNL     1       1.635   2.951  17.908  0.00  0.00    +0.000 OA
ENDBRANCH   8  15
BRANCH   1  20
ATOM     20  C   UNL     1       7.695   9.138  17.996  0.00  0.00    +0.000 C 
BRANCH  20  21
ATOM     21  C   UNL     1       8.933   9.105  18.903  0.00  0.00    +0.000 C 
BRANCH  21  25
ATOM     22  C   UNL     1      10.796  13.022  19.311  0.00  0.00    +0.000 A 
ATOM     23  C   UNL     1      10.708  12.157  20.397  0.00  0.00    +0.000 A 
ATOM     24  C   UNL     1      10.120  10.906  20.264  0.00  0.00    +0.000 A 
ATOM     25  C   UNL     1       9.599  10.466  19.040  0.00  0.00    +0.000 A 
ATOM     26  C   UNL     1       9.703  11.333  17.940  0.00  0.00    +0.000 A 
ATOM     27  C   UNL     1      10.297  12.602  18.077  0.00  0.00    +0.000 A 
BRANCH  22  28
ATOM     28  O   UNL     1      11.346  14.280  19.372  0.00  0.00    +0.000 OA
BRANCH  28  29
ATOM     29  C   UNL     1      11.188  15.040  18.170  0.00  0.00    +0.000 C 
BRANCH  29  30
ATOM     30  C   UNL     1      10.320  16.260  18.408  0.00  0.00    +0.000 C 
BRANCH  30  31
ATOM     31  C   UNL     1       8.942  16.040  17.790  0.00  0.00    +0.000 C 
BRANCH  31  32
ATOM     32  C   UNL     1       7.984  15.470  18.797  0.00  0.00    +0.000 C 
ATOM     33  O   UNL     1       7.035  14.744  18.537  0.00  0.00    +0.000 OA
BRANCH  32  34
ATOM     34  O   UNL     1       8.285  15.963  20.031  0.00  0.00    +0.000 OA
BRANCH  34  36
ATOM     35  C   UNL     1       9.070  15.023  22.073  0.00  0.00    +0.000 C 
ATOM     36  C   UNL     1       7.894  15.116  21.119  0.00  0.00    +0.000 C 
ENDBRANCH  34  36
ENDBRANCH  32  34
ENDBRANCH  31  32
ENDBRANCH  30  31
ENDBRANCH  29  30
ENDBRANCH  28  29
ENDBRANCH  22  28
ENDBRANCH  21  25
ENDBRANCH  20  21
ENDBRANCH   1  20
TORSDOF 11
ENDMDL
MODEL 4
REMARK VINA RESULT:      -7.6      5.995      9.780
REMARK  Name = 
REMARK  12 active torsions:
REMARK  status: ('A' for Active; 'I' for Inactive)
REMARK    1  A    between atoms: C_1  and  C_2
REMARK    2  A    between atoms: C_2  and  O_3
REMARK    3  A    between atoms: O_3  and  C_4
REMARK    4  A    between atoms: C_4  and  C_6
REMARK    5  A    between atoms: C_6  and  C_7
REMARK    6  A    between atoms: C_7  and  C_8
REMARK    7  A    between atoms: C_8  and  O_9
REMARK    8  A    between atoms: O_9  and  C_10
REMARK    9  A    between atoms: C_13  and  C_14
REMARK   10  A    between atoms: C_14  and  C_15
REMARK   11  A    between atoms: C_15  and  N_16
REMARK   12  A    between atoms: C_23  and  C_24
REMARK                            x       y       z     vdW  Elec       q    Type
REMARK                         _______ _______ _______ _____ _____    ______ ____
ROOT
ATOM      1  N   UNL     1       7.904   7.695  16.864  0.00  0.00    +0.000 N 
ATOM      2  C   UNL     1       6.977   6.702  17.074  0.00  0.00    +0.000 A 
ATOM      3  N   UNL     1       7.092   5.602  16.247  0.00  0.00    +0.000 NA
ATOM      4  C   UNL     1       6.295   4.591  16.434  0.00  0.00    +0.000 A 
ATOM      5  N   UNL     1       6.339   3.463  15.657  0.00  0.00    +0.000 N 
ATOM      6  N   UNL     1       5.368   4.661  17.468  0.00  0.00    +0.000 N 
ATOM      7  N   UNL     1       4.533   3.675  17.842  0.00  0.00    +0.000 NA
ATOM      8  C   UNL     1       3.854   4.298  18.822  0.00  0.00    +0.000 A 
ATOM      9  N   UNL     1       4.275   5.586  19.091  0.00  0.00    +0.000 NA
ATOM     10  C   UNL     1       5.255   5.776  18.233  0.00  0.00    +0.000 A 
ATOM     11  N   UNL     1       6.095   6.815  18.033  0.00  0.00    +0.000 NA
ATOM     12  H   UNL     1       8.659   7.377  16.268  0.00  0.00    +0.000 HD
ATOM     13  H   UNL     1       7.186   3.319  15.123  0.00  0.00    +0.000 HD
ATOM     14  H   UNL     1       5.906   2.629  16.047  0.00  0.00    +0.000 HD
ENDROOT
BRANCH   8  15
ATOM     15  C   UNL     1       2.731   3.652  19.565  0.00  0.00    +0.000 A 
ATOM     16  C   UNL     1       2.856   2.903  20.722  0.00  0.00    +0.000 A 
ATOM     17  C   UNL     1       1.550   2.494  21.089  0.00  0.00    +0.000 A 
ATOM     18  C   UNL     1       0.709   3.004  20.129  0.00  0.00    +0.000 A 
ATOM     19  O   UNL     1       1.410   3.716  19.211  0.00  0.00    +0.000 OA
ENDBRANCH   8  15
BRANCH   1  20
ATOM     20  C   UNL     1       8.317   8.479  18.017  0.00  0.00    +0.000 C 
BRANCH  20  21
ATOM     21  C   UNL     1       7.863   9.945  17.996  0.00  0.00    +0.000 C 
BRANCH  21  25
ATOM     22  C   UNL     1      11.113  12.760  18.705  0.00  0.00    +0.000 A 
ATOM     23  C   UNL     1      10.950  11.640  19.513  0.00  0.00    +0.000 A 
ATOM     24  C   UNL     1       9.918  10.740  19.282  0.00  0.00    +0.000 A 
ATOM     25  C   UNL     1       9.009  10.920  18.231  0.00  0.00    +0.000 A 
ATOM     26  C   UNL     1       9.183  12.041  17.405  0.00  0.00    +0.000 A 
ATOM     27  C   UNL     1      10.228  12.955  17.642  0.00  0.00    +0.000 A 
BRANCH  22  28
ATOM     28  O   UNL     1      12.097  13.702  18.885  0.00  0.00    +0.000 OA
BRANCH  28  29
ATOM     29  C   UNL     1      11.894  14.541  20.026  0.00  0.00    +0.000 C 
BRANCH  29  30
ATOM     30  C   UNL     1      11.524  15.950  19.607  0.00  0.00    +0.000 C 
BRANCH  30  31
ATOM     31  C   UNL     1      10.048  16.205  19.905  0.00  0.00    +0.000 C 
BRANCH  31  32
ATOM     32  C   UNL     1       9.255  16.327  18.634  0.00  0.00    +0.000 C 
ATOM     33  O   UNL     1       9.729  16.509  17.522  0.00  0.00    +0.000 OA
BRANCH  32  34
ATOM     34  O   UNL     1       7.926  16.293  18.930  0.00  0.00    +0.000 OA
BRANCH  34  36
ATOM     35  C   UNL     1       6.646  14.704  17.703  0.00  0.00    +0.000 C 
ATOM     36  C   UNL     1       7.370  14.975  19.009  0.00  0.00    +0.000 C 
ENDBRANCH  34  36
ENDBRANCH  32  34
ENDBRANCH  31  32
ENDBRANCH  30  31
ENDBRANCH  29  30
ENDBRANCH  28  29
ENDBRANCH  22  28
ENDBRANCH  21  25
ENDBRANCH  20  21
ENDBRANCH   1  20
TORSDOF 11
ENDMDL
MODEL 5
REMARK VINA RESULT:      -7.6      4.241      8.766
REMARK  Name = 
REMARK  12 active torsions:
REMARK  status: ('A' for Active; 'I' for Inactive)
REMARK    1  A    between atoms: C_1  and  C_2
REMARK    2  A    between atoms: C_2  and  O_3
REMARK    3  A    between atoms: O_3  and  C_4
REMARK    4  A    between atoms: C_4  and  C_6
REMARK    5  A    between atoms: C_6  and  C_7
REMARK    6  A    between atoms: C_7  and  C_8
REMARK    7  A    between atoms: C_8  and  O_9
REMARK    8  A    between atoms: O_9  and  C_10
REMARK    9  A    between atoms: C_13  and  C_14
REMARK   10  A    between atoms: C_14  and  C_15
REMARK   11  A    between atoms: C_15  and  N_16
REMARK   12  A    between atoms: C_23  and  C_24
REMARK                            x       y       z     vdW  Elec       q    Type
REMARK                         _______ _______ _______ _____ _____    ______ ____
ROOT
ATOM      1  N   UNL     1       4.602   2.789  17.309  0.00  0.00    +0.000 N 
ATOM      2  C   UNL     1       5.465   3.845  17.136  0.00  0.00    +0.000 A 
ATOM      3  N   UNL     1       6.034   3.942  15.882  0.00  0.00    +0.000 NA
ATOM      4  C   UNL     1       6.805   4.957  15.621  0.00  0.00    +0.000 A 
ATOM      5  N   UNL     1       7.413   5.128  14.405  0.00  0.00    +0.000 N 
ATOM      6  N   UNL     1       7.013   5.905  16.617  0.00  0.00    +0.000 N 
ATOM      7  N   UNL     1       7.712   7.046  16.482  0.00  0.00    +0.000 NA
ATOM      8  C   UNL     1       7.627   7.526  17.735  0.00  0.00    +0.000 A 
ATOM      9  N   UNL     1       6.869   6.760  18.600  0.00  0.00    +0.000 NA
ATOM     10  C   UNL     1       6.471   5.753  17.852  0.00  0.00    +0.000 A 
ATOM     11  N   UNL     1       5.665   4.698  18.106  0.00  0.00    +0.000 NA
ATOM     12  H   UNL     1       4.359   2.360  16.424  0.00  0.00    +0.000 HD
ATOM     13  H   UNL     1       7.025   4.604  13.632  0.00  0.00    +0.000 HD
ATOM     14  H   UNL     1       7.741   6.069  14.192  0.00  0.00    +0.000 HD
ENDROOT
BRANCH   8  15
ATOM     15  C   UNL     1       8.299   8.788  18.166  0.00  0.00    +0.000 A 
ATOM     16  C   UNL     1       8.311   9.977  17.457  0.00  0.00    +0.000 A 
ATOM     17  C   UNL     1       9.048  10.908  18.230  0.00  0.00    +0.000 A 
ATOM     18  C   UNL     1       9.452  10.232  19.355  0.00  0.00    +0.000 A 
ATOM     19  O   UNL     1       8.995   8.954  19.334  0.00  0.00    +0.000 OA
ENDBRANCH   8  15
BRANCH   1  20
ATOM     20  C   UNL     1       3.492   2.975  18.230  0.00  0.00    +0.000 C 
BRANCH  20  21
ATOM     21  C   UNL     1       2.384   3.909  17.725  0.00  0.00    +0.000 C 
BRANCH  21  25
ATOM     22  C   UNL     1       1.842   7.448  20.207  0.00  0.00    +0.000 A 
ATOM     23  C   UNL     1       1.543   6.181  20.696  0.00  0.00    +0.000 A 
ATOM     24  C   UNL     1       1.723   5.053  19.906  0.00  0.00    +0.000 A 
ATOM     25  C   UNL     1       2.212   5.144  18.597  0.00  0.00    +0.000 A 
ATOM     26  C   UNL     1       2.530   6.422  18.109  0.00  0.00    +0.000 A 
ATOM     27  C   UNL     1       2.344   7.565  18.910  0.00  0.00    +0.000 A 
BRANCH  22  28
ATOM     28  O   UNL     1       1.672   8.609  20.922  0.00  0.00    +0.000 OA
BRANCH  28  29
ATOM     29  C   UNL     1       0.363   8.759  21.481  0.00  0.00    +0.000 C 
BRANCH  29  30
ATOM     30  C   UNL     1      -0.218  10.119  21.148  0.00  0.00    +0.000 C 
BRANCH  30  31
ATOM     31  C   UNL     1       0.141  10.495  19.712  0.00  0.00    +0.000 C 
BRANCH  31  32
ATOM     32  C   UNL     1      -0.255  11.913  19.411  0.00  0.00    +0.000 C 
ATOM     33  O   UNL     1      -1.109  12.250  18.603  0.00  0.00    +0.000 OA
BRANCH  32  34
ATOM     34  O   UNL     1       0.547  12.761  20.112  0.00  0.00    +0.000 OA
BRANCH  34  36
ATOM     35  C   UNL     1       2.027  13.058  18.269  0.00  0.00    +0.000 C 
ATOM     36  C   UNL     1       1.185  13.767  19.314  0.00  0.00    +0.000 C 
ENDBRANCH  34  36
ENDBRANCH  32  34
ENDBRANCH  31  32
ENDBRANCH  30  31
ENDBRANCH  29  30
ENDBRANCH  28  29
ENDBRANCH  22  28
ENDBRANCH  21  25
ENDBRANCH  20  21
ENDBRANCH   1  20
TORSDOF 11
ENDMDL
MODEL 6
REMARK VINA RESULT:      -7.6      7.318     11.387
REMARK  Name = 
REMARK  12 active torsions:
REMARK  status: ('A' for Active; 'I' for Inactive)
REMARK    1  A    between atoms: C_1  and  C_2
REMARK    2  A    between atoms: C_2  and  O_3
REMARK    3  A    between atoms: O_3  and  C_4
REMARK    4  A    between atoms: C_4  and  C_6
REMARK    5  A    between atoms: C_6  and  C_7
REMARK    6  A    between atoms: C_7  and  C_8
REMARK    7  A    between atoms: C_8  and  O_9
REMARK    8  A    between atoms: O_9  and  C_10
REMARK    9  A    between atoms: C_13  and  C_14
REMARK   10  A    between atoms: C_14  and  C_15
REMARK   11  A    between atoms: C_15  and  N_16
REMARK   12  A    between atoms: C_23  and  C_24
REMARK                            x       y       z     vdW  Elec       q    Type
REMARK                         _______ _______ _______ _____ _____    ______ ____
ROOT
ATOM      1  N   UNL     1       8.341   7.488  18.866  0.00  0.00    +0.000 N 
ATOM      2  C   UNL     1       7.753   6.520  18.088  0.00  0.00    +0.000 A 
ATOM      3  N   UNL     1       7.022   5.573  18.777  0.00  0.00    +0.000 NA
ATOM      4  C   UNL     1       6.377   4.666  18.102  0.00  0.00    +0.000 A 
ATOM      5  N   UNL     1       5.631   3.688  18.707  0.00  0.00    +0.000 N 
ATOM      6  N   UNL     1       6.446   4.700  16.714  0.00  0.00    +0.000 N 
ATOM      7  N   UNL     1       5.776   3.890  15.875  0.00  0.00    +0.000 NA
ATOM      8  C   UNL     1       6.251   4.325  14.695  0.00  0.00    +0.000 A 
ATOM      9  N   UNL     1       7.129   5.389  14.780  0.00  0.00    +0.000 NA
ATOM     10  C   UNL     1       7.210   5.620  16.072  0.00  0.00    +0.000 A 
ATOM     11  N   UNL     1       7.867   6.560  16.786  0.00  0.00    +0.000 NA
ATOM     12  H   UNL     1       7.978   7.475  19.812  0.00  0.00    +0.000 HD
ATOM     13  H   UNL     1       5.366   3.856  19.668  0.00  0.00    +0.000 HD
ATOM     14  H   UNL     1       4.939   3.222  18.123  0.00  0.00    +0.000 HD
ENDROOT
BRANCH   8  15
ATOM     15  C   UNL     1       5.865   3.710  13.390  0.00  0.00    +0.000 A 
ATOM     16  C   UNL     1       4.612   3.780  12.806  0.00  0.00    +0.000 A 
ATOM     17  C   UNL     1       4.691   3.074  11.580  0.00  0.00    +0.000 A 
ATOM     18  C   UNL     1       5.979   2.603  11.495  0.00  0.00    +0.000 A 
ATOM     19  O   UNL     1       6.701   2.992  12.576  0.00  0.00    +0.000 OA
ENDBRANCH   8  15
BRANCH   1  20
ATOM     20  C   UNL     1       8.497   8.812  18.284  0.00  0.00    +0.000 C 
BRANCH  20  21
ATOM     21  C   UNL     1       8.931   9.904  19.270  0.00  0.00    +0.000 C 
BRANCH  21  25
ATOM     22  C   UNL     1      10.894  13.289  17.354  0.00  0.00    +0.000 A 
ATOM     23  C   UNL     1      11.638  12.279  17.954  0.00  0.00    +0.000 A 
ATOM     24  C   UNL     1      11.011  11.197  18.558  0.00  0.00    +0.000 A 
ATOM     25  C   UNL     1       9.616  11.078  18.585  0.00  0.00    +0.000 A 
ATOM     26  C   UNL     1       8.865  12.089  17.964  0.00  0.00    +0.000 A 
ATOM     27  C   UNL     1       9.502  13.187  17.354  0.00  0.00    +0.000 A 
BRANCH  22  28
ATOM     28  O   UNL     1      11.443  14.397  16.755  0.00  0.00    +0.000 OA
BRANCH  28  29
ATOM     29  C   UNL     1      11.908  15.385  17.679  0.00  0.00    +0.000 C 
BRANCH  29  30
ATOM     30  C   UNL     1      10.907  15.597  18.799  0.00  0.00    +0.000 C 
BRANCH  30  31
ATOM     31  C   UNL     1      11.559  15.270  20.140  0.00  0.00    +0.000 C 
BRANCH  31  32
ATOM     32  C   UNL     1      10.545  14.746  21.118  0.00  0.00    +0.000 C 
ATOM     33  O   UNL     1      10.132  13.596  21.158  0.00  0.00    +0.000 OA
BRANCH  32  34
ATOM     34  O   UNL     1      10.095  15.773  21.891  0.00  0.00    +0.000 OA
BRANCH  34  36
ATOM     35  C   UNL     1      10.644  17.997  22.545  0.00  0.00    +0.000 C 
ATOM     36  C   UNL     1      11.132  16.560  22.492  0.00  0.00    +0.000 C 
ENDBRANCH  34  36
ENDBRANCH  32  34
ENDBRANCH  31  32
ENDBRANCH  30  31
ENDBRANCH  29  30
ENDBRANCH  28  29
ENDBRANCH  22  28
ENDBRANCH  21  25
ENDBRANCH  20  21
ENDBRANCH   1  20
TORSDOF 11
ENDMDL
MODEL 7
REMARK VINA RESULT:      -7.5      3.140     11.325
REMARK  Name = 
REMARK  12 active torsions:
REMARK  status: ('A' for Active; 'I' for Inactive)
REMARK    1  A    between atoms: C_1  and  C_2
REMARK    2  A    between atoms: C_2  and  O_3
REMARK    3  A    between atoms: O_3  and  C_4
REMARK    4  A    between atoms: C_4  and  C_6
REMARK    5  A    between atoms: C_6  and  C_7
REMARK    6  A    between atoms: C_7  and  C_8
REMARK    7  A    between atoms: C_8  and  O_9
REMARK    8  A    between atoms: O_9  and  C_10
REMARK    9  A    between atoms: C_13  and  C_14
REMARK   10  A    between atoms: C_14  and  C_15
REMARK   11  A    between atoms: C_15  and  N_16
REMARK   12  A    between atoms: C_23  and  C_24
REMARK                            x       y       z     vdW  Elec       q    Type
REMARK                         _______ _______ _______ _____ _____    ______ ____
ROOT
ATOM      1  N   UNL     1       2.697   6.202  20.475  0.00  0.00    +0.000 N 
ATOM      2  C   UNL     1       3.409   5.562  19.489  0.00  0.00    +0.000 A 
ATOM      3  N   UNL     1       3.482   4.188  19.612  0.00  0.00    +0.000 NA
ATOM      4  C   UNL     1       4.077   3.507  18.677  0.00  0.00    +0.000 A 
ATOM      5  N   UNL     1       4.198   2.142  18.722  0.00  0.00    +0.000 N 
ATOM      6  N   UNL     1       4.605   4.194  17.590  0.00  0.00    +0.000 N 
ATOM      7  N   UNL     1       5.175   3.633  16.508  0.00  0.00    +0.000 NA
ATOM      8  C   UNL     1       5.537   4.738  15.832  0.00  0.00    +0.000 A 
ATOM      9  N   UNL     1       5.165   5.930  16.425  0.00  0.00    +0.000 NA
ATOM     10  C   UNL     1       4.552   5.549  17.524  0.00  0.00    +0.000 A 
ATOM     11  N   UNL     1       3.923   6.243  18.498  0.00  0.00    +0.000 NA
ATOM     12  H   UNL     1       2.162   5.547  21.032  0.00  0.00    +0.000 HD
ATOM     13  H   UNL     1       3.571   1.657  19.350  0.00  0.00    +0.000 HD
ATOM     14  H   UNL     1       4.400   1.677  17.839  0.00  0.00    +0.000 HD
ENDROOT
BRANCH   8  15
ATOM     15  C   UNL     1       6.283   4.687  14.539  0.00  0.00    +0.000 A 
ATOM     16  C   UNL     1       5.983   3.866  13.466  0.00  0.00    +0.000 A 
ATOM     17  C   UNL     1       6.932   4.149  12.453  0.00  0.00    +0.000 A 
ATOM     18  C   UNL     1       7.762   5.114  12.970  0.00  0.00    +0.000 A 
ATOM     19  O   UNL     1       7.373   5.456  14.225  0.00  0.00    +0.000 OA
ENDBRANCH   8  15
BRANCH   1  20
ATOM     20  C   UNL     1       1.991   7.420  20.108  0.00  0.00    +0.000 C 
BRANCH  20  21
ATOM     21  C   UNL     1       1.065   7.981  21.195  0.00  0.00    +0.000 C 
BRANCH  21  25
ATOM     22  C   UNL     1      -0.529  11.900  20.152  0.00  0.00    +0.000 A 
ATOM     23  C   UNL     1      -0.223  10.968  19.166  0.00  0.00    +0.000 A 
ATOM     24  C   UNL     1       0.278   9.718  19.500  0.00  0.00    +0.000 A 
ATOM     25  C   UNL     1       0.491   9.344  20.833  0.00  0.00    +0.000 A 
ATOM     26  C   UNL     1       0.167  10.278  21.829  0.00  0.00    +0.000 A 
ATOM     27  C   UNL     1      -0.339  11.548  21.490  0.00  0.00    +0.000 A 
BRANCH  22  28
ATOM     28  O   UNL     1      -1.010  13.162  19.897  0.00  0.00    +0.000 OA
BRANCH  28  29
ATOM     29  C   UNL     1      -2.421  13.294  20.092  0.00  0.00    +0.000 C 
BRANCH  29  30
ATOM     30  C   UNL     1      -2.726  14.259  21.221  0.00  0.00    +0.000 C 
BRANCH  30  31
ATOM     31  C   UNL     1      -4.170  14.072  21.683  0.00  0.00    +0.000 C 
BRANCH  31  32
ATOM     32  C   UNL     1      -4.363  12.722  22.313  0.00  0.00    +0.000 C 
ATOM     33  O   UNL     1      -3.676  12.258  23.212  0.00  0.00    +0.000 OA
BRANCH  32  34
ATOM     34  O   UNL     1      -5.363  12.063  21.664  0.00  0.00    +0.000 OA
BRANCH  34  36
ATOM     35  C   UNL     1      -7.441  12.043  20.501  0.00  0.00    +0.000 C 
ATOM     36  C   UNL     1      -6.315  12.919  21.020  0.00  0.00    +0.000 C 
ENDBRANCH  34  36
ENDBRANCH  32  34
ENDBRANCH  31  32
ENDBRANCH  30  31
ENDBRANCH  29  30
ENDBRANCH  28  29
ENDBRANCH  22  28
ENDBRANCH  21  25
ENDBRANCH  20  21
ENDBRANCH   1  20
TORSDOF 11
ENDMDL
MODEL 8
REMARK VINA RESULT:      -7.5      6.777     11.501
REMARK  Name = 
REMARK  12 active torsions:
REMARK  status: ('A' for Active; 'I' for Inactive)
REMARK    1  A    between atoms: C_1  and  C_2
REMARK    2  A    between atoms: C_2  and  O_3
REMARK    3  A    between atoms: O_3  and  C_4
REMARK    4  A    between atoms: C_4  and  C_6
REMARK    5  A    between atoms: C_6  and  C_7
REMARK    6  A    between atoms: C_7  and  C_8
REMARK    7  A    between atoms: C_8  and  O_9
REMARK    8  A    between atoms: O_9  and  C_10
REMARK    9  A    between atoms: C_13  and  C_14
REMARK   10  A    between atoms: C_14  and  C_15
REMARK   11  A    between atoms: C_15  and  N_16
REMARK   12  A    between atoms: C_23  and  C_24
REMARK                            x       y       z     vdW  Elec       q    Type
REMARK                         _______ _______ _______ _____ _____    ______ ____
ROOT
ATOM      1  N   UNL     1       8.476   7.767  18.963  0.00  0.00    +0.000 N 
ATOM      2  C   UNL     1       7.895   6.786  18.196  0.00  0.00    +0.000 A 
ATOM      3  N   UNL     1       7.214   5.813  18.900  0.00  0.00    +0.000 NA
ATOM      4  C   UNL     1       6.576   4.891  18.238  0.00  0.00    +0.000 A 
ATOM      5  N   UNL     1       5.880   3.886  18.858  0.00  0.00    +0.000 N 
ATOM      6  N   UNL     1       6.602   4.935  16.849  0.00  0.00    +0.000 N 
ATOM      7  N   UNL     1       5.933   4.110  16.025  0.00  0.00    +0.000 NA
ATOM      8  C   UNL     1       6.359   4.567  14.834  0.00  0.00    +0.000 A 
ATOM      9  N   UNL     1       7.206   5.657  14.900  0.00  0.00    +0.000 NA
ATOM     10  C   UNL     1       7.318   5.882  16.191  0.00  0.00    +0.000 A 
ATOM     11  N   UNL     1       7.968   6.838  16.891  0.00  0.00    +0.000 NA
ATOM     12  H   UNL     1       8.142   7.737  19.919  0.00  0.00    +0.000 HD
ATOM     13  H   UNL     1       5.638   4.040  19.828  0.00  0.00    +0.000 HD
ATOM     14  H   UNL     1       5.185   3.403  18.292  0.00  0.00    +0.000 HD
ENDROOT
BRANCH   8  15
ATOM     15  C   UNL     1       5.952   3.948  13.536  0.00  0.00    +0.000 A 
ATOM     16  C   UNL     1       6.815   3.516  12.544  0.00  0.00    +0.000 A 
ATOM     17  C   UNL     1       6.012   2.992  11.502  0.00  0.00    +0.000 A 
ATOM     18  C   UNL     1       4.709   3.147  11.911  0.00  0.00    +0.000 A 
ATOM     19  O   UNL     1       4.661   3.712  13.144  0.00  0.00    +0.000 OA
ENDBRANCH   8  15
BRANCH   1  20
ATOM     20  C   UNL     1       8.573   9.098  18.386  0.00  0.00    +0.000 C 
BRANCH  20  21
ATOM     21  C   UNL     1       8.897  10.214  19.388  0.00  0.00    +0.000 C 
BRANCH  21  25
ATOM     22  C   UNL     1      10.851  13.619  17.497  0.00  0.00    +0.000 A 
ATOM     23  C   UNL     1       9.805  13.804  18.394  0.00  0.00    +0.000 A 
ATOM     24  C   UNL     1       9.188  12.719  19.002  0.00  0.00    +0.000 A 
ATOM     25  C   UNL     1       9.592  11.404  18.740  0.00  0.00    +0.000 A 
ATOM     26  C   UNL     1      10.659  11.217  17.847  0.00  0.00    +0.000 A 
ATOM     27  C   UNL     1      11.283  12.318  17.230  0.00  0.00    +0.000 A 
BRANCH  22  28
ATOM     28  O   UNL     1      11.496  14.642  16.845  0.00  0.00    +0.000 OA
BRANCH  28  29
ATOM     29  C   UNL     1      10.689  15.807  16.654  0.00  0.00    +0.000 C 
BRANCH  29  30
ATOM     30  C   UNL     1      11.247  16.989  17.423  0.00  0.00    +0.000 C 
BRANCH  30  31
ATOM     31  C   UNL     1      10.130  17.986  17.718  0.00  0.00    +0.000 C 
BRANCH  31  32
ATOM     32  C   UNL     1       9.177  17.441  18.744  0.00  0.00    +0.000 C 
ATOM     33  O   UNL     1       9.440  17.261  19.924  0.00  0.00    +0.000 OA
BRANCH  32  34
ATOM     34  O   UNL     1       8.010  17.095  18.133  0.00  0.00    +0.000 OA
BRANCH  34  36
ATOM     35  C   UNL     1       6.237  15.701  18.900  0.00  0.00    +0.000 C 
ATOM     36  C   UNL     1       6.870  17.077  19.001  0.00  0.00    +0.000 C 
ENDBRANCH  34  36
ENDBRANCH  32  34
ENDBRANCH  31  32
ENDBRANCH  30  31
ENDBRANCH  29  30
ENDBRANCH  28  29
ENDBRANCH  22  28
ENDBRANCH  21  25
ENDBRANCH  20  21
ENDBRANCH   1  20
TORSDOF 11
ENDMDL
MODEL 9
REMARK VINA RESULT:      -7.5      3.038     11.610
REMARK  Name = 
REMARK  12 active torsions:
REMARK  status: ('A' for Active; 'I' for Inactive)
REMARK    1  A    between atoms: C_1  and  C_2
REMARK    2  A    between atoms: C_2  and  O_3
REMARK    3  A    between atoms: O_3  and  C_4
REMARK    4  A    between atoms: C_4  and  C_6
REMARK    5  A    between atoms: C_6  and  C_7
REMARK    6  A    between atoms: C_7  and  C_8
REMARK    7  A    between atoms: C_8  and  O_9
REMARK    8  A    between atoms: O_9  and  C_10
REMARK    9  A    between atoms: C_13  and  C_14
REMARK   10  A    between atoms: C_14  and  C_15
REMARK   11  A    between atoms: C_15  and  N_16
REMARK   12  A    between atoms: C_23  and  C_24
REMARK                            x       y       z     vdW  Elec       q    Type
REMARK                         _______ _______ _______ _____ _____    ______ ____
ROOT
ATOM      1  N   UNL     1       2.377   5.918  20.710  0.00  0.00    +0.000 N 
ATOM      2  C   UNL     1       3.231   5.370  19.784  0.00  0.00    +0.000 A 
ATOM      3  N   UNL     1       3.676   4.095  20.074  0.00  0.00    +0.000 NA
ATOM      4  C   UNL     1       4.430   3.482  19.207  0.00  0.00    +0.000 A 
ATOM      5  N   UNL     1       4.918   2.219  19.418  0.00  0.00    +0.000 N 
ATOM      6  N   UNL     1       4.744   4.137  18.022  0.00  0.00    +0.000 N 
ATOM      7  N   UNL     1       5.440   3.615  16.997  0.00  0.00    +0.000 NA
ATOM      8  C   UNL     1       5.483   4.677  16.173  0.00  0.00    +0.000 A 
ATOM      9  N   UNL     1       4.804   5.792  16.628  0.00  0.00    +0.000 NA
ATOM     10  C   UNL     1       4.324   5.407  17.791  0.00  0.00    +0.000 A 
ATOM     11  N   UNL     1       3.535   6.028  18.696  0.00  0.00    +0.000 NA
ATOM     12  H   UNL     1       2.044   5.222  21.366  0.00  0.00    +0.000 HD
ATOM     13  H   UNL     1       4.450   1.669  20.126  0.00  0.00    +0.000 HD
ATOM     14  H   UNL     1       5.234   1.714  18.592  0.00  0.00    +0.000 HD
ENDROOT
BRANCH   8  15
ATOM     15  C   UNL     1       6.208   4.660  14.868  0.00  0.00    +0.000 A 
ATOM     16  C   UNL     1       5.858   3.906  13.761  0.00  0.00    +0.000 A 
ATOM     17  C   UNL     1       6.804   4.200  12.748  0.00  0.00    +0.000 A 
ATOM     18  C   UNL     1       7.681   5.104  13.298  0.00  0.00    +0.000 A 
ATOM     19  O   UNL     1       7.324   5.398  14.574  0.00  0.00    +0.000 OA
ENDBRANCH   8  15
BRANCH   1  20
ATOM     20  C   UNL     1       1.365   6.842  20.224  0.00  0.00    +0.000 C 
BRANCH  20  21
ATOM     21  C   UNL     1       1.784   8.318  20.225  0.00  0.00    +0.000 C 
BRANCH  21  25
ATOM     22  C   UNL     1      -0.861  10.774  22.666  0.00  0.00    +0.000 A 
ATOM     23  C   UNL     1      -0.161   9.708  23.222  0.00  0.00    +0.000 A 
ATOM     24  C   UNL     1       0.687   8.931  22.445  0.00  0.00    +0.000 A 
ATOM     25  C   UNL     1       0.873   9.188  21.080  0.00  0.00    +0.000 A 
ATOM     26  C   UNL     1       0.180  10.273  20.523  0.00  0.00    +0.000 A 
ATOM     27  C   UNL     1      -0.682  11.060  21.311  0.00  0.00    +0.000 A 
BRANCH  22  28
ATOM     28  O   UNL     1      -1.730  11.573  23.368  0.00  0.00    +0.000 OA
BRANCH  28  29
ATOM     29  C   UNL     1      -2.706  12.227  22.549  0.00  0.00    +0.000 C 
BRANCH  29  30
ATOM     30  C   UNL     1      -2.991  13.627  23.055  0.00  0.00    +0.000 C 
BRANCH  30  31
ATOM     31  C   UNL     1      -3.870  13.555  24.302  0.00  0.00    +0.000 C 
BRANCH  31  32
ATOM     32  C   UNL     1      -5.226  12.998  23.974  0.00  0.00    +0.000 C 
ATOM     33  O   UNL     1      -5.742  12.032  24.517  0.00  0.00    +0.000 OA
BRANCH  32  34
ATOM     34  O   UNL     1      -5.748  13.682  22.918  0.00  0.00    +0.000 OA
BRANCH  34  36
ATOM     35  C   UNL     1      -7.293  13.906  21.119  0.00  0.00    +0.000 C 
ATOM     36  C   UNL     1      -6.794  12.991  22.223  0.00  0.00    +0.000 C 
ENDBRANCH  34  36
ENDBRANCH  32  34
ENDBRANCH  31  32
ENDBRANCH  30  31
ENDBRANCH  29  30
ENDBRANCH  28  29
ENDBRANCH  22  28
ENDBRANCH  21  25
ENDBRANCH  20  21
ENDBRANCH   1  20
TORSDOF 11
ENDMDL
