MODEL 1
REMARK VINA RESULT:      -8.2      0.000      0.000
REMARK  Name = 
REMARK  2 active torsions:
REMARK  status: ('A' for Active; 'I' for Inactive)
REMARK    1  A    between atoms: C_7  and  C_8
REMARK    2  A    between atoms: N_15  and  C_16
REMARK                            x       y       z     vdW  Elec       q    Type
REMARK                         _______ _______ _______ _____ _____    ______ ____
ROOT
ATOM      1  C   UNL     1       3.843   3.479  17.862  0.00  0.00    +0.000 A 
ATOM      2  N   UNL     1       3.389   2.242  17.712  0.00  0.00    +0.000 NA
ATOM      3  N   UNL     1       2.359   2.036  18.600  0.00  0.00    +0.000 NA
ATOM      4  C   UNL     1       2.174   3.159  19.253  0.00  0.00    +0.000 A 
ATOM      5  C   UNL     1       1.287   3.522  20.287  0.00  0.00    +0.000 A 
ATOM      6  C   UNL     1       1.288   4.785  20.734  0.00  0.00    +0.000 A 
ATOM      7  C   UNL     1       2.234   5.764  20.112  0.00  0.00    +0.000 A 
ATOM      8  N   UNL     1       2.301   7.077  20.518  0.00  0.00    +0.000 N 
ATOM      9  N   UNL     1       3.081   5.440  19.169  0.00  0.00    +0.000 NA
ATOM     10  N   UNL     1       3.044   4.124  18.793  0.00  0.00    +0.000 N 
ATOM     11  H   UNL     1       2.981   7.576  19.950  0.00  0.00    +0.000 HD
ENDROOT
BRANCH   1  18
ATOM     12  F   UNL     1       6.221   4.536  19.118  0.00  0.00    +0.000 F 
ATOM     13  C   UNL     1       6.103   4.579  17.782  0.00  0.00    +0.000 A 
ATOM     14  C   UNL     1       7.174   5.110  17.061  0.00  0.00    +0.000 A 
ATOM     15  C   UNL     1       7.144   5.108  15.670  0.00  0.00    +0.000 A 
ATOM     16  C   UNL     1       6.046   4.568  15.004  0.00  0.00    +0.000 A 
ATOM     17  C   UNL     1       4.970   4.047  15.733  0.00  0.00    +0.000 A 
ATOM     18  C   UNL     1       4.975   4.059  17.138  0.00  0.00    +0.000 A 
ENDBRANCH   1  18
BRANCH   8  19
ATOM     19  C   UNL     1       1.096   7.825  20.875  0.00  0.00    +0.000 C 
ATOM     20  C   UNL     1       1.102   8.901  21.922  0.00  0.00    +0.000 C 
ATOM     21  C   UNL     1       1.012   9.275  20.473  0.00  0.00    +0.000 C 
ENDBRANCH   8  19
TORSDOF 2
ENDMDL
MODEL 2
REMARK VINA RESULT:      -8.1      2.555      6.662
REMARK  Name = 
REMARK  2 active torsions:
REMARK  status: ('A' for Active; 'I' for Inactive)
REMARK    1  A    between atoms: C_7  and  C_8
REMARK    2  A    between atoms: N_15  and  C_16
REMARK                            x       y       z     vdW  Elec       q    Type
REMARK                         _______ _______ _______ _____ _____    ______ ____
ROOT
ATOM      1  C   UNL     1       4.874   4.402  19.102  0.00  0.00    +0.000 A 
ATOM      2  N   UNL     1       5.745   4.958  19.933  0.00  0.00    +0.000 NA
ATOM      3  N   UNL     1       6.927   5.171  19.262  0.00  0.00    +0.000 NA
ATOM      4  C   UNL     1       6.751   4.776  18.023  0.00  0.00    +0.000 A 
ATOM      5  C   UNL     1       7.612   4.732  16.907  0.00  0.00    +0.000 A 
ATOM      6  C   UNL     1       7.131   4.320  15.728  0.00  0.00    +0.000 A 
ATOM      7  C   UNL     1       5.690   3.922  15.640  0.00  0.00    +0.000 A 
ATOM      8  N   UNL     1       5.121   3.481  14.467  0.00  0.00    +0.000 N 
ATOM      9  N   UNL     1       4.882   3.933  16.670  0.00  0.00    +0.000 NA
ATOM     10  N   UNL     1       5.457   4.332  17.846  0.00  0.00    +0.000 N 
ATOM     11  H   UNL     1       4.132   3.295  14.617  0.00  0.00    +0.000 HD
ENDROOT
BRANCH   1  18
ATOM     12  F   UNL     1       3.918   1.683  18.896  0.00  0.00    +0.000 F 
ATOM     13  C   UNL     1       3.087   2.646  19.326  0.00  0.00    +0.000 A 
ATOM     14  C   UNL     1       1.796   2.263  19.689  0.00  0.00    +0.000 A 
ATOM     15  C   UNL     1       0.915   3.202  20.218  0.00  0.00    +0.000 A 
ATOM     16  C   UNL     1       1.333   4.521  20.386  0.00  0.00    +0.000 A 
ATOM     17  C   UNL     1       2.626   4.901  20.010  0.00  0.00    +0.000 A 
ATOM     18  C   UNL     1       3.522   3.970  19.457  0.00  0.00    +0.000 A 
ENDBRANCH   1  18
BRANCH   8  19
ATOM     19  C   UNL     1       5.470   4.082  13.181  0.00  0.00    +0.000 C 
ATOM     20  C   UNL     1       6.431   3.432  12.227  0.00  0.00    +0.000 C 
ATOM     21  C   UNL     1       4.962   3.423  11.925  0.00  0.00    +0.000 C 
ENDBRANCH   8  19
TORSDOF 2
ENDMDL
MODEL 3
REMARK VINA RESULT:      -7.9      2.587      6.628
REMARK  Name = 
REMARK  2 active torsions:
REMARK  status: ('A' for Active; 'I' for Inactive)
REMARK    1  A    between atoms: C_7  and  C_8
REMARK    2  A    between atoms: N_15  and  C_16
REMARK                            x       y       z     vdW  Elec       q    Type
REMARK                         _______ _______ _______ _____ _____    ______ ____
ROOT
ATOM      1  C   UNL     1       4.919   4.443  19.095  0.00  0.00    +0.000 A 
ATOM      2  N   UNL     1       5.806   4.989  19.916  0.00  0.00    +0.000 NA
ATOM      3  N   UNL     1       6.984   5.182  19.232  0.00  0.00    +0.000 NA
ATOM      4  C   UNL     1       6.790   4.787  17.997  0.00  0.00    +0.000 A 
ATOM      5  C   UNL     1       7.639   4.727  16.873  0.00  0.00    +0.000 A 
ATOM      6  C   UNL     1       7.140   4.320  15.699  0.00  0.00    +0.000 A 
ATOM      7  C   UNL     1       5.693   3.943  15.627  0.00  0.00    +0.000 A 
ATOM      8  N   UNL     1       5.106   3.508  14.461  0.00  0.00    +0.000 N 
ATOM      9  N   UNL     1       4.895   3.969  16.665  0.00  0.00    +0.000 NA
ATOM     10  N   UNL     1       5.489   4.362  17.834  0.00  0.00    +0.000 N 
ATOM     11  H   UNL     1       4.116   3.336  14.621  0.00  0.00    +0.000 HD
ENDROOT
BRANCH   1  18
ATOM     12  F   UNL     1       2.836   6.254  19.952  0.00  0.00    +0.000 F 
ATOM     13  C   UNL     1       2.586   4.937  19.894  0.00  0.00    +0.000 A 
ATOM     14  C   UNL     1       1.297   4.514  20.223  0.00  0.00    +0.000 A 
ATOM     15  C   UNL     1       0.954   3.171  20.104  0.00  0.00    +0.000 A 
ATOM     16  C   UNL     1       1.901   2.255  19.650  0.00  0.00    +0.000 A 
ATOM     17  C   UNL     1       3.195   2.683  19.332  0.00  0.00    +0.000 A 
ATOM     18  C   UNL     1       3.564   4.032  19.465  0.00  0.00    +0.000 A 
ENDBRANCH   1  18
BRANCH   8  19
ATOM     19  C   UNL     1       5.451   4.100  13.170  0.00  0.00    +0.000 C 
ATOM     20  C   UNL     1       6.381   3.427  12.202  0.00  0.00    +0.000 C 
ATOM     21  C   UNL     1       4.908   3.454  11.922  0.00  0.00    +0.000 C 
ENDBRANCH   8  19
TORSDOF 2
ENDMDL
MODEL 4
REMARK VINA RESULT:      -7.7      1.721      2.133
REMARK  Name = 
REMARK  2 active torsions:
REMARK  status: ('A' for Active; 'I' for Inactive)
REMARK    1  A    between atoms: C_7  and  C_8
REMARK    2  A    between atoms: N_15  and  C_16
REMARK                            x       y       z     vdW  Elec       q    Type
REMARK                         _______ _______ _______ _____ _____    ______ ____
ROOT
ATOM      1  C   UNL     1       4.414   4.744  18.417  0.00  0.00    +0.000 A 
ATOM      2  N   UNL     1       4.211   3.553  17.870  0.00  0.00    +0.000 NA
ATOM      3  N   UNL     1       3.007   3.060  18.313  0.00  0.00    +0.000 NA
ATOM      4  C   UNL     1       2.474   3.968  19.095  0.00  0.00    +0.000 A 
ATOM      5  C   UNL     1       1.277   3.999  19.841  0.00  0.00    +0.000 A 
ATOM      6  C   UNL     1       0.960   5.108  20.521  0.00  0.00    +0.000 A 
ATOM      7  C   UNL     1       1.894   6.277  20.461  0.00  0.00    +0.000 A 
ATOM      8  N   UNL     1       1.644   7.449  21.136  0.00  0.00    +0.000 N 
ATOM      9  N   UNL     1       3.021   6.259  19.794  0.00  0.00    +0.000 NA
ATOM     10  N   UNL     1       3.290   5.078  19.156  0.00  0.00    +0.000 N 
ATOM     11  H   UNL     1       2.381   8.122  20.937  0.00  0.00    +0.000 HD
ENDROOT
BRANCH   1  18
ATOM     12  F   UNL     1       4.668   6.860  16.466  0.00  0.00    +0.000 F 
ATOM     13  C   UNL     1       5.705   6.571  17.268  0.00  0.00    +0.000 A 
ATOM     14  C   UNL     1       6.855   7.349  17.133  0.00  0.00    +0.000 A 
ATOM     15  C   UNL     1       7.933   7.150  17.990  0.00  0.00    +0.000 A 
ATOM     16  C   UNL     1       7.854   6.177  18.984  0.00  0.00    +0.000 A 
ATOM     17  C   UNL     1       6.701   5.392  19.107  0.00  0.00    +0.000 A 
ATOM     18  C   UNL     1       5.611   5.566  18.237  0.00  0.00    +0.000 A 
ENDBRANCH   1  18
BRANCH   8  19
ATOM     19  C   UNL     1       0.292   7.996  21.236  0.00  0.00    +0.000 C 
ATOM     20  C   UNL     1      -0.082   9.026  22.262  0.00  0.00    +0.000 C 
ATOM     21  C   UNL     1       0.070   9.429  20.825  0.00  0.00    +0.000 C 
ENDBRANCH   8  19
TORSDOF 2
ENDMDL
MODEL 5
REMARK VINA RESULT:      -7.6      1.044      1.494
REMARK  Name = 
REMARK  2 active torsions:
REMARK  status: ('A' for Active; 'I' for Inactive)
REMARK    1  A    between atoms: C_7  and  C_8
REMARK    2  A    between atoms: N_15  and  C_16
REMARK                            x       y       z     vdW  Elec       q    Type
REMARK                         _______ _______ _______ _____ _____    ______ ____
ROOT
ATOM      1  C   UNL     1       3.940   3.493  18.010  0.00  0.00    +0.000 A 
ATOM      2  N   UNL     1       3.471   2.278  17.763  0.00  0.00    +0.000 NA
ATOM      3  N   UNL     1       2.353   2.068  18.537  0.00  0.00    +0.000 NA
ATOM      4  C   UNL     1       2.134   3.168  19.217  0.00  0.00    +0.000 A 
ATOM      5  C   UNL     1       1.159   3.516  20.174  0.00  0.00    +0.000 A 
ATOM      6  C   UNL     1       1.149   4.758  20.673  0.00  0.00    +0.000 A 
ATOM      7  C   UNL     1       2.177   5.733  20.190  0.00  0.00    +0.000 A 
ATOM      8  N   UNL     1       2.238   7.026  20.657  0.00  0.00    +0.000 N 
ATOM      9  N   UNL     1       3.105   5.422  19.320  0.00  0.00    +0.000 NA
ATOM     10  N   UNL     1       3.070   4.124  18.886  0.00  0.00    +0.000 N 
ATOM     11  H   UNL     1       2.984   7.527  20.179  0.00  0.00    +0.000 HD
ENDROOT
BRANCH   1  18
ATOM     12  F   UNL     1       4.331   3.966  15.186  0.00  0.00    +0.000 F 
ATOM     13  C   UNL     1       5.314   4.265  16.049  0.00  0.00    +0.000 A 
ATOM     14  C   UNL     1       6.476   4.831  15.525  0.00  0.00    +0.000 A 
ATOM     15  C   UNL     1       7.498   5.237  16.378  0.00  0.00    +0.000 A 
ATOM     16  C   UNL     1       7.350   5.080  17.755  0.00  0.00    +0.000 A 
ATOM     17  C   UNL     1       6.186   4.501  18.274  0.00  0.00    +0.000 A 
ATOM     18  C   UNL     1       5.153   4.068  17.425  0.00  0.00    +0.000 A 
ENDBRANCH   1  18
BRANCH   8  19
ATOM     19  C   UNL     1       1.024   7.795  20.926  0.00  0.00    +0.000 C 
ATOM     20  C   UNL     1       0.997   8.934  21.903  0.00  0.00    +0.000 C 
ATOM     21  C   UNL     1       0.956   9.216  20.431  0.00  0.00    +0.000 C 
ENDBRANCH   8  19
TORSDOF 2
ENDMDL
MODEL 6
REMARK VINA RESULT:      -7.4      2.966      6.903
REMARK  Name = 
REMARK  2 active torsions:
REMARK  status: ('A' for Active; 'I' for Inactive)
REMARK    1  A    between atoms: C_7  and  C_8
REMARK    2  A    between atoms: N_15  and  C_16
REMARK                            x       y       z     vdW  Elec       q    Type
REMARK                         _______ _______ _______ _____ _____    ______ ____
ROOT
ATOM      1  C   UNL     1       4.666   4.823  18.324  0.00  0.00    +0.000 A 
ATOM      2  N   UNL     1       5.197   5.820  19.020  0.00  0.00    +0.000 NA
ATOM      3  N   UNL     1       6.296   6.297  18.344  0.00  0.00    +0.000 NA
ATOM      4  C   UNL     1       6.400   5.612  17.231  0.00  0.00    +0.000 A 
ATOM      5  C   UNL     1       7.336   5.646  16.177  0.00  0.00    +0.000 A 
ATOM      6  C   UNL     1       7.156   4.847  15.117  0.00  0.00    +0.000 A 
ATOM      7  C   UNL     1       5.959   3.946  15.094  0.00  0.00    +0.000 A 
ATOM      8  N   UNL     1       5.706   3.091  14.046  0.00  0.00    +0.000 N 
ATOM      9  N   UNL     1       5.093   3.883  16.073  0.00  0.00    +0.000 NA
ATOM     10  N   UNL     1       5.367   4.704  17.134  0.00  0.00    +0.000 N 
ATOM     11  H   UNL     1       4.833   2.596  14.213  0.00  0.00    +0.000 HD
ENDROOT
BRANCH   1  18
ATOM     12  F   UNL     1       1.919   5.422  17.657  0.00  0.00    +0.000 F 
ATOM     13  C   UNL     1       2.197   4.350  18.414  0.00  0.00    +0.000 A 
ATOM     14  C   UNL     1       1.125   3.551  18.812  0.00  0.00    +0.000 A 
ATOM     15  C   UNL     1       1.358   2.382  19.530  0.00  0.00    +0.000 A 
ATOM     16  C   UNL     1       2.665   2.013  19.842  0.00  0.00    +0.000 A 
ATOM     17  C   UNL     1       3.736   2.824  19.449  0.00  0.00    +0.000 A 
ATOM     18  C   UNL     1       3.517   4.018  18.741  0.00  0.00    +0.000 A 
ENDBRANCH   1  18
BRANCH   8  19
ATOM     19  C   UNL     1       5.960   3.489  12.662  0.00  0.00    +0.000 C 
ATOM     20  C   UNL     1       6.147   2.486  11.562  0.00  0.00    +0.000 C 
ATOM     21  C   UNL     1       4.870   3.267  11.646  0.00  0.00    +0.000 C 
ENDBRANCH   8  19
TORSDOF 2
ENDMDL
MODEL 7
REMARK VINA RESULT:      -7.4      2.962      6.901
REMARK  Name = 
REMARK  2 active torsions:
REMARK  status: ('A' for Active; 'I' for Inactive)
REMARK    1  A    between atoms: C_7  and  C_8
REMARK    2  A    between atoms: N_15  and  C_16
REMARK                            x       y       z     vdW  Elec       q    Type
REMARK                         _______ _______ _______ _____ _____    ______ ____
ROOT
ATOM      1  C   UNL     1       4.375   4.948  17.895  0.00  0.00    +0.000 A 
ATOM      2  N   UNL     1       4.754   6.061  18.509  0.00  0.00    +0.000 NA
ATOM      3  N   UNL     1       5.827   6.597  17.836  0.00  0.00    +0.000 NA
ATOM      4  C   UNL     1       6.066   5.827  16.801  0.00  0.00    +0.000 A 
ATOM      5  C   UNL     1       7.047   5.870  15.789  0.00  0.00    +0.000 A 
ATOM      6  C   UNL     1       7.013   4.960  14.808  0.00  0.00    +0.000 A 
ATOM      7  C   UNL     1       5.927   3.928  14.824  0.00  0.00    +0.000 A 
ATOM      8  N   UNL     1       5.827   2.955  13.857  0.00  0.00    +0.000 N 
ATOM      9  N   UNL     1       5.023   3.857  15.768  0.00  0.00    +0.000 NA
ATOM     10  N   UNL     1       5.147   4.800  16.753  0.00  0.00    +0.000 N 
ATOM     11  H   UNL     1       5.007   2.380  14.035  0.00  0.00    +0.000 HD
ENDROOT
BRANCH   1  18
ATOM     12  F   UNL     1       4.723   2.781  19.774  0.00  0.00    +0.000 F 
ATOM     13  C   UNL     1       3.513   3.005  19.239  0.00  0.00    +0.000 A 
ATOM     14  C   UNL     1       2.466   2.184  19.657  0.00  0.00    +0.000 A 
ATOM     15  C   UNL     1       1.173   2.419  19.199  0.00  0.00    +0.000 A 
ATOM     16  C   UNL     1       0.932   3.479  18.328  0.00  0.00    +0.000 A 
ATOM     17  C   UNL     1       1.989   4.292  17.903  0.00  0.00    +0.000 A 
ATOM     18  C   UNL     1       3.303   4.057  18.340  0.00  0.00    +0.000 A 
ENDBRANCH   1  18
BRANCH   8  19
ATOM     19  C   UNL     1       6.107   3.248  12.452  0.00  0.00    +0.000 C 
ATOM     20  C   UNL     1       6.125   2.179  11.398  0.00  0.00    +0.000 C 
ATOM     21  C   UNL     1       4.976   3.141  11.462  0.00  0.00    +0.000 C 
ENDBRANCH   8  19
TORSDOF 2
ENDMDL
MODEL 8
REMARK VINA RESULT:      -7.3      1.169      1.310
REMARK  Name = 
REMARK  2 active torsions:
REMARK  status: ('A' for Active; 'I' for Inactive)
REMARK    1  A    between atoms: C_7  and  C_8
REMARK    2  A    between atoms: N_15  and  C_16
REMARK                            x       y       z     vdW  Elec       q    Type
REMARK                         _______ _______ _______ _____ _____    ______ ____
ROOT
ATOM      1  C   UNL     1       4.235   3.950  18.372  0.00  0.00    +0.000 A 
ATOM      2  N   UNL     1       3.998   2.758  18.901  0.00  0.00    +0.000 NA
ATOM      3  N   UNL     1       3.087   2.897  19.921  0.00  0.00    +0.000 NA
ATOM      4  C   UNL     1       2.752   4.164  19.978  0.00  0.00    +0.000 A 
ATOM      5  C   UNL     1       1.890   4.883  20.832  0.00  0.00    +0.000 A 
ATOM      6  C   UNL     1       1.698   6.190  20.615  0.00  0.00    +0.000 A 
ATOM      7  C   UNL     1       2.409   6.839  19.468  0.00  0.00    +0.000 A 
ATOM      8  N   UNL     1       2.271   8.178  19.183  0.00  0.00    +0.000 N 
ATOM      9  N   UNL     1       3.232   6.194  18.680  0.00  0.00    +0.000 NA
ATOM     10  N   UNL     1       3.402   4.871  18.989  0.00  0.00    +0.000 N 
ATOM     11  H   UNL     1       2.810   8.407  18.351  0.00  0.00    +0.000 HD
ENDROOT
BRANCH   1  18
ATOM     12  F   UNL     1       6.940   4.878  18.790  0.00  0.00    +0.000 F 
ATOM     13  C   UNL     1       6.489   4.693  17.540  0.00  0.00    +0.000 A 
ATOM     14  C   UNL     1       7.383   4.931  16.495  0.00  0.00    +0.000 A 
ATOM     15  C   UNL     1       7.000   4.680  15.181  0.00  0.00    +0.000 A 
ATOM     16  C   UNL     1       5.724   4.186  14.917  0.00  0.00    +0.000 A 
ATOM     17  C   UNL     1       4.828   3.961  15.969  0.00  0.00    +0.000 A 
ATOM     18  C   UNL     1       5.192   4.227  17.299  0.00  0.00    +0.000 A 
ENDBRANCH   1  18
BRANCH   8  19
ATOM     19  C   UNL     1       0.981   8.853  19.313  0.00  0.00    +0.000 C 
ATOM     20  C   UNL     1       0.841  10.192  19.978  0.00  0.00    +0.000 C 
ATOM     21  C   UNL     1       0.736  10.088  18.485  0.00  0.00    +0.000 C 
ENDBRANCH   8  19
TORSDOF 2
ENDMDL
MODEL 9
REMARK VINA RESULT:      -7.2      3.770      7.595
REMARK  Name = 
REMARK  2 active torsions:
REMARK  status: ('A' for Active; 'I' for Inactive)
REMARK    1  A    between atoms: C_7  and  C_8
REMARK    2  A    between atoms: N_15  and  C_16
REMARK                            x       y       z     vdW  Elec       q    Type
REMARK                         _______ _______ _______ _____ _____    ______ ____
ROOT
ATOM      1  C   UNL     1       1.000   9.612  19.609  0.00  0.00    +0.000 A 
ATOM      2  N   UNL     1       1.138  10.259  18.460  0.00  0.00    +0.000 NA
ATOM      3  N   UNL     1       1.939   9.516  17.624  0.00  0.00    +0.000 NA
ATOM      4  C   UNL     1       2.248   8.410  18.259  0.00  0.00    +0.000 A 
ATOM      5  C   UNL     1       3.053   7.306  17.909  0.00  0.00    +0.000 A 
ATOM      6  C   UNL     1       3.146   6.272  18.755  0.00  0.00    +0.000 A 
ATOM      7  C   UNL     1       2.387   6.331  20.044  0.00  0.00    +0.000 A 
ATOM      8  N   UNL     1       2.435   5.313  20.969  0.00  0.00    +0.000 N 
ATOM      9  N   UNL     1       1.655   7.357  20.397  0.00  0.00    +0.000 NA
ATOM     10  N   UNL     1       1.640   8.387  19.495  0.00  0.00    +0.000 N 
ATOM     11  H   UNL     1       1.827   5.537  21.754  0.00  0.00    +0.000 HD
ENDROOT
BRANCH   1  18
ATOM     12  F   UNL     1      -0.799  11.872  19.577  0.00  0.00    +0.000 F 
ATOM     13  C   UNL     1      -0.582  11.216  20.727  0.00  0.00    +0.000 A 
ATOM     14  C   UNL     1      -1.279  11.651  21.855  0.00  0.00    +0.000 A 
ATOM     15  C   UNL     1      -1.156  10.960  23.057  0.00  0.00    +0.000 A 
ATOM     16  C   UNL     1      -0.341   9.832  23.124  0.00  0.00    +0.000 A 
ATOM     17  C   UNL     1       0.365   9.408  21.992  0.00  0.00    +0.000 A 
ATOM     18  C   UNL     1       0.268  10.105  20.776  0.00  0.00    +0.000 A 
ENDBRANCH   1  18
BRANCH   8  19
ATOM     19  C   UNL     1       2.455   3.911  20.556  0.00  0.00    +0.000 C 
ATOM     20  C   UNL     1       2.309   2.785  21.539  0.00  0.00    +0.000 C 
ATOM     21  C   UNL     1       1.169   3.129  20.628  0.00  0.00    +0.000 C 
ENDBRANCH   8  19
TORSDOF 2
ENDMDL
