MODEL 1
REMARK VINA RESULT:      -7.9      0.000      0.000
REMARK  Name = 
REMARK  3 active torsions:
REMARK  status: ('A' for Active; 'I' for Inactive)
REMARK    1  A    between atoms: C_1  and  C_2
REMARK    2  A    between atoms: C_10  and  O_11
REMARK    3  A    between atoms: N_14  and  C_15
REMARK                            x       y       z     vdW  Elec       q    Type
REMARK                         _______ _______ _______ _____ _____    ______ ____
ROOT
ATOM      1  C   UNL     1       0.341   9.649  21.289  0.00  0.00    +0.000 C 
ATOM      2  C   UNL     1       1.105   8.720  20.392  0.00  0.00    +0.000 A 
ATOM      3  C   UNL     1       1.568   9.152  19.144  0.00  0.00    +0.000 A 
ATOM      4  C   UNL     1       2.299   8.290  18.322  0.00  0.00    +0.000 A 
ATOM      5  C   UNL     1       2.570   6.981  18.723  0.00  0.00    +0.000 A 
ATOM      6  C   UNL     1       2.088   6.548  19.963  0.00  0.00    +0.000 A 
ATOM      7  C   UNL     1       1.368   7.407  20.801  0.00  0.00    +0.000 A 
ATOM      8  C   UNL     1       2.332   5.144  20.349  0.00  0.00    +0.000 C 
ATOM      9  O   UNL     1       2.100   4.739  21.486  0.00  0.00    +0.000 OA
ATOM     10  C   UNL     1       2.708   4.220  19.209  0.00  0.00    +0.000 C 
ATOM     11  C   UNL     1       3.657   3.077  19.564  0.00  0.00    +0.000 C 
ATOM     12  C   UNL     1       4.333   2.743  18.224  0.00  0.00    +0.000 C 
ATOM     13  N   UNL     1       4.404   4.039  17.557  0.00  0.00    +0.000 N 
ATOM     14  C   UNL     1       3.537   4.946  18.145  0.00  0.00    +0.000 C 
ATOM     15  N   UNL     1       3.403   6.209  17.898  0.00  0.00    +0.000 NA
ENDROOT
BRANCH  13  16
ATOM     16  C   UNL     1       5.262   4.252  16.475  0.00  0.00    +0.000 A 
ATOM     17  C   UNL     1       4.857   3.994  15.155  0.00  0.00    +0.000 A 
ATOM     18  C   UNL     1       5.705   4.231  14.065  0.00  0.00    +0.000 A 
ATOM     19  C   UNL     1       6.990   4.720  14.274  0.00  0.00    +0.000 A 
ATOM     20  C   UNL     1       7.420   4.978  15.569  0.00  0.00    +0.000 A 
ATOM     21  C   UNL     1       6.563   4.751  16.650  0.00  0.00    +0.000 A 
ENDBRANCH  13  16
BRANCH  10  22
ATOM     22  O   UNL     1       1.517   3.667  18.652  0.00  0.00    +0.000 OA
ATOM     23  H   UNL     1       1.635   3.661  17.684  0.00  0.00    +0.000 HD
ENDBRANCH  10  22
TORSDOF 2
ENDMDL
MODEL 2
REMARK VINA RESULT:      -7.8      0.059      1.023
REMARK  Name = 
REMARK  3 active torsions:
REMARK  status: ('A' for Active; 'I' for Inactive)
REMARK    1  A    between atoms: C_1  and  C_2
REMARK    2  A    between atoms: C_10  and  O_11
REMARK    3  A    between atoms: N_14  and  C_15
REMARK                            x       y       z     vdW  Elec       q    Type
REMARK                         _______ _______ _______ _____ _____    ______ ____
ROOT
ATOM      1  C   UNL     1       0.304   9.641  21.277  0.00  0.00    +0.000 C 
ATOM      2  C   UNL     1       1.077   8.724  20.375  0.00  0.00    +0.000 A 
ATOM      3  C   UNL     1       1.535   9.166  19.128  0.00  0.00    +0.000 A 
ATOM      4  C   UNL     1       2.274   8.315  18.302  0.00  0.00    +0.000 A 
ATOM      5  C   UNL     1       2.559   7.006  18.697  0.00  0.00    +0.000 A 
ATOM      6  C   UNL     1       2.082   6.564  19.935  0.00  0.00    +0.000 A 
ATOM      7  C   UNL     1       1.354   7.412  20.778  0.00  0.00    +0.000 A 
ATOM      8  C   UNL     1       2.340   5.160  20.315  0.00  0.00    +0.000 C 
ATOM      9  O   UNL     1       2.113   4.749  21.450  0.00  0.00    +0.000 OA
ATOM     10  C   UNL     1       2.724   4.246  19.171  0.00  0.00    +0.000 C 
ATOM     11  C   UNL     1       3.685   3.110  19.520  0.00  0.00    +0.000 C 
ATOM     12  C   UNL     1       4.363   2.789  18.178  0.00  0.00    +0.000 C 
ATOM     13  N   UNL     1       4.420   4.089  17.517  0.00  0.00    +0.000 N 
ATOM     14  C   UNL     1       3.545   4.984  18.109  0.00  0.00    +0.000 C 
ATOM     15  N   UNL     1       3.399   6.247  17.868  0.00  0.00    +0.000 NA
ENDROOT
BRANCH  13  16
ATOM     16  C   UNL     1       5.276   4.315  16.435  0.00  0.00    +0.000 A 
ATOM     17  C   UNL     1       6.556   4.864  16.614  0.00  0.00    +0.000 A 
ATOM     18  C   UNL     1       7.426   5.069  15.535  0.00  0.00    +0.000 A 
ATOM     19  C   UNL     1       7.027   4.742  14.244  0.00  0.00    +0.000 A 
ATOM     20  C   UNL     1       5.763   4.205  14.036  0.00  0.00    +0.000 A 
ATOM     21  C   UNL     1       4.905   3.991  15.119  0.00  0.00    +0.000 A 
ENDBRANCH  13  16
BRANCH  10  22
ATOM     22  O   UNL     1       1.539   3.683  18.612  0.00  0.00    +0.000 OA
ATOM     23  H   UNL     1       1.102   4.391  18.105  0.00  0.00    +0.000 HD
ENDBRANCH  10  22
TORSDOF 2
ENDMDL
MODEL 3
REMARK VINA RESULT:      -7.8      3.060      4.377
REMARK  Name = 
REMARK  3 active torsions:
REMARK  status: ('A' for Active; 'I' for Inactive)
REMARK    1  A    between atoms: C_1  and  C_2
REMARK    2  A    between atoms: C_10  and  O_11
REMARK    3  A    between atoms: N_14  and  C_15
REMARK                            x       y       z     vdW  Elec       q    Type
REMARK                         _______ _______ _______ _____ _____    ______ ____
ROOT
ATOM      1  C   UNL     1       1.270   2.651  21.276  0.00  0.00    +0.000 C 
ATOM      2  C   UNL     1       2.155   2.835  20.078  0.00  0.00    +0.000 A 
ATOM      3  C   UNL     1       2.041   1.990  18.968  0.00  0.00    +0.000 A 
ATOM      4  C   UNL     1       2.850   2.180  17.845  0.00  0.00    +0.000 A 
ATOM      5  C   UNL     1       3.796   3.207  17.813  0.00  0.00    +0.000 A 
ATOM      6  C   UNL     1       3.919   4.037  18.933  0.00  0.00    +0.000 A 
ATOM      7  C   UNL     1       3.103   3.865  20.057  0.00  0.00    +0.000 A 
ATOM      8  C   UNL     1       4.963   5.081  18.908  0.00  0.00    +0.000 C 
ATOM      9  O   UNL     1       5.017   5.957  19.769  0.00  0.00    +0.000 OA
ATOM     10  C   UNL     1       6.045   4.884  17.868  0.00  0.00    +0.000 C 
ATOM     11  C   UNL     1       6.645   6.161  17.282  0.00  0.00    +0.000 C 
ATOM     12  C   UNL     1       7.175   5.711  15.910  0.00  0.00    +0.000 C 
ATOM     13  N   UNL     1       6.223   4.681  15.509  0.00  0.00    +0.000 N 
ATOM     14  C   UNL     1       5.493   4.230  16.597  0.00  0.00    +0.000 C 
ATOM     15  N   UNL     1       4.494   3.408  16.613  0.00  0.00    +0.000 NA
ENDROOT
BRANCH  13  16
ATOM     16  C   UNL     1       6.124   4.263  14.179  0.00  0.00    +0.000 A 
ATOM     17  C   UNL     1       7.237   4.266  13.323  0.00  0.00    +0.000 A 
ATOM     18  C   UNL     1       7.148   3.824  11.997  0.00  0.00    +0.000 A 
ATOM     19  C   UNL     1       5.932   3.378  11.490  0.00  0.00    +0.000 A 
ATOM     20  C   UNL     1       4.812   3.370  12.312  0.00  0.00    +0.000 A 
ATOM     21  C   UNL     1       4.912   3.802  13.638  0.00  0.00    +0.000 A 
ENDBRANCH  13  16
BRANCH  10  22
ATOM     22  O   UNL     1       7.097   4.107  18.438  0.00  0.00    +0.000 OA
ATOM     23  H   UNL     1       7.548   4.677  19.088  0.00  0.00    +0.000 HD
ENDBRANCH  10  22
TORSDOF 2
ENDMDL
MODEL 4
REMARK VINA RESULT:      -7.6      2.982      4.232
REMARK  Name = 
REMARK  3 active torsions:
REMARK  status: ('A' for Active; 'I' for Inactive)
REMARK    1  A    between atoms: C_1  and  C_2
REMARK    2  A    between atoms: C_10  and  O_11
REMARK    3  A    between atoms: N_14  and  C_15
REMARK                            x       y       z     vdW  Elec       q    Type
REMARK                         _______ _______ _______ _____ _____    ______ ____
ROOT
ATOM      1  C   UNL     1       1.017   2.866  20.871  0.00  0.00    +0.000 C 
ATOM      2  C   UNL     1       2.001   3.046  19.752  0.00  0.00    +0.000 A 
ATOM      3  C   UNL     1       1.952   2.225  18.619  0.00  0.00    +0.000 A 
ATOM      4  C   UNL     1       2.855   2.412  17.569  0.00  0.00    +0.000 A 
ATOM      5  C   UNL     1       3.829   3.410  17.634  0.00  0.00    +0.000 A 
ATOM      6  C   UNL     1       3.885   4.214  18.778  0.00  0.00    +0.000 A 
ATOM      7  C   UNL     1       2.977   4.047  19.828  0.00  0.00    +0.000 A 
ATOM      8  C   UNL     1       4.957   5.227  18.859  0.00  0.00    +0.000 C 
ATOM      9  O   UNL     1       4.967   6.084  19.739  0.00  0.00    +0.000 OA
ATOM     10  C   UNL     1       6.114   5.017  17.905  0.00  0.00    +0.000 C 
ATOM     11  C   UNL     1       6.796   6.286  17.395  0.00  0.00    +0.000 C 
ATOM     12  C   UNL     1       7.422   5.845  16.061  0.00  0.00    +0.000 C 
ATOM     13  N   UNL     1       6.476   4.853  15.564  0.00  0.00    +0.000 N 
ATOM     14  C   UNL     1       5.648   4.404  16.580  0.00  0.00    +0.000 C 
ATOM     15  N   UNL     1       4.628   3.612  16.498  0.00  0.00    +0.000 NA
ENDROOT
BRANCH  13  16
ATOM     16  C   UNL     1       6.472   4.462  14.221  0.00  0.00    +0.000 A 
ATOM     17  C   UNL     1       5.437   3.678  13.688  0.00  0.00    +0.000 A 
ATOM     18  C   UNL     1       5.416   3.306  12.337  0.00  0.00    +0.000 A 
ATOM     19  C   UNL     1       6.444   3.701  11.489  0.00  0.00    +0.000 A 
ATOM     20  C   UNL     1       7.486   4.471  11.990  0.00  0.00    +0.000 A 
ATOM     21  C   UNL     1       7.492   4.849  13.336  0.00  0.00    +0.000 A 
ENDBRANCH  13  16
BRANCH  10  22
ATOM     22  O   UNL     1       7.093   4.198  18.540  0.00  0.00    +0.000 OA
ATOM     23  H   UNL     1       7.611   3.775  17.830  0.00  0.00    +0.000 HD
ENDBRANCH  10  22
TORSDOF 2
ENDMDL
MODEL 5
REMARK VINA RESULT:      -7.6      1.416      6.221
REMARK  Name = 
REMARK  3 active torsions:
REMARK  status: ('A' for Active; 'I' for Inactive)
REMARK    1  A    between atoms: C_1  and  C_2
REMARK    2  A    between atoms: C_10  and  O_11
REMARK    3  A    between atoms: N_14  and  C_15
REMARK                            x       y       z     vdW  Elec       q    Type
REMARK                         _______ _______ _______ _____ _____    ______ ____
ROOT
ATOM      1  C   UNL     1       6.336   3.992  13.920  0.00  0.00    +0.000 C 
ATOM      2  C   UNL     1       5.622   4.679  15.046  0.00  0.00    +0.000 A 
ATOM      3  C   UNL     1       5.705   6.068  15.204  0.00  0.00    +0.000 A 
ATOM      4  C   UNL     1       5.018   6.706  16.240  0.00  0.00    +0.000 A 
ATOM      5  C   UNL     1       4.249   5.972  17.145  0.00  0.00    +0.000 A 
ATOM      6  C   UNL     1       4.185   4.582  16.994  0.00  0.00    +0.000 A 
ATOM      7  C   UNL     1       4.855   3.934  15.951  0.00  0.00    +0.000 A 
ATOM      8  C   UNL     1       3.415   3.813  17.992  0.00  0.00    +0.000 C 
ATOM      9  O   UNL     1       3.164   2.621  17.831  0.00  0.00    +0.000 OA
ATOM     10  C   UNL     1       3.124   4.546  19.284  0.00  0.00    +0.000 C 
ATOM     11  C   UNL     1       1.807   4.189  19.971  0.00  0.00    +0.000 C 
ATOM     12  C   UNL     1       1.487   5.440  20.806  0.00  0.00    +0.000 C 
ATOM     13  N   UNL     1       2.022   6.526  19.992  0.00  0.00    +0.000 N 
ATOM     14  C   UNL     1       2.914   6.045  19.047  0.00  0.00    +0.000 C 
ATOM     15  N   UNL     1       3.499   6.689  18.090  0.00  0.00    +0.000 NA
ENDROOT
BRANCH  13  16
ATOM     16  C   UNL     1       1.631   7.852  20.203  0.00  0.00    +0.000 A 
ATOM     17  C   UNL     1       1.533   8.767  19.142  0.00  0.00    +0.000 A 
ATOM     18  C   UNL     1       1.118  10.089  19.347  0.00  0.00    +0.000 A 
ATOM     19  C   UNL     1       0.803  10.532  20.626  0.00  0.00    +0.000 A 
ATOM     20  C   UNL     1       0.899   9.652  21.696  0.00  0.00    +0.000 A 
ATOM     21  C   UNL     1       1.302   8.330  21.483  0.00  0.00    +0.000 A 
ENDBRANCH  13  16
BRANCH  10  22
ATOM     22  O   UNL     1       4.192   4.310  20.199  0.00  0.00    +0.000 OA
ATOM     23  H   UNL     1       4.490   5.182  20.517  0.00  0.00    +0.000 HD
ENDBRANCH  10  22
TORSDOF 2
ENDMDL
MODEL 6
REMARK VINA RESULT:      -7.5      1.416      6.256
REMARK  Name = 
REMARK  3 active torsions:
REMARK  status: ('A' for Active; 'I' for Inactive)
REMARK    1  A    between atoms: C_1  and  C_2
REMARK    2  A    between atoms: C_10  and  O_11
REMARK    3  A    between atoms: N_14  and  C_15
REMARK                            x       y       z     vdW  Elec       q    Type
REMARK                         _______ _______ _______ _____ _____    ______ ____
ROOT
ATOM      1  C   UNL     1       6.340   3.926  13.927  0.00  0.00    +0.000 C 
ATOM      2  C   UNL     1       5.626   4.631  15.042  0.00  0.00    +0.000 A 
ATOM      3  C   UNL     1       5.688   6.024  15.163  0.00  0.00    +0.000 A 
ATOM      4  C   UNL     1       5.001   6.678  16.189  0.00  0.00    +0.000 A 
ATOM      5  C   UNL     1       4.252   5.956  17.120  0.00  0.00    +0.000 A 
ATOM      6  C   UNL     1       4.210   4.562  17.006  0.00  0.00    +0.000 A 
ATOM      7  C   UNL     1       4.880   3.897  15.973  0.00  0.00    +0.000 A 
ATOM      8  C   UNL     1       3.461   3.807  18.031  0.00  0.00    +0.000 C 
ATOM      9  O   UNL     1       3.228   2.607  17.904  0.00  0.00    +0.000 OA
ATOM     10  C   UNL     1       3.171   4.569  19.307  0.00  0.00    +0.000 C 
ATOM     11  C   UNL     1       1.867   4.209  20.015  0.00  0.00    +0.000 C 
ATOM     12  C   UNL     1       1.535   5.476  20.821  0.00  0.00    +0.000 C 
ATOM     13  N   UNL     1       2.044   6.549  19.974  0.00  0.00    +0.000 N 
ATOM     14  C   UNL     1       2.935   6.058  19.033  0.00  0.00    +0.000 C 
ATOM     15  N   UNL     1       3.500   6.685  18.053  0.00  0.00    +0.000 NA
ENDROOT
BRANCH  13  16
ATOM     16  C   UNL     1       1.634   7.873  20.155  0.00  0.00    +0.000 A 
ATOM     17  C   UNL     1       1.334   8.381  21.429  0.00  0.00    +0.000 A 
ATOM     18  C   UNL     1       0.947   9.715  21.618  0.00  0.00    +0.000 A 
ATOM     19  C   UNL     1       0.839  10.571  20.528  0.00  0.00    +0.000 A 
ATOM     20  C   UNL     1       1.122  10.094  19.254  0.00  0.00    +0.000 A 
ATOM     21  C   UNL     1       1.519   8.766  19.076  0.00  0.00    +0.000 A 
ENDBRANCH  13  16
BRANCH  10  22
ATOM     22  O   UNL     1       4.252   4.374  20.217  0.00  0.00    +0.000 OA
ATOM     23  H   UNL     1       4.503   3.433  20.160  0.00  0.00    +0.000 HD
ENDBRANCH  10  22
TORSDOF 2
ENDMDL
MODEL 7
REMARK VINA RESULT:      -6.6      3.094      6.777
REMARK  Name = 
REMARK  3 active torsions:
REMARK  status: ('A' for Active; 'I' for Inactive)
REMARK    1  A    between atoms: C_1  and  C_2
REMARK    2  A    between atoms: C_10  and  O_11
REMARK    3  A    between atoms: N_14  and  C_15
REMARK                            x       y       z     vdW  Elec       q    Type
REMARK                         _______ _______ _______ _____ _____    ______ ____
ROOT
ATOM      1  C   UNL     1       7.659   4.341  11.609  0.00  0.00    +0.000 C 
ATOM      2  C   UNL     1       6.788   4.314  12.830  0.00  0.00    +0.000 A 
ATOM      3  C   UNL     1       5.577   3.612  12.828  0.00  0.00    +0.000 A 
ATOM      4  C   UNL     1       4.780   3.570  13.976  0.00  0.00    +0.000 A 
ATOM      5  C   UNL     1       5.169   4.237  15.139  0.00  0.00    +0.000 A 
ATOM      6  C   UNL     1       6.370   4.953  15.129  0.00  0.00    +0.000 A 
ATOM      7  C   UNL     1       7.184   4.989  13.991  0.00  0.00    +0.000 A 
ATOM      8  C   UNL     1       6.740   5.701  16.347  0.00  0.00    +0.000 C 
ATOM      9  O   UNL     1       7.854   6.204  16.480  0.00  0.00    +0.000 OA
ATOM     10  C   UNL     1       5.605   5.951  17.317  0.00  0.00    +0.000 C 
ATOM     11  C   UNL     1       5.990   5.993  18.795  0.00  0.00    +0.000 C 
ATOM     12  C   UNL     1       4.683   5.621  19.516  0.00  0.00    +0.000 C 
ATOM     13  N   UNL     1       4.048   4.689  18.591  0.00  0.00    +0.000 N 
ATOM     14  C   UNL     1       4.604   4.791  17.326  0.00  0.00    +0.000 C 
ATOM     15  N   UNL     1       4.377   4.059  16.284  0.00  0.00    +0.000 NA
ENDROOT
BRANCH  13  16
ATOM     16  C   UNL     1       3.021   3.838  19.008  0.00  0.00    +0.000 A 
ATOM     17  C   UNL     1       2.921   3.406  20.341  0.00  0.00    +0.000 A 
ATOM     18  C   UNL     1       1.879   2.574  20.768  0.00  0.00    +0.000 A 
ATOM     19  C   UNL     1       0.915   2.141  19.865  0.00  0.00    +0.000 A 
ATOM     20  C   UNL     1       0.992   2.547  18.538  0.00  0.00    +0.000 A 
ATOM     21  C   UNL     1       2.028   3.387  18.122  0.00  0.00    +0.000 A 
ENDBRANCH  13  16
BRANCH  10  22
ATOM     22  O   UNL     1       4.970   7.182  16.978  0.00  0.00    +0.000 OA
ATOM     23  H   UNL     1       4.836   7.670  17.811  0.00  0.00    +0.000 HD
ENDBRANCH  10  22
TORSDOF 2
ENDMDL
MODEL 8
REMARK VINA RESULT:      -6.5      7.461     10.529
REMARK  Name = 
REMARK  3 active torsions:
REMARK  status: ('A' for Active; 'I' for Inactive)
REMARK    1  A    between atoms: C_1  and  C_2
REMARK    2  A    between atoms: C_10  and  O_11
REMARK    3  A    between atoms: N_14  and  C_15
REMARK                            x       y       z     vdW  Elec       q    Type
REMARK                         _______ _______ _______ _____ _____    ______ ____
ROOT
ATOM      1  C   UNL     1      -3.771   9.876  14.467  0.00  0.00    +0.000 C 
ATOM      2  C   UNL     1      -3.474  10.483  15.807  0.00  0.00    +0.000 A 
ATOM      3  C   UNL     1      -4.411  11.307  16.441  0.00  0.00    +0.000 A 
ATOM      4  C   UNL     1      -4.139  11.851  17.700  0.00  0.00    +0.000 A 
ATOM      5  C   UNL     1      -2.926  11.594  18.342  0.00  0.00    +0.000 A 
ATOM      6  C   UNL     1      -1.986  10.785  17.694  0.00  0.00    +0.000 A 
ATOM      7  C   UNL     1      -2.253  10.222  16.441  0.00  0.00    +0.000 A 
ATOM      8  C   UNL     1      -0.685  10.569  18.359  0.00  0.00    +0.000 C 
ATOM      9  O   UNL     1       0.118   9.736  17.945  0.00  0.00    +0.000 OA
ATOM     10  C   UNL     1      -0.350  11.560  19.453  0.00  0.00    +0.000 C 
ATOM     11  C   UNL     1       0.486  11.016  20.610  0.00  0.00    +0.000 C 
ATOM     12  C   UNL     1       0.136  11.954  21.778  0.00  0.00    +0.000 C 
ATOM     13  N   UNL     1      -1.258  12.296  21.519  0.00  0.00    +0.000 N 
ATOM     14  C   UNL     1      -1.604  12.012  20.208  0.00  0.00    +0.000 C 
ATOM     15  N   UNL     1      -2.769  12.080  19.649  0.00  0.00    +0.000 NA
ENDROOT
BRANCH  13  16
ATOM     16  C   UNL     1      -2.071  12.836  22.521  0.00  0.00    +0.000 A 
ATOM     17  C   UNL     1      -2.051  14.207  22.822  0.00  0.00    +0.000 A 
ATOM     18  C   UNL     1      -2.882  14.756  23.808  0.00  0.00    +0.000 A 
ATOM     19  C   UNL     1      -3.746  13.939  24.528  0.00  0.00    +0.000 A 
ATOM     20  C   UNL     1      -3.781  12.577  24.257  0.00  0.00    +0.000 A 
ATOM     21  C   UNL     1      -2.958  12.039  23.263  0.00  0.00    +0.000 A 
ENDBRANCH  13  16
BRANCH  10  22
ATOM     22  O   UNL     1       0.338  12.669  18.877  0.00  0.00    +0.000 OA
ATOM     23  H   UNL     1       0.783  13.135  19.608  0.00  0.00    +0.000 HD
ENDBRANCH  10  22
TORSDOF 2
ENDMDL
MODEL 9
REMARK VINA RESULT:      -6.5      7.538     10.644
REMARK  Name = 
REMARK  3 active torsions:
REMARK  status: ('A' for Active; 'I' for Inactive)
REMARK    1  A    between atoms: C_1  and  C_2
REMARK    2  A    between atoms: C_10  and  O_11
REMARK    3  A    between atoms: N_14  and  C_15
REMARK                            x       y       z     vdW  Elec       q    Type
REMARK                         _______ _______ _______ _____ _____    ______ ____
ROOT
ATOM      1  C   UNL     1      -3.377   9.669  14.377  0.00  0.00    +0.000 C 
ATOM      2  C   UNL     1      -3.218  10.325  15.718  0.00  0.00    +0.000 A 
ATOM      3  C   UNL     1      -4.240  11.118  16.251  0.00  0.00    +0.000 A 
ATOM      4  C   UNL     1      -4.096  11.707  17.511  0.00  0.00    +0.000 A 
ATOM      5  C   UNL     1      -2.928  11.527  18.254  0.00  0.00    +0.000 A 
ATOM      6  C   UNL     1      -1.902  10.749  17.707  0.00  0.00    +0.000 A 
ATOM      7  C   UNL     1      -2.041  10.141  16.454  0.00  0.00    +0.000 A 
ATOM      8  C   UNL     1      -0.650  10.614  18.478  0.00  0.00    +0.000 C 
ATOM      9  O   UNL     1       0.222   9.811  18.154  0.00  0.00    +0.000 OA
ATOM     10  C   UNL     1      -0.450  11.649  19.566  0.00  0.00    +0.000 C 
ATOM     11  C   UNL     1       0.315  11.177  20.801  0.00  0.00    +0.000 C 
ATOM     12  C   UNL     1      -0.172  12.127  21.908  0.00  0.00    +0.000 C 
ATOM     13  N   UNL     1      -1.556  12.393  21.531  0.00  0.00    +0.000 N 
ATOM     14  C   UNL     1      -1.781  12.058  20.206  0.00  0.00    +0.000 C 
ATOM     15  N   UNL     1      -2.899  12.054  19.554  0.00  0.00    +0.000 NA
ENDROOT
BRANCH  13  16
ATOM     16  C   UNL     1      -2.470  12.918  22.448  0.00  0.00    +0.000 A 
ATOM     17  C   UNL     1      -3.076  12.111  23.425  0.00  0.00    +0.000 A 
ATOM     18  C   UNL     1      -3.974  12.638  24.362  0.00  0.00    +0.000 A 
ATOM     19  C   UNL     1      -4.298  13.990  24.335  0.00  0.00    +0.000 A 
ATOM     20  C   UNL     1      -3.720  14.812  23.376  0.00  0.00    +0.000 A 
ATOM     21  C   UNL     1      -2.816  14.280  22.451  0.00  0.00    +0.000 A 
ENDBRANCH  13  16
BRANCH  10  22
ATOM     22  O   UNL     1       0.228  12.775  19.013  0.00  0.00    +0.000 OA
ATOM     23  H   UNL     1       1.183  12.596  19.094  0.00  0.00    +0.000 HD
ENDBRANCH  10  22
TORSDOF 2
ENDMDL
