MODEL 1
REMARK VINA RESULT:      -9.2      0.000      0.000
REMARK  Name = 
REMARK  7 active torsions:
REMARK  status: ('A' for Active; 'I' for Inactive)
REMARK    1  A    between atoms: N_5  and  C_6
REMARK    2  A    between atoms: C_9  and  C_10
REMARK    3  A    between atoms: C_10  and  O_11
REMARK    4  A    between atoms: O_11  and  C_12
REMARK    5  A    between atoms: C_12  and  C_13
REMARK    6  A    between atoms: C_12  and  C_19
REMARK    7  A    between atoms: C_12  and  C_25
REMARK                            x       y       z     vdW  Elec       q    Type
REMARK                         _______ _______ _______ _____ _____    ______ ____
ROOT
ATOM      1  C   UNL     1       0.002  10.783  18.902  0.00  0.00    +0.000 C 
ENDROOT
BRANCH   1   2
ATOM      2  C   UNL     1       0.754  12.134  18.647  0.00  0.00    +0.000 A 
ATOM      3  C   UNL     1       2.146  12.195  18.464  0.00  0.00    +0.000 A 
ATOM      4  C   UNL     1       2.815  13.426  18.406  0.00  0.00    +0.000 A 
ATOM      5  C   UNL     1       2.116  14.624  18.542  0.00  0.00    +0.000 A 
ATOM      6  C   UNL     1       0.742  14.600  18.718  0.00  0.00    +0.000 A 
ATOM      7  C   UNL     1       0.076  13.375  18.771  0.00  0.00    +0.000 A 
ENDBRANCH   1   2
BRANCH   1   8
ATOM      8  C   UNL     1      -1.436  10.735  18.285  0.00  0.00    +0.000 A 
ATOM      9  C   UNL     1      -2.495  11.504  18.822  0.00  0.00    +0.000 A 
ATOM     10  C   UNL     1      -3.777  11.495  18.262  0.00  0.00    +0.000 A 
ATOM     11  C   UNL     1      -4.038  10.708  17.147  0.00  0.00    +0.000 A 
ATOM     12  C   UNL     1      -3.021   9.926  16.603  0.00  0.00    +0.000 A 
ATOM     13  C   UNL     1      -1.731   9.937  17.164  0.00  0.00    +0.000 A 
ENDBRANCH   1   8
BRANCH   1  14
ATOM     14  C   UNL     1      -0.074  10.356  20.404  0.00  0.00    +0.000 A 
ATOM     15  C   UNL     1      -0.209   9.007  20.791  0.00  0.00    +0.000 A 
ATOM     16  C   UNL     1      -0.540   8.662  22.105  0.00  0.00    +0.000 A 
ATOM     17  C   UNL     1      -0.663   9.650  23.076  0.00  0.00    +0.000 A 
ATOM     18  C   UNL     1      -0.407  10.977  22.746  0.00  0.00    +0.000 A 
ATOM     19  C   UNL     1      -0.095  11.324  21.428  0.00  0.00    +0.000 A 
ENDBRANCH   1  14
BRANCH   1  20
ATOM     20  O   UNL     1       0.755   9.766  18.164  0.00  0.00    +0.000 OA
BRANCH  20  21
ATOM     21  C   UNL     1       1.845   9.137  18.834  0.00  0.00    +0.000 C 
BRANCH  21  25
ATOM     22  C   UNL     1       3.842   6.372  19.011  0.00  0.00    +0.000 C 
ATOM     23  C   UNL     1       4.160   6.939  17.674  0.00  0.00    +0.000 C 
ATOM     24  C   UNL     1       3.159   7.704  17.247  0.00  0.00    +0.000 C 
ATOM     25  C   UNL     1       2.081   7.739  18.274  0.00  0.00    +0.000 C 
ATOM     26  O   UNL     1       2.547   6.904  19.358  0.00  0.00    +0.000 OA
BRANCH  22  31
ATOM     27  O   UNL     1       3.783   0.950  18.460  0.00  0.00    +0.000 OA
ATOM     28  C   UNL     1       3.778   2.160  18.640  0.00  0.00    +0.000 A 
ATOM     29  C   UNL     1       2.557   2.950  18.420  0.00  0.00    +0.000 A 
ATOM     30  C   UNL     1       2.614   4.273  18.568  0.00  0.00    +0.000 A 
ATOM     31  N   UNL     1       3.781   4.922  18.931  0.00  0.00    +0.000 N 
ATOM     32  C   UNL     1       4.958   4.226  19.165  0.00  0.00    +0.000 A 
ATOM     33  O   UNL     1       6.028   4.756  19.448  0.00  0.00    +0.000 OA
ATOM     34  N   UNL     1       4.874   2.863  19.041  0.00  0.00    +0.000 N 
ATOM     35  H   UNL     1       5.727   2.347  19.181  0.00  0.00    +0.000 HD
ENDBRANCH  22  31
ENDBRANCH  21  25
ENDBRANCH  20  21
ENDBRANCH   1  20
TORSDOF 7
ENDMDL
MODEL 2
REMARK VINA RESULT:      -8.9      0.266      1.195
REMARK  Name = 
REMARK  7 active torsions:
REMARK  status: ('A' for Active; 'I' for Inactive)
REMARK    1  A    between atoms: N_5  and  C_6
REMARK    2  A    between atoms: C_9  and  C_10
REMARK    3  A    between atoms: C_10  and  O_11
REMARK    4  A    between atoms: O_11  and  C_12
REMARK    5  A    between atoms: C_12  and  C_13
REMARK    6  A    between atoms: C_12  and  C_19
REMARK    7  A    between atoms: C_12  and  C_25
REMARK                            x       y       z     vdW  Elec       q    Type
REMARK                         _______ _______ _______ _____ _____    ______ ____
ROOT
ATOM      1  C   UNL     1      -0.118  10.843  19.037  0.00  0.00    +0.000 C 
ENDROOT
BRANCH   1   2
ATOM      2  C   UNL     1       0.617  12.223  18.938  0.00  0.00    +0.000 A 
ATOM      3  C   UNL     1      -0.067  13.446  19.043  0.00  0.00    +0.000 A 
ATOM      4  C   UNL     1       0.581  14.662  18.784  0.00  0.00    +0.000 A 
ATOM      5  C   UNL     1       1.921  14.688  18.402  0.00  0.00    +0.000 A 
ATOM      6  C   UNL     1       2.627  13.500  18.293  0.00  0.00    +0.000 A 
ATOM      7  C   UNL     1       1.982  12.291  18.556  0.00  0.00    +0.000 A 
ENDBRANCH   1   2
BRANCH   1   8
ATOM      8  C   UNL     1      -1.456  10.779  18.225  0.00  0.00    +0.000 A 
ATOM      9  C   UNL     1      -2.582  11.549  18.598  0.00  0.00    +0.000 A 
ATOM     10  C   UNL     1      -3.772  11.526  17.862  0.00  0.00    +0.000 A 
ATOM     11  C   UNL     1      -3.871  10.724  16.733  0.00  0.00    +0.000 A 
ATOM     12  C   UNL     1      -2.785   9.941  16.348  0.00  0.00    +0.000 A 
ATOM     13  C   UNL     1      -1.587   9.966  17.084  0.00  0.00    +0.000 A 
ENDBRANCH   1   8
BRANCH   1  14
ATOM     14  C   UNL     1      -0.387  10.355  20.498  0.00  0.00    +0.000 A 
ATOM     15  C   UNL     1      -0.442  11.249  21.587  0.00  0.00    +0.000 A 
ATOM     16  C   UNL     1      -0.417  10.785  22.906  0.00  0.00    +0.000 A 
ATOM     17  C   UNL     1      -0.419   9.419  23.165  0.00  0.00    +0.000 A 
ATOM     18  C   UNL     1      -0.495   8.517  22.108  0.00  0.00    +0.000 A 
ATOM     19  C   UNL     1      -0.501   8.980  20.789  0.00  0.00    +0.000 A 
ENDBRANCH   1  14
BRANCH   1  20
ATOM     20  O   UNL     1       0.763   9.877  18.376  0.00  0.00    +0.000 OA
BRANCH  20  21
ATOM     21  C   UNL     1       1.630   9.103  19.201  0.00  0.00    +0.000 C 
BRANCH  21  25
ATOM     22  C   UNL     1       3.725   6.407  19.144  0.00  0.00    +0.000 C 
ATOM     23  C   UNL     1       3.917   7.019  17.802  0.00  0.00    +0.000 C 
ATOM     24  C   UNL     1       2.860   7.758  17.477  0.00  0.00    +0.000 C 
ATOM     25  C   UNL     1       1.867   7.729  18.586  0.00  0.00    +0.000 C 
ATOM     26  O   UNL     1       2.445   6.884  19.606  0.00  0.00    +0.000 OA
BRANCH  22  31
ATOM     27  O   UNL     1       3.836   1.000  18.468  0.00  0.00    +0.000 OA
ATOM     28  C   UNL     1       3.789   2.205  18.675  0.00  0.00    +0.000 A 
ATOM     29  C   UNL     1       2.561   2.969  18.415  0.00  0.00    +0.000 A 
ATOM     30  C   UNL     1       2.575   4.289  18.594  0.00  0.00    +0.000 A 
ATOM     31  N   UNL     1       3.707   4.958  19.028  0.00  0.00    +0.000 N 
ATOM     32  C   UNL     1       4.889   4.286  19.303  0.00  0.00    +0.000 A 
ATOM     33  O   UNL     1       5.930   4.836  19.648  0.00  0.00    +0.000 OA
ATOM     34  N   UNL     1       4.847   2.925  19.143  0.00  0.00    +0.000 N 
ATOM     35  H   UNL     1       5.706   2.427  19.312  0.00  0.00    +0.000 HD
ENDBRANCH  22  31
ENDBRANCH  21  25
ENDBRANCH  20  21
ENDBRANCH   1  20
TORSDOF 7
ENDMDL
MODEL 3
REMARK VINA RESULT:      -8.9      0.273      1.194
REMARK  Name = 
REMARK  7 active torsions:
REMARK  status: ('A' for Active; 'I' for Inactive)
REMARK    1  A    between atoms: N_5  and  C_6
REMARK    2  A    between atoms: C_9  and  C_10
REMARK    3  A    between atoms: C_10  and  O_11
REMARK    4  A    between atoms: O_11  and  C_12
REMARK    5  A    between atoms: C_12  and  C_13
REMARK    6  A    between atoms: C_12  and  C_19
REMARK    7  A    between atoms: C_12  and  C_25
REMARK                            x       y       z     vdW  Elec       q    Type
REMARK                         _______ _______ _______ _____ _____    ______ ____
ROOT
ATOM      1  C   UNL     1       0.121  10.963  19.142  0.00  0.00    +0.000 C 
ENDROOT
BRANCH   1   2
ATOM      2  C   UNL     1       0.830  12.349  18.964  0.00  0.00    +0.000 A 
ATOM      3  C   UNL     1       0.140  13.566  19.089  0.00  0.00    +0.000 A 
ATOM      4  C   UNL     1       0.754  14.783  18.761  0.00  0.00    +0.000 A 
ATOM      5  C   UNL     1       2.066  14.816  18.289  0.00  0.00    +0.000 A 
ATOM      6  C   UNL     1       2.777  13.634  18.159  0.00  0.00    +0.000 A 
ATOM      7  C   UNL     1       2.166  12.424  18.491  0.00  0.00    +0.000 A 
ENDBRANCH   1   2
BRANCH   1   8
ATOM      8  C   UNL     1      -1.257  10.860  18.406  0.00  0.00    +0.000 A 
ATOM      9  C   UNL     1      -1.436  10.010  17.291  0.00  0.00    +0.000 A 
ATOM     10  C   UNL     1      -2.671   9.884  16.644  0.00  0.00    +0.000 A 
ATOM     11  C   UNL     1      -3.764  10.615  17.093  0.00  0.00    +0.000 A 
ATOM     12  C   UNL     1      -3.617  11.474  18.180  0.00  0.00    +0.000 A 
ATOM     13  C   UNL     1      -2.377  11.598  18.833  0.00  0.00    +0.000 A 
ENDBRANCH   1   8
BRANCH   1  14
ATOM     14  C   UNL     1      -0.061  10.514  20.628  0.00  0.00    +0.000 A 
ATOM     15  C   UNL     1      -0.192   9.157  20.988  0.00  0.00    +0.000 A 
ATOM     16  C   UNL     1      -0.616   8.785  22.267  0.00  0.00    +0.000 A 
ATOM     17  C   UNL     1      -0.840   9.756  23.237  0.00  0.00    +0.000 A 
ATOM     18  C   UNL     1      -0.594  11.093  22.944  0.00  0.00    +0.000 A 
ATOM     19  C   UNL     1      -0.187  11.467  21.659  0.00  0.00    +0.000 A 
ENDBRANCH   1  14
BRANCH   1  20
ATOM     20  O   UNL     1       0.978   9.990  18.461  0.00  0.00    +0.000 OA
BRANCH  20  21
ATOM     21  C   UNL     1       1.805   9.158  19.271  0.00  0.00    +0.000 C 
BRANCH  21  25
ATOM     22  C   UNL     1       3.832   6.420  19.030  0.00  0.00    +0.000 C 
ATOM     23  C   UNL     1       3.914   7.029  17.675  0.00  0.00    +0.000 C 
ATOM     24  C   UNL     1       2.847   7.789  17.445  0.00  0.00    +0.000 C 
ATOM     25  C   UNL     1       1.958   7.779  18.640  0.00  0.00    +0.000 C 
ATOM     26  O   UNL     1       2.609   6.923  19.605  0.00  0.00    +0.000 OA
BRANCH  22  31
ATOM     27  O   UNL     1       3.811   1.009  18.382  0.00  0.00    +0.000 OA
ATOM     28  C   UNL     1       3.791   2.216  18.582  0.00  0.00    +0.000 A 
ATOM     29  C   UNL     1       2.605   3.017  18.246  0.00  0.00    +0.000 A 
ATOM     30  C   UNL     1       2.650   4.337  18.421  0.00  0.00    +0.000 A 
ATOM     31  N   UNL     1       3.775   4.973  18.919  0.00  0.00    +0.000 N 
ATOM     32  C   UNL     1       4.917   4.265  19.266  0.00  0.00    +0.000 A 
ATOM     33  O   UNL     1       5.953   4.785  19.671  0.00  0.00    +0.000 OA
ATOM     34  N   UNL     1       4.841   2.905  19.110  0.00  0.00    +0.000 N 
ATOM     35  H   UNL     1       5.672   2.382  19.332  0.00  0.00    +0.000 HD
ENDBRANCH  22  31
ENDBRANCH  21  25
ENDBRANCH  20  21
ENDBRANCH   1  20
TORSDOF 7
ENDMDL
MODEL 4
REMARK VINA RESULT:      -8.9      0.289      3.849
REMARK  Name = 
REMARK  7 active torsions:
REMARK  status: ('A' for Active; 'I' for Inactive)
REMARK    1  A    between atoms: N_5  and  C_6
REMARK    2  A    between atoms: C_9  and  C_10
REMARK    3  A    between atoms: C_10  and  O_11
REMARK    4  A    between atoms: O_11  and  C_12
REMARK    5  A    between atoms: C_12  and  C_13
REMARK    6  A    between atoms: C_12  and  C_19
REMARK    7  A    between atoms: C_12  and  C_25
REMARK                            x       y       z     vdW  Elec       q    Type
REMARK                         _______ _______ _______ _____ _____    ______ ____
ROOT
ATOM      1  C   UNL     1      -0.134  10.772  18.986  0.00  0.00    +0.000 C 
ENDROOT
BRANCH   1   2
ATOM      2  C   UNL     1      -0.172  10.292  20.477  0.00  0.00    +0.000 A 
ATOM      3  C   UNL     1      -0.310   8.938  20.825  0.00  0.00    +0.000 A 
ATOM      4  C   UNL     1      -0.510   8.551  22.158  0.00  0.00    +0.000 A 
ATOM      5  C   UNL     1      -0.590   9.503  23.173  0.00  0.00    +0.000 A 
ATOM      6  C   UNL     1      -0.454  10.847  22.865  0.00  0.00    +0.000 A 
ATOM      7  C   UNL     1      -0.249  11.231  21.539  0.00  0.00    +0.000 A 
ENDBRANCH   1   2
BRANCH   1   8
ATOM      8  C   UNL     1       0.463  12.208  18.800  0.00  0.00    +0.000 A 
ATOM      9  C   UNL     1      -0.364  13.355  18.789  0.00  0.00    +0.000 A 
ATOM     10  C   UNL     1       0.160  14.646  18.655  0.00  0.00    +0.000 A 
ATOM     11  C   UNL     1       1.531  14.824  18.522  0.00  0.00    +0.000 A 
ATOM     12  C   UNL     1       2.372  13.714  18.513  0.00  0.00    +0.000 A 
ATOM     13  C   UNL     1       1.847  12.416  18.651  0.00  0.00    +0.000 A 
ENDBRANCH   1   8
BRANCH   1  14
ATOM     14  C   UNL     1      -1.508  10.693  18.244  0.00  0.00    +0.000 A 
ATOM     15  C   UNL     1      -1.658  10.008  17.021  0.00  0.00    +0.000 A 
ATOM     16  C   UNL     1      -2.808  10.165  16.240  0.00  0.00    +0.000 A 
ATOM     17  C   UNL     1      -3.864  10.943  16.702  0.00  0.00    +0.000 A 
ATOM     18  C   UNL     1      -3.791  11.524  17.964  0.00  0.00    +0.000 A 
ATOM     19  C   UNL     1      -2.635  11.382  18.737  0.00  0.00    +0.000 A 
ENDBRANCH   1  14
BRANCH   1  20
ATOM     20  O   UNL     1       0.815   9.885  18.309  0.00  0.00    +0.000 OA
BRANCH  20  21
ATOM     21  C   UNL     1       1.702   9.123  19.124  0.00  0.00    +0.000 C 
BRANCH  21  25
ATOM     22  C   UNL     1       3.763   6.400  19.099  0.00  0.00    +0.000 C 
ATOM     23  C   UNL     1       3.965   6.996  17.751  0.00  0.00    +0.000 C 
ATOM     24  C   UNL     1       2.919   7.745  17.416  0.00  0.00    +0.000 C 
ATOM     25  C   UNL     1       1.923   7.740  18.523  0.00  0.00    +0.000 C 
ATOM     26  O   UNL     1       2.489   6.898  19.553  0.00  0.00    +0.000 OA
BRANCH  22  31
ATOM     27  O   UNL     1       3.788   0.987  18.466  0.00  0.00    +0.000 OA
ATOM     28  C   UNL     1       3.765   2.194  18.665  0.00  0.00    +0.000 A 
ATOM     29  C   UNL     1       2.526   2.964  18.489  0.00  0.00    +0.000 A 
ATOM     30  C   UNL     1       2.562   4.286  18.655  0.00  0.00    +0.000 A 
ATOM     31  N   UNL     1       3.727   4.951  18.998  0.00  0.00    +0.000 N 
ATOM     32  C   UNL     1       4.921   4.273  19.191  0.00  0.00    +0.000 A 
ATOM     33  O   UNL     1       5.989   4.818  19.454  0.00  0.00    +0.000 OA
ATOM     34  N   UNL     1       4.859   2.911  19.048  0.00  0.00    +0.000 N 
ATOM     35  H   UNL     1       5.725   2.408  19.158  0.00  0.00    +0.000 HD
ENDBRANCH  22  31
ENDBRANCH  21  25
ENDBRANCH  20  21
ENDBRANCH   1  20
TORSDOF 7
ENDMDL
MODEL 5
REMARK VINA RESULT:      -8.8      0.292      3.807
REMARK  Name = 
REMARK  7 active torsions:
REMARK  status: ('A' for Active; 'I' for Inactive)
REMARK    1  A    between atoms: N_5  and  C_6
REMARK    2  A    between atoms: C_9  and  C_10
REMARK    3  A    between atoms: C_10  and  O_11
REMARK    4  A    between atoms: O_11  and  C_12
REMARK    5  A    between atoms: C_12  and  C_13
REMARK    6  A    between atoms: C_12  and  C_19
REMARK    7  A    between atoms: C_12  and  C_25
REMARK                            x       y       z     vdW  Elec       q    Type
REMARK                         _______ _______ _______ _____ _____    ______ ____
ROOT
ATOM      1  C   UNL     1      -0.282  10.727  18.772  0.00  0.00    +0.000 C 
ENDROOT
BRANCH   1   2
ATOM      2  C   UNL     1      -1.695  10.689  18.095  0.00  0.00    +0.000 A 
ATOM      3  C   UNL     1      -1.914  10.073  16.852  0.00  0.00    +0.000 A 
ATOM      4  C   UNL     1      -3.144  10.198  16.190  0.00  0.00    +0.000 A 
ATOM      5  C   UNL     1      -4.179  10.948  16.744  0.00  0.00    +0.000 A 
ATOM      6  C   UNL     1      -3.998  11.565  17.971  0.00  0.00    +0.000 A 
ATOM      7  C   UNL     1      -2.776  11.436  18.632  0.00  0.00    +0.000 A 
ENDBRANCH   1   2
BRANCH   1   8
ATOM      8  C   UNL     1      -0.292  10.294  20.277  0.00  0.00    +0.000 A 
ATOM      9  C   UNL     1      -0.263  11.250  21.319  0.00  0.00    +0.000 A 
ATOM     10  C   UNL     1      -0.303  10.878  22.668  0.00  0.00    +0.000 A 
ATOM     11  C   UNL     1      -0.367   9.533  23.012  0.00  0.00    +0.000 A 
ATOM     12  C   UNL     1      -0.380   8.566  22.009  0.00  0.00    +0.000 A 
ATOM     13  C   UNL     1      -0.344   8.939  20.654  0.00  0.00    +0.000 A 
ENDBRANCH   1   8
BRANCH   1  14
ATOM     14  C   UNL     1       0.464  12.095  18.641  0.00  0.00    +0.000 A 
ATOM     15  C   UNL     1       1.871  12.183  18.660  0.00  0.00    +0.000 A 
ATOM     16  C   UNL     1       2.516  13.415  18.809  0.00  0.00    +0.000 A 
ATOM     17  C   UNL     1       1.773  14.590  18.861  0.00  0.00    +0.000 A 
ATOM     18  C   UNL     1       0.391  14.538  18.714  0.00  0.00    +0.000 A 
ATOM     19  C   UNL     1      -0.256  13.306  18.584  0.00  0.00    +0.000 A 
ENDBRANCH   1  14
BRANCH   1  20
ATOM     20  O   UNL     1       0.509   9.696  18.095  0.00  0.00    +0.000 OA
BRANCH  20  21
ATOM     21  C   UNL     1       1.586   9.110  18.821  0.00  0.00    +0.000 C 
BRANCH  21  25
ATOM     22  C   UNL     1       3.666   6.417  19.118  0.00  0.00    +0.000 C 
ATOM     23  C   UNL     1       4.068   7.019  17.819  0.00  0.00    +0.000 C 
ATOM     24  C   UNL     1       3.075   7.754  17.325  0.00  0.00    +0.000 C 
ATOM     25  C   UNL     1       1.918   7.731  18.262  0.00  0.00    +0.000 C 
ATOM     26  O   UNL     1       2.329   6.895  19.368  0.00  0.00    +0.000 OA
BRANCH  22  31
ATOM     27  O   UNL     1       3.857   1.008  18.483  0.00  0.00    +0.000 OA
ATOM     28  C   UNL     1       3.791   2.214  18.681  0.00  0.00    +0.000 A 
ATOM     29  C   UNL     1       2.559   2.960  18.390  0.00  0.00    +0.000 A 
ATOM     30  C   UNL     1       2.554   4.282  18.560  0.00  0.00    +0.000 A 
ATOM     31  N   UNL     1       3.668   4.968  19.013  0.00  0.00    +0.000 N 
ATOM     32  C   UNL     1       4.852   4.313  19.316  0.00  0.00    +0.000 A 
ATOM     33  O   UNL     1       5.879   4.878  19.680  0.00  0.00    +0.000 OA
ATOM     34  N   UNL     1       4.830   2.950  19.166  0.00  0.00    +0.000 N 
ATOM     35  H   UNL     1       5.691   2.464  19.356  0.00  0.00    +0.000 HD
ENDBRANCH  22  31
ENDBRANCH  21  25
ENDBRANCH  20  21
ENDBRANCH   1  20
TORSDOF 7
ENDMDL
MODEL 6
REMARK VINA RESULT:      -8.8      1.813      4.477
REMARK  Name = 
REMARK  7 active torsions:
REMARK  status: ('A' for Active; 'I' for Inactive)
REMARK    1  A    between atoms: N_5  and  C_6
REMARK    2  A    between atoms: C_9  and  C_10
REMARK    3  A    between atoms: C_10  and  O_11
REMARK    4  A    between atoms: O_11  and  C_12
REMARK    5  A    between atoms: C_12  and  C_13
REMARK    6  A    between atoms: C_12  and  C_19
REMARK    7  A    between atoms: C_12  and  C_25
REMARK                            x       y       z     vdW  Elec       q    Type
REMARK                         _______ _______ _______ _____ _____    ______ ____
ROOT
ATOM      1  C   UNL     1      -0.319  10.838  19.067  0.00  0.00    +0.000 C 
ENDROOT
BRANCH   1   2
ATOM      2  C   UNL     1      -1.659  10.903  18.258  0.00  0.00    +0.000 A 
ATOM      3  C   UNL     1      -2.766  11.646  18.701  0.00  0.00    +0.000 A 
ATOM      4  C   UNL     1      -4.005  11.554  18.050  0.00  0.00    +0.000 A 
ATOM      5  C   UNL     1      -4.174  10.712  16.953  0.00  0.00    +0.000 A 
ATOM      6  C   UNL     1      -3.101   9.969  16.487  0.00  0.00    +0.000 A 
ATOM      7  C   UNL     1      -1.867  10.065  17.132  0.00  0.00    +0.000 A 
ENDBRANCH   1   2
BRANCH   1   8
ATOM      8  C   UNL     1      -0.514  10.526  20.590  0.00  0.00    +0.000 A 
ATOM      9  C   UNL     1      -0.273   9.236  21.115  0.00  0.00    +0.000 A 
ATOM     10  C   UNL     1      -0.414   8.952  22.478  0.00  0.00    +0.000 A 
ATOM     11  C   UNL     1      -0.806   9.954  23.356  0.00  0.00    +0.000 A 
ATOM     12  C   UNL     1      -1.067  11.233  22.868  0.00  0.00    +0.000 A 
ATOM     13  C   UNL     1      -0.923  11.520  21.498  0.00  0.00    +0.000 A 
ENDBRANCH   1   8
BRANCH   1  14
ATOM     14  C   UNL     1       0.590  12.101  18.920  0.00  0.00    +0.000 A 
ATOM     15  C   UNL     1       1.856  12.187  19.535  0.00  0.00    +0.000 A 
ATOM     16  C   UNL     1       2.538  13.405  19.619  0.00  0.00    +0.000 A 
ATOM     17  C   UNL     1       2.009  14.544  19.021  0.00  0.00    +0.000 A 
ATOM     18  C   UNL     1       0.824  14.455  18.297  0.00  0.00    +0.000 A 
ATOM     19  C   UNL     1       0.133  13.242  18.229  0.00  0.00    +0.000 A 
ENDBRANCH   1  14
BRANCH   1  20
ATOM     20  O   UNL     1       0.405   9.677  18.542  0.00  0.00    +0.000 OA
BRANCH  20  21
ATOM     21  C   UNL     1       1.670   9.912  17.929  0.00  0.00    +0.000 C 
BRANCH  21  25
ATOM     22  C   UNL     1       3.306   6.980  17.299  0.00  0.00    +0.000 C 
ATOM     23  C   UNL     1       2.427   6.642  18.450  0.00  0.00    +0.000 C 
ATOM     24  C   UNL     1       2.098   7.744  19.118  0.00  0.00    +0.000 C 
ATOM     25  C   UNL     1       2.710   8.932  18.461  0.00  0.00    +0.000 C 
ATOM     26  O   UNL     1       3.447   8.415  17.330  0.00  0.00    +0.000 OA
BRANCH  22  31
ATOM     27  O   UNL     1       8.076   4.381  17.740  0.00  0.00    +0.000 OA
ATOM     28  C   UNL     1       7.032   5.014  17.663  0.00  0.00    +0.000 A 
ATOM     29  C   UNL     1       6.114   5.099  18.809  0.00  0.00    +0.000 A 
ATOM     30  C   UNL     1       4.959   5.745  18.660  0.00  0.00    +0.000 A 
ATOM     31  N   UNL     1       4.603   6.347  17.465  0.00  0.00    +0.000 N 
ATOM     32  C   UNL     1       5.436   6.311  16.356  0.00  0.00    +0.000 A 
ATOM     33  O   UNL     1       5.151   6.791  15.263  0.00  0.00    +0.000 OA
ATOM     34  N   UNL     1       6.635   5.670  16.537  0.00  0.00    +0.000 N 
ATOM     35  H   UNL     1       7.238   5.612  15.732  0.00  0.00    +0.000 HD
ENDBRANCH  22  31
ENDBRANCH  21  25
ENDBRANCH  20  21
ENDBRANCH   1  20
TORSDOF 7
ENDMDL
MODEL 7
REMARK VINA RESULT:      -8.7      3.308      9.101
REMARK  Name = 
REMARK  7 active torsions:
REMARK  status: ('A' for Active; 'I' for Inactive)
REMARK    1  A    between atoms: N_5  and  C_6
REMARK    2  A    between atoms: C_9  and  C_10
REMARK    3  A    between atoms: C_10  and  O_11
REMARK    4  A    between atoms: O_11  and  C_12
REMARK    5  A    between atoms: C_12  and  C_13
REMARK    6  A    between atoms: C_12  and  C_19
REMARK    7  A    between atoms: C_12  and  C_25
REMARK                            x       y       z     vdW  Elec       q    Type
REMARK                         _______ _______ _______ _____ _____    ______ ____
ROOT
ATOM      1  C   UNL     1       4.835   5.405  16.913  0.00  0.00    +0.000 C 
ENDROOT
BRANCH   1   2
ATOM      2  C   UNL     1       3.931   4.328  17.605  0.00  0.00    +0.000 A 
ATOM      3  C   UNL     1       4.445   3.107  18.073  0.00  0.00    +0.000 A 
ATOM      4  C   UNL     1       3.593   2.093  18.534  0.00  0.00    +0.000 A 
ATOM      5  C   UNL     1       2.210   2.266  18.527  0.00  0.00    +0.000 A 
ATOM      6  C   UNL     1       1.670   3.460  18.077  0.00  0.00    +0.000 A 
ATOM      7  C   UNL     1       2.519   4.470  17.623  0.00  0.00    +0.000 A 
ENDBRANCH   1   2
BRANCH   1   8
ATOM      8  C   UNL     1       5.436   4.940  15.544  0.00  0.00    +0.000 A 
ATOM      9  C   UNL     1       6.789   5.183  15.212  0.00  0.00    +0.000 A 
ATOM     10  C   UNL     1       7.347   4.746  14.006  0.00  0.00    +0.000 A 
ATOM     11  C   UNL     1       6.562   4.054  13.092  0.00  0.00    +0.000 A 
ATOM     12  C   UNL     1       5.221   3.812  13.382  0.00  0.00    +0.000 A 
ATOM     13  C   UNL     1       4.660   4.249  14.595  0.00  0.00    +0.000 A 
ENDBRANCH   1   8
BRANCH   1  14
ATOM     14  C   UNL     1       5.987   5.959  17.813  0.00  0.00    +0.000 A 
ATOM     15  C   UNL     1       6.749   7.086  17.441  0.00  0.00    +0.000 A 
ATOM     16  C   UNL     1       7.934   7.411  18.109  0.00  0.00    +0.000 A 
ATOM     17  C   UNL     1       8.339   6.666  19.212  0.00  0.00    +0.000 A 
ATOM     18  C   UNL     1       7.536   5.630  19.676  0.00  0.00    +0.000 A 
ATOM     19  C   UNL     1       6.362   5.293  18.997  0.00  0.00    +0.000 A 
ENDBRANCH   1  14
BRANCH   1  20
ATOM     20  O   UNL     1       3.938   6.511  16.567  0.00  0.00    +0.000 OA
BRANCH  20  21
ATOM     21  C   UNL     1       3.804   7.571  17.511  0.00  0.00    +0.000 C 
BRANCH  21  25
ATOM     22  C   UNL     1       1.585   9.942  18.569  0.00  0.00    +0.000 C 
ATOM     23  C   UNL     1       1.575   8.946  19.673  0.00  0.00    +0.000 C 
ATOM     24  C   UNL     1       1.985   7.761  19.229  0.00  0.00    +0.000 C 
ATOM     25  C   UNL     1       2.332   7.859  17.784  0.00  0.00    +0.000 C 
ATOM     26  O   UNL     1       2.077   9.232  17.414  0.00  0.00    +0.000 OA
BRANCH  22  31
ATOM     27  O   UNL     1      -3.536  11.698  17.943  0.00  0.00    +0.000 OA
ATOM     28  C   UNL     1      -2.373  11.329  18.030  0.00  0.00    +0.000 A 
ATOM     29  C   UNL     1      -1.942  10.049  17.448  0.00  0.00    +0.000 A 
ATOM     30  C   UNL     1      -0.681   9.657  17.622  0.00  0.00    +0.000 A 
ATOM     31  N   UNL     1       0.236  10.422  18.324  0.00  0.00    +0.000 N 
ATOM     32  C   UNL     1      -0.112  11.644  18.881  0.00  0.00    +0.000 A 
ATOM     33  O   UNL     1       0.649  12.340  19.547  0.00  0.00    +0.000 OA
ATOM     34  N   UNL     1      -1.405  12.047  18.665  0.00  0.00    +0.000 N 
ATOM     35  H   UNL     1      -1.679  12.919  19.088  0.00  0.00    +0.000 HD
ENDBRANCH  22  31
ENDBRANCH  21  25
ENDBRANCH  20  21
ENDBRANCH   1  20
TORSDOF 7
ENDMDL
MODEL 8
REMARK VINA RESULT:      -8.6      1.449      3.931
REMARK  Name = 
REMARK  7 active torsions:
REMARK  status: ('A' for Active; 'I' for Inactive)
REMARK    1  A    between atoms: N_5  and  C_6
REMARK    2  A    between atoms: C_9  and  C_10
REMARK    3  A    between atoms: C_10  and  O_11
REMARK    4  A    between atoms: O_11  and  C_12
REMARK    5  A    between atoms: C_12  and  C_13
REMARK    6  A    between atoms: C_12  and  C_19
REMARK    7  A    between atoms: C_12  and  C_25
REMARK                            x       y       z     vdW  Elec       q    Type
REMARK                         _______ _______ _______ _____ _____    ______ ____
ROOT
ATOM      1  C   UNL     1      -0.550  11.342  19.935  0.00  0.00    +0.000 C 
ENDROOT
BRANCH   1   2
ATOM      2  C   UNL     1      -1.507  11.156  18.709  0.00  0.00    +0.000 A 
ATOM      3  C   UNL     1      -2.737  11.827  18.610  0.00  0.00    +0.000 A 
ATOM      4  C   UNL     1      -3.650  11.518  17.591  0.00  0.00    +0.000 A 
ATOM      5  C   UNL     1      -3.364  10.527  16.655  0.00  0.00    +0.000 A 
ATOM      6  C   UNL     1      -2.157   9.849  16.720  0.00  0.00    +0.000 A 
ATOM      7  C   UNL     1      -1.247  10.161  17.732  0.00  0.00    +0.000 A 
ENDBRANCH   1   2
BRANCH   1   8
ATOM      8  C   UNL     1      -1.244  11.974  21.189  0.00  0.00    +0.000 A 
ATOM      9  C   UNL     1      -1.695  13.314  21.186  0.00  0.00    +0.000 A 
ATOM     10  C   UNL     1      -2.346  13.881  22.288  0.00  0.00    +0.000 A 
ATOM     11  C   UNL     1      -2.559  13.120  23.430  0.00  0.00    +0.000 A 
ATOM     12  C   UNL     1      -2.113  11.801  23.472  0.00  0.00    +0.000 A 
ATOM     13  C   UNL     1      -1.462  11.229  22.364  0.00  0.00    +0.000 A 
ENDBRANCH   1   8
BRANCH   1  14
ATOM     14  C   UNL     1       0.757  12.141  19.623  0.00  0.00    +0.000 A 
ATOM     15  C   UNL     1       1.592  12.638  20.645  0.00  0.00    +0.000 A 
ATOM     16  C   UNL     1       2.600  13.566  20.368  0.00  0.00    +0.000 A 
ATOM     17  C   UNL     1       2.850  13.955  19.056  0.00  0.00    +0.000 A 
ATOM     18  C   UNL     1       2.125  13.379  18.017  0.00  0.00    +0.000 A 
ATOM     19  C   UNL     1       1.104  12.466  18.296  0.00  0.00    +0.000 A 
ENDBRANCH   1  14
BRANCH   1  20
ATOM     20  O   UNL     1      -0.181   9.989  20.359  0.00  0.00    +0.000 OA
BRANCH  20  21
ATOM     21  C   UNL     1       1.173   9.585  20.169  0.00  0.00    +0.000 C 
BRANCH  21  25
ATOM     22  C   UNL     1       3.186   7.024  19.143  0.00  0.00    +0.000 C 
ATOM     23  C   UNL     1       2.995   7.827  17.906  0.00  0.00    +0.000 C 
ATOM     24  C   UNL     1       1.885   8.555  17.995  0.00  0.00    +0.000 C 
ATOM     25  C   UNL     1       1.238   8.323  19.316  0.00  0.00    +0.000 C 
ATOM     26  O   UNL     1       2.081   7.371  20.002  0.00  0.00    +0.000 OA
BRANCH  22  31
ATOM     27  O   UNL     1       3.241   1.761  17.730  0.00  0.00    +0.000 OA
ATOM     28  C   UNL     1       3.200   2.927  18.098  0.00  0.00    +0.000 A 
ATOM     29  C   UNL     1       2.032   3.770  17.808  0.00  0.00    +0.000 A 
ATOM     30  C   UNL     1       2.058   5.051  18.172  0.00  0.00    +0.000 A 
ATOM     31  N   UNL     1       3.145   5.607  18.823  0.00  0.00    +0.000 N 
ATOM     32  C   UNL     1       4.268   4.855  19.136  0.00  0.00    +0.000 A 
ATOM     33  O   UNL     1       5.274   5.309  19.673  0.00  0.00    +0.000 OA
ATOM     34  N   UNL     1       4.212   3.531  18.783  0.00  0.00    +0.000 N 
ATOM     35  H   UNL     1       5.031   2.980  18.978  0.00  0.00    +0.000 HD
ENDBRANCH  22  31
ENDBRANCH  21  25
ENDBRANCH  20  21
ENDBRANCH   1  20
TORSDOF 7
ENDMDL
MODEL 9
REMARK VINA RESULT:      -8.5      0.273      4.046
REMARK  Name = 
REMARK  7 active torsions:
REMARK  status: ('A' for Active; 'I' for Inactive)
REMARK    1  A    between atoms: N_5  and  C_6
REMARK    2  A    between atoms: C_9  and  C_10
REMARK    3  A    between atoms: C_10  and  O_11
REMARK    4  A    between atoms: O_11  and  C_12
REMARK    5  A    between atoms: C_12  and  C_13
REMARK    6  A    between atoms: C_12  and  C_19
REMARK    7  A    between atoms: C_12  and  C_25
REMARK                            x       y       z     vdW  Elec       q    Type
REMARK                         _______ _______ _______ _____ _____    ______ ____
ROOT
ATOM      1  C   UNL     1      -0.174  10.847  18.943  0.00  0.00    +0.000 C 
ENDROOT
BRANCH   1   2
ATOM      2  C   UNL     1      -0.346  10.341  20.416  0.00  0.00    +0.000 A 
ATOM      3  C   UNL     1      -0.163  11.185  21.524  0.00  0.00    +0.000 A 
ATOM      4  C   UNL     1      -0.156  10.673  22.830  0.00  0.00    +0.000 A 
ATOM      5  C   UNL     1      -0.319   9.308  23.061  0.00  0.00    +0.000 A 
ATOM      6  C   UNL     1      -0.507   8.448  21.990  0.00  0.00    +0.000 A 
ATOM      7  C   UNL     1      -0.518   8.960  20.692  0.00  0.00    +0.000 A 
ENDBRANCH   1   2
BRANCH   1   8
ATOM      8  C   UNL     1       0.558  12.227  18.830  0.00  0.00    +0.000 A 
ATOM      9  C   UNL     1       1.945  12.307  18.572  0.00  0.00    +0.000 A 
ATOM     10  C   UNL     1       2.606  13.533  18.438  0.00  0.00    +0.000 A 
ATOM     11  C   UNL     1       1.893  14.719  18.564  0.00  0.00    +0.000 A 
ATOM     12  C   UNL     1       0.527  14.675  18.834  0.00  0.00    +0.000 A 
ATOM     13  C   UNL     1      -0.138  13.443  18.967  0.00  0.00    +0.000 A 
ENDBRANCH   1   8
BRANCH   1  14
ATOM     14  C   UNL     1      -1.501  10.907  18.119  0.00  0.00    +0.000 A 
ATOM     15  C   UNL     1      -2.605  11.680  18.534  0.00  0.00    +0.000 A 
ATOM     16  C   UNL     1      -3.863  11.521  17.944  0.00  0.00    +0.000 A 
ATOM     17  C   UNL     1      -4.025  10.648  16.873  0.00  0.00    +0.000 A 
ATOM     18  C   UNL     1      -2.922   9.972  16.362  0.00  0.00    +0.000 A 
ATOM     19  C   UNL     1      -1.669  10.116  16.964  0.00  0.00    +0.000 A 
ENDBRANCH   1  14
BRANCH   1  20
ATOM     20  O   UNL     1       0.733   9.893  18.300  0.00  0.00    +0.000 OA
BRANCH  20  21
ATOM     21  C   UNL     1       1.601   9.139  19.142  0.00  0.00    +0.000 C 
BRANCH  21  25
ATOM     22  C   UNL     1       3.728   6.467  19.125  0.00  0.00    +0.000 C 
ATOM     23  C   UNL     1       3.913   7.062  17.774  0.00  0.00    +0.000 C 
ATOM     24  C   UNL     1       2.848   7.783  17.438  0.00  0.00    +0.000 C 
ATOM     25  C   UNL     1       1.854   7.758  18.547  0.00  0.00    +0.000 C 
ATOM     26  O   UNL     1       2.442   6.935  19.579  0.00  0.00    +0.000 OA
BRANCH  22  31
ATOM     27  O   UNL     1       3.907   1.053  18.528  0.00  0.00    +0.000 OA
ATOM     28  C   UNL     1       3.845   2.260  18.718  0.00  0.00    +0.000 A 
ATOM     29  C   UNL     1       2.610   3.005  18.435  0.00  0.00    +0.000 A 
ATOM     30  C   UNL     1       2.608   4.328  18.595  0.00  0.00    +0.000 A 
ATOM     31  N   UNL     1       3.727   5.017  19.030  0.00  0.00    +0.000 N 
ATOM     32  C   UNL     1       4.914   4.363  19.325  0.00  0.00    +0.000 A 
ATOM     33  O   UNL     1       5.946   4.930  19.672  0.00  0.00    +0.000 OA
ATOM     34  N   UNL     1       4.890   2.999  19.185  0.00  0.00    +0.000 N 
ATOM     35  H   UNL     1       5.752   2.513  19.369  0.00  0.00    +0.000 HD
ENDBRANCH  22  31
ENDBRANCH  21  25
ENDBRANCH  20  21
ENDBRANCH   1  20
TORSDOF 7
ENDMDL
