MODEL 1
REMARK VINA RESULT:      -8.7      0.000      0.000
REMARK  Name = 
REMARK  5 active torsions:
REMARK  status: ('A' for Active; 'I' for Inactive)
REMARK    1  A    between atoms: C_2  and  C_19
REMARK    2  A    between atoms: N_3  and  C_4
REMARK    3  A    between atoms: C_9  and  C_10
REMARK    4  A    between atoms: N_12  and  C_13
REMARK    5  A    between atoms: C_13  and  C_14
REMARK                            x       y       z     vdW  Elec       q    Type
REMARK                         _______ _______ _______ _____ _____    ______ ____
ROOT
ATOM      1  C   UNL     1       2.907   4.222  18.988  0.00  0.00    +0.000 A 
ATOM      2  C   UNL     1       2.760   2.842  19.213  0.00  0.00    +0.000 A 
ATOM      3  C   UNL     1       2.081   2.371  20.336  0.00  0.00    +0.000 A 
ATOM      4  C   UNL     1       1.520   3.273  21.232  0.00  0.00    +0.000 A 
ATOM      5  C   UNL     1       1.630   4.643  20.995  0.00  0.00    +0.000 A 
ATOM      6  C   UNL     1       2.318   5.147  19.872  0.00  0.00    +0.000 A 
ENDROOT
BRANCH   1   9
ATOM      7  O   UNL     1       5.665   4.096  18.899  0.00  0.00    +0.000 OA
ATOM      8  C   UNL     1       5.044   4.393  17.881  0.00  0.00    +0.000 C 
ATOM      9  N   UNL     1       3.668   4.597  17.851  0.00  0.00    +0.000 N 
ATOM     10  H   UNL     1       3.257   4.306  16.967  0.00  0.00    +0.000 HD
BRANCH   8  11
ATOM     11  C   UNL     1       5.801   4.591  16.609  0.00  0.00    +0.000 A 
ATOM     12  C   UNL     1       5.393   3.782  15.529  0.00  0.00    +0.000 A 
ATOM     13  C   UNL     1       6.008   3.885  14.280  0.00  0.00    +0.000 A 
ATOM     14  C   UNL     1       7.036   4.803  14.096  0.00  0.00    +0.000 A 
ATOM     15 CL   UNL     1       7.771   4.964  12.550  0.00  0.00    +0.000 Cl
ATOM     16  C   UNL     1       7.459   5.607  15.150  0.00  0.00    +0.000 A 
ATOM     17  C   UNL     1       6.848   5.505  16.407  0.00  0.00    +0.000 A 
ATOM     18 CL   UNL     1       7.433   6.582  17.626  0.00  0.00    +0.000 Cl
ENDBRANCH   8  11
ENDBRANCH   1   9
BRANCH   6  19
ATOM     19  C   UNL     1       2.238   6.636  19.685  0.00  0.00    +0.000 C 
ATOM     20  O   UNL     1       2.671   7.150  18.654  0.00  0.00    +0.000 OA
ATOM     21  N   UNL     1       1.733   7.397  20.710  0.00  0.00    +0.000 N 
ATOM     22  H   UNL     1       1.221   6.933  21.447  0.00  0.00    +0.000 HD
BRANCH  21  23
ATOM     23  C   UNL     1       1.582   8.838  20.599  0.00  0.00    +0.000 C 
BRANCH  23  24
ATOM     24  C   UNL     1       1.020   9.466  21.876  0.00  0.00    +0.000 C 
ATOM     25  C   UNL     1      -0.331   8.921  22.314  0.00  0.00    +0.000 C 
ATOM     26  C   UNL     1      -0.857  10.060  23.152  0.00  0.00    +0.000 C 
ATOM     27  C   UNL     1      -0.362  11.272  22.393  0.00  0.00    +0.000 C 
ATOM     28  O   UNL     1       0.836  10.889  21.705  0.00  0.00    +0.000 OA
ENDBRANCH  23  24
ENDBRANCH  21  23
ENDBRANCH   6  19
TORSDOF 5
ENDMDL
MODEL 2
REMARK VINA RESULT:      -8.6      3.009      7.017
REMARK  Name = 
REMARK  5 active torsions:
REMARK  status: ('A' for Active; 'I' for Inactive)
REMARK    1  A    between atoms: C_2  and  C_19
REMARK    2  A    between atoms: N_3  and  C_4
REMARK    3  A    between atoms: C_9  and  C_10
REMARK    4  A    between atoms: N_12  and  C_13
REMARK    5  A    between atoms: C_13  and  C_14
REMARK                            x       y       z     vdW  Elec       q    Type
REMARK                         _______ _______ _______ _____ _____    ______ ____
ROOT
ATOM      1  C   UNL     1       5.024   6.008  16.968  0.00  0.00    +0.000 A 
ATOM      2  C   UNL     1       5.128   6.356  15.610  0.00  0.00    +0.000 A 
ATOM      3  C   UNL     1       5.934   5.618  14.744  0.00  0.00    +0.000 A 
ATOM      4  C   UNL     1       6.622   4.508  15.219  0.00  0.00    +0.000 A 
ATOM      5  C   UNL     1       6.493   4.134  16.557  0.00  0.00    +0.000 A 
ATOM      6  C   UNL     1       5.692   4.867  17.456  0.00  0.00    +0.000 A 
ENDROOT
BRANCH   1   9
ATOM      7  O   UNL     1       2.382   5.486  17.579  0.00  0.00    +0.000 OA
ATOM      8  C   UNL     1       2.942   6.444  18.106  0.00  0.00    +0.000 C 
ATOM      9  N   UNL     1       4.229   6.859  17.777  0.00  0.00    +0.000 N 
ATOM     10  H   UNL     1       4.722   7.244  18.580  0.00  0.00    +0.000 HD
BRANCH   8  11
ATOM     11  C   UNL     1       2.196   7.242  19.125  0.00  0.00    +0.000 A 
ATOM     12  C   UNL     1       1.918   6.572  20.333  0.00  0.00    +0.000 A 
ATOM     13  C   UNL     1       1.243   7.213  21.374  0.00  0.00    +0.000 A 
ATOM     14  C   UNL     1       0.844   8.536  21.218  0.00  0.00    +0.000 A 
ATOM     15 CL   UNL     1       0.051   9.346  22.510  0.00  0.00    +0.000 Cl
ATOM     16  C   UNL     1       1.103   9.215  20.031  0.00  0.00    +0.000 A 
ATOM     17  C   UNL     1       1.777   8.574  18.983  0.00  0.00    +0.000 A 
ATOM     18 CL   UNL     1       2.074   9.531  17.573  0.00  0.00    +0.000 Cl
ENDBRANCH   8  11
ENDBRANCH   1   9
BRANCH   6  19
ATOM     19  C   UNL     1       5.550   4.267  18.826  0.00  0.00    +0.000 C 
ATOM     20  O   UNL     1       6.023   4.846  19.804  0.00  0.00    +0.000 OA
ATOM     21  N   UNL     1       4.943   3.041  18.942  0.00  0.00    +0.000 N 
ATOM     22  H   UNL     1       4.408   2.693  18.159  0.00  0.00    +0.000 HD
BRANCH  21  23
ATOM     23  C   UNL     1       4.727   2.405  20.231  0.00  0.00    +0.000 C 
BRANCH  23  24
ATOM     24  C   UNL     1       3.247   2.142  20.512  0.00  0.00    +0.000 C 
ATOM     25  C   UNL     1       2.283   2.876  19.593  0.00  0.00    +0.000 C 
ATOM     26  C   UNL     1       1.031   2.909  20.434  0.00  0.00    +0.000 C 
ATOM     27  C   UNL     1       1.586   3.118  21.827  0.00  0.00    +0.000 C 
ATOM     28  O   UNL     1       2.903   2.551  21.855  0.00  0.00    +0.000 OA
ENDBRANCH  23  24
ENDBRANCH  21  23
ENDBRANCH   6  19
TORSDOF 5
ENDMDL
MODEL 3
REMARK VINA RESULT:      -8.5      1.008      1.276
REMARK  Name = 
REMARK  5 active torsions:
REMARK  status: ('A' for Active; 'I' for Inactive)
REMARK    1  A    between atoms: C_2  and  C_19
REMARK    2  A    between atoms: N_3  and  C_4
REMARK    3  A    between atoms: C_9  and  C_10
REMARK    4  A    between atoms: N_12  and  C_13
REMARK    5  A    between atoms: C_13  and  C_14
REMARK                            x       y       z     vdW  Elec       q    Type
REMARK                         _______ _______ _______ _____ _____    ______ ____
ROOT
ATOM      1  C   UNL     1       2.682   4.128  18.803  0.00  0.00    +0.000 A 
ATOM      2  C   UNL     1       2.378   2.756  18.848  0.00  0.00    +0.000 A 
ATOM      3  C   UNL     1       1.624   2.227  19.894  0.00  0.00    +0.000 A 
ATOM      4  C   UNL     1       1.143   3.067  20.892  0.00  0.00    +0.000 A 
ATOM      5  C   UNL     1       1.409   4.435  20.832  0.00  0.00    +0.000 A 
ATOM      6  C   UNL     1       2.176   4.995  19.791  0.00  0.00    +0.000 A 
ENDROOT
BRANCH   1   9
ATOM      7  O   UNL     1       5.438   3.951  18.847  0.00  0.00    +0.000 OA
ATOM      8  C   UNL     1       4.876   4.321  17.819  0.00  0.00    +0.000 C 
ATOM      9  N   UNL     1       3.507   4.555  17.731  0.00  0.00    +0.000 N 
ATOM     10  H   UNL     1       3.139   4.325  16.810  0.00  0.00    +0.000 HD
BRANCH   8  11
ATOM     11  C   UNL     1       5.702   4.579  16.601  0.00  0.00    +0.000 A 
ATOM     12  C   UNL     1       5.295   3.898  15.437  0.00  0.00    +0.000 A 
ATOM     13  C   UNL     1       5.973   4.068  14.228  0.00  0.00    +0.000 A 
ATOM     14  C   UNL     1       7.064   4.928  14.170  0.00  0.00    +0.000 A 
ATOM     15 CL   UNL     1       7.877   5.176  12.676  0.00  0.00    +0.000 Cl
ATOM     16  C   UNL     1       7.487   5.607  15.309  0.00  0.00    +0.000 A 
ATOM     17  C   UNL     1       6.812   5.436  16.525  0.00  0.00    +0.000 A 
ATOM     18 CL   UNL     1       7.407   6.361  17.860  0.00  0.00    +0.000 Cl
ENDBRANCH   8  11
ENDBRANCH   1   9
BRANCH   6  19
ATOM     19  C   UNL     1       2.264   6.495  19.794  0.00  0.00    +0.000 C 
ATOM     20  O   UNL     1       2.923   7.074  18.929  0.00  0.00    +0.000 OA
ATOM     21  N   UNL     1       1.651   7.184  20.810  0.00  0.00    +0.000 N 
ATOM     22  H   UNL     1       0.973   6.698  21.381  0.00  0.00    +0.000 HD
BRANCH  21  23
ATOM     23  C   UNL     1       1.652   8.636  20.869  0.00  0.00    +0.000 C 
BRANCH  23  24
ATOM     24  C   UNL     1       0.365   9.244  20.311  0.00  0.00    +0.000 C 
ATOM     25  C   UNL     1       0.503   9.875  18.934  0.00  0.00    +0.000 C 
ATOM     26  C   UNL     1      -0.654  10.843  18.929  0.00  0.00    +0.000 C 
ATOM     27  C   UNL     1      -0.666  11.336  20.361  0.00  0.00    +0.000 C 
ATOM     28  O   UNL     1      -0.123  10.291  21.179  0.00  0.00    +0.000 OA
ENDBRANCH  23  24
ENDBRANCH  21  23
ENDBRANCH   6  19
TORSDOF 5
ENDMDL
MODEL 4
REMARK VINA RESULT:      -8.5      3.229      6.974
REMARK  Name = 
REMARK  5 active torsions:
REMARK  status: ('A' for Active; 'I' for Inactive)
REMARK    1  A    between atoms: C_2  and  C_19
REMARK    2  A    between atoms: N_3  and  C_4
REMARK    3  A    between atoms: C_9  and  C_10
REMARK    4  A    between atoms: N_12  and  C_13
REMARK    5  A    between atoms: C_13  and  C_14
REMARK                            x       y       z     vdW  Elec       q    Type
REMARK                         _______ _______ _______ _____ _____    ______ ____
ROOT
ATOM      1  C   UNL     1       5.036   6.046  16.756  0.00  0.00    +0.000 A 
ATOM      2  C   UNL     1       5.215   6.222  15.373  0.00  0.00    +0.000 A 
ATOM      3  C   UNL     1       6.005   5.338  14.638  0.00  0.00    +0.000 A 
ATOM      4  C   UNL     1       6.601   4.255  15.273  0.00  0.00    +0.000 A 
ATOM      5  C   UNL     1       6.396   4.053  16.638  0.00  0.00    +0.000 A 
ATOM      6  C   UNL     1       5.610   4.936  17.406  0.00  0.00    +0.000 A 
ENDROOT
BRANCH   1   9
ATOM      7  O   UNL     1       2.414   5.658  17.533  0.00  0.00    +0.000 OA
ATOM      8  C   UNL     1       2.990   6.693  17.859  0.00  0.00    +0.000 C 
ATOM      9  N   UNL     1       4.266   7.035  17.422  0.00  0.00    +0.000 N 
ATOM     10  H   UNL     1       4.785   7.557  18.125  0.00  0.00    +0.000 HD
BRANCH   8  11
ATOM     11  C   UNL     1       2.277   7.667  18.739  0.00  0.00    +0.000 A 
ATOM     12  C   UNL     1       1.944   8.897  18.137  0.00  0.00    +0.000 A 
ATOM     13  C   UNL     1       1.259   9.885  18.847  0.00  0.00    +0.000 A 
ATOM     14  C   UNL     1       0.894   9.650  20.168  0.00  0.00    +0.000 A 
ATOM     15 CL   UNL     1       0.014  10.844  21.036  0.00  0.00    +0.000 Cl
ATOM     16  C   UNL     1       1.218   8.444  20.785  0.00  0.00    +0.000 A 
ATOM     17  C   UNL     1       1.908   7.452  20.077  0.00  0.00    +0.000 A 
ATOM     18 CL   UNL     1       2.220   5.984  20.937  0.00  0.00    +0.000 Cl
ENDBRANCH   8  11
ENDBRANCH   1   9
BRANCH   6  19
ATOM     19  C   UNL     1       5.377   4.515  18.829  0.00  0.00    +0.000 C 
ATOM     20  O   UNL     1       5.543   5.321  19.745  0.00  0.00    +0.000 OA
ATOM     21  N   UNL     1       5.039   3.207  19.077  0.00  0.00    +0.000 N 
ATOM     22  H   UNL     1       4.730   2.636  18.304  0.00  0.00    +0.000 HD
BRANCH  21  23
ATOM     23  C   UNL     1       4.756   2.724  20.417  0.00  0.00    +0.000 C 
BRANCH  23  24
ATOM     24  C   UNL     1       3.327   2.196  20.558  0.00  0.00    +0.000 C 
ATOM     25  C   UNL     1       2.329   2.786  19.573  0.00  0.00    +0.000 C 
ATOM     26  C   UNL     1       1.025   2.567  20.299  0.00  0.00    +0.000 C 
ATOM     27  C   UNL     1       1.415   2.816  21.741  0.00  0.00    +0.000 C 
ATOM     28  O   UNL     1       2.804   2.486  21.874  0.00  0.00    +0.000 OA
ENDBRANCH  23  24
ENDBRANCH  21  23
ENDBRANCH   6  19
TORSDOF 5
ENDMDL
MODEL 5
REMARK VINA RESULT:      -8.4      3.408      7.417
REMARK  Name = 
REMARK  5 active torsions:
REMARK  status: ('A' for Active; 'I' for Inactive)
REMARK    1  A    between atoms: C_2  and  C_19
REMARK    2  A    between atoms: N_3  and  C_4
REMARK    3  A    between atoms: C_9  and  C_10
REMARK    4  A    between atoms: N_12  and  C_13
REMARK    5  A    between atoms: C_13  and  C_14
REMARK                            x       y       z     vdW  Elec       q    Type
REMARK                         _______ _______ _______ _____ _____    ______ ____
ROOT
ATOM      1  C   UNL     1       2.882   5.053  20.347  0.00  0.00    +0.000 A 
ATOM      2  C   UNL     1       1.909   4.356  21.085  0.00  0.00    +0.000 A 
ATOM      3  C   UNL     1       1.947   2.966  21.181  0.00  0.00    +0.000 A 
ATOM      4  C   UNL     1       2.972   2.259  20.563  0.00  0.00    +0.000 A 
ATOM      5  C   UNL     1       3.962   2.947  19.861  0.00  0.00    +0.000 A 
ATOM      6  C   UNL     1       3.943   4.352  19.741  0.00  0.00    +0.000 A 
ENDROOT
BRANCH   1   9
ATOM      7  O   UNL     1       2.017   6.341  18.062  0.00  0.00    +0.000 OA
ATOM      8  C   UNL     1       2.177   6.989  19.093  0.00  0.00    +0.000 C 
ATOM      9  N   UNL     1       2.718   6.460  20.260  0.00  0.00    +0.000 N 
ATOM     10  H   UNL     1       2.314   6.880  21.094  0.00  0.00    +0.000 HD
BRANCH   8  11
ATOM     11  C   UNL     1       1.813   8.439  19.094  0.00  0.00    +0.000 A 
ATOM     12  C   UNL     1       2.292   9.184  17.998  0.00  0.00    +0.000 A 
ATOM     13  C   UNL     1       2.005  10.545  17.873  0.00  0.00    +0.000 A 
ATOM     14  C   UNL     1       1.231  11.174  18.842  0.00  0.00    +0.000 A 
ATOM     15 CL   UNL     1       0.838  12.839  18.672  0.00  0.00    +0.000 Cl
ATOM     16  C   UNL     1       0.753  10.458  19.935  0.00  0.00    +0.000 A 
ATOM     17  C   UNL     1       1.041   9.093  20.068  0.00  0.00    +0.000 A 
ATOM     18 CL   UNL     1       0.361   8.303  21.448  0.00  0.00    +0.000 Cl
ENDBRANCH   8  11
ENDBRANCH   1   9
BRANCH   6  19
ATOM     19  C   UNL     1       5.143   4.955  19.068  0.00  0.00    +0.000 C 
ATOM     20  O   UNL     1       6.194   5.096  19.695  0.00  0.00    +0.000 OA
ATOM     21  N   UNL     1       5.015   5.395  17.774  0.00  0.00    +0.000 N 
ATOM     22  H   UNL     1       4.212   5.094  17.241  0.00  0.00    +0.000 HD
BRANCH  21  23
ATOM     23  C   UNL     1       6.134   5.953  17.034  0.00  0.00    +0.000 C 
BRANCH  23  24
ATOM     24  C   UNL     1       6.044   5.666  15.535  0.00  0.00    +0.000 C 
ATOM     25  C   UNL     1       5.347   4.363  15.176  0.00  0.00    +0.000 C 
ATOM     26  C   UNL     1       5.918   4.083  13.808  0.00  0.00    +0.000 C 
ATOM     27  C   UNL     1       7.350   4.551  13.956  0.00  0.00    +0.000 C 
ATOM     28  O   UNL     1       7.365   5.582  14.952  0.00  0.00    +0.000 OA
ENDBRANCH  23  24
ENDBRANCH  21  23
ENDBRANCH   6  19
TORSDOF 5
ENDMDL
MODEL 6
REMARK VINA RESULT:      -8.0      3.452      7.753
REMARK  Name = 
REMARK  5 active torsions:
REMARK  status: ('A' for Active; 'I' for Inactive)
REMARK    1  A    between atoms: C_2  and  C_19
REMARK    2  A    between atoms: N_3  and  C_4
REMARK    3  A    between atoms: C_9  and  C_10
REMARK    4  A    between atoms: N_12  and  C_13
REMARK    5  A    between atoms: C_13  and  C_14
REMARK                            x       y       z     vdW  Elec       q    Type
REMARK                         _______ _______ _______ _____ _____    ______ ____
ROOT
ATOM      1  C   UNL     1       2.306   4.330  18.342  0.00  0.00    +0.000 A 
ATOM      2  C   UNL     1       1.443   3.476  19.050  0.00  0.00    +0.000 A 
ATOM      3  C   UNL     1       1.706   2.109  19.137  0.00  0.00    +0.000 A 
ATOM      4  C   UNL     1       2.847   1.587  18.540  0.00  0.00    +0.000 A 
ATOM      5  C   UNL     1       3.727   2.435  17.868  0.00  0.00    +0.000 A 
ATOM      6  C   UNL     1       3.481   3.819  17.758  0.00  0.00    +0.000 A 
ENDROOT
BRANCH   1   9
ATOM      7  O   UNL     1       2.348   6.051  20.502  0.00  0.00    +0.000 OA
ATOM      8  C   UNL     1       2.078   6.492  19.388  0.00  0.00    +0.000 C 
ATOM      9  N   UNL     1       1.916   5.692  18.260  0.00  0.00    +0.000 N 
ATOM     10  H   UNL     1       2.227   6.160  17.412  0.00  0.00    +0.000 HD
BRANCH   8  11
ATOM     11  C   UNL     1       1.866   7.962  19.228  0.00  0.00    +0.000 A 
ATOM     12  C   UNL     1       2.379   8.523  18.041  0.00  0.00    +0.000 A 
ATOM     13  C   UNL     1       2.230   9.884  17.764  0.00  0.00    +0.000 A 
ATOM     14  C   UNL     1       1.560  10.697  18.671  0.00  0.00    +0.000 A 
ATOM     15 CL   UNL     1       1.336  12.365  18.318  0.00  0.00    +0.000 Cl
ATOM     16  C   UNL     1       1.051  10.166  19.853  0.00  0.00    +0.000 A 
ATOM     17  C   UNL     1       1.201   8.802  20.136  0.00  0.00    +0.000 A 
ATOM     18 CL   UNL     1       0.494   8.252  21.615  0.00  0.00    +0.000 Cl
ENDBRANCH   8  11
ENDBRANCH   1   9
BRANCH   6  19
ATOM     19  C   UNL     1       4.583   4.617  17.120  0.00  0.00    +0.000 C 
ATOM     20  O   UNL     1       4.445   5.829  16.949  0.00  0.00    +0.000 OA
ATOM     21  N   UNL     1       5.703   3.954  16.685  0.00  0.00    +0.000 N 
ATOM     22  H   UNL     1       5.860   3.010  17.009  0.00  0.00    +0.000 HD
BRANCH  21  23
ATOM     23  C   UNL     1       6.833   4.651  16.094  0.00  0.00    +0.000 C 
BRANCH  23  24
ATOM     24  C   UNL     1       6.617   4.964  14.613  0.00  0.00    +0.000 C 
ATOM     25  C   UNL     1       6.333   3.751  13.740  0.00  0.00    +0.000 C 
ATOM     26  C   UNL     1       6.752   4.254  12.381  0.00  0.00    +0.000 C 
ATOM     27  C   UNL     1       7.960   5.104  12.711  0.00  0.00    +0.000 C 
ATOM     28  O   UNL     1       7.790   5.593  14.048  0.00  0.00    +0.000 OA
ENDBRANCH  23  24
ENDBRANCH  21  23
ENDBRANCH   6  19
TORSDOF 5
ENDMDL
MODEL 7
REMARK VINA RESULT:      -8.0      3.487      6.933
REMARK  Name = 
REMARK  5 active torsions:
REMARK  status: ('A' for Active; 'I' for Inactive)
REMARK    1  A    between atoms: C_2  and  C_19
REMARK    2  A    between atoms: N_3  and  C_4
REMARK    3  A    between atoms: C_9  and  C_10
REMARK    4  A    between atoms: N_12  and  C_13
REMARK    5  A    between atoms: C_13  and  C_14
REMARK                            x       y       z     vdW  Elec       q    Type
REMARK                         _______ _______ _______ _____ _____    ______ ____
ROOT
ATOM      1  C   UNL     1       2.190   4.296  18.364  0.00  0.00    +0.000 A 
ATOM      2  C   UNL     1       1.359   3.469  19.140  0.00  0.00    +0.000 A 
ATOM      3  C   UNL     1       1.602   2.099  19.234  0.00  0.00    +0.000 A 
ATOM      4  C   UNL     1       2.694   1.546  18.576  0.00  0.00    +0.000 A 
ATOM      5  C   UNL     1       3.544   2.367  17.835  0.00  0.00    +0.000 A 
ATOM      6  C   UNL     1       3.317   3.753  17.716  0.00  0.00    +0.000 A 
ENDROOT
BRANCH   1   9
ATOM      7  O   UNL     1       2.319   6.030  20.510  0.00  0.00    +0.000 OA
ATOM      8  C   UNL     1       2.025   6.468  19.400  0.00  0.00    +0.000 C 
ATOM      9  N   UNL     1       1.820   5.663  18.284  0.00  0.00    +0.000 N 
ATOM     10  H   UNL     1       2.114   6.120  17.424  0.00  0.00    +0.000 HD
BRANCH   8  11
ATOM     11  C   UNL     1       1.832   7.941  19.236  0.00  0.00    +0.000 A 
ATOM     12  C   UNL     1       2.362   8.492  18.053  0.00  0.00    +0.000 A 
ATOM     13  C   UNL     1       2.231   9.854  17.772  0.00  0.00    +0.000 A 
ATOM     14  C   UNL     1       1.564  10.678  18.672  0.00  0.00    +0.000 A 
ATOM     15 CL   UNL     1       1.362  12.347  18.313  0.00  0.00    +0.000 Cl
ATOM     16  C   UNL     1       1.039  10.155  19.850  0.00  0.00    +0.000 A 
ATOM     17  C   UNL     1       1.170   8.790  20.138  0.00  0.00    +0.000 A 
ATOM     18 CL   UNL     1       0.445   8.251  21.612  0.00  0.00    +0.000 Cl
ENDBRANCH   8  11
ENDBRANCH   1   9
BRANCH   6  19
ATOM     19  C   UNL     1       4.389   4.520  16.996  0.00  0.00    +0.000 C 
ATOM     20  O   UNL     1       4.255   5.729  16.800  0.00  0.00    +0.000 OA
ATOM     21  N   UNL     1       5.475   3.832  16.516  0.00  0.00    +0.000 N 
ATOM     22  H   UNL     1       5.640   2.895  16.856  0.00  0.00    +0.000 HD
BRANCH  21  23
ATOM     23  C   UNL     1       6.577   4.499  15.845  0.00  0.00    +0.000 C 
BRANCH  23  24
ATOM     24  C   UNL     1       7.549   5.154  16.827  0.00  0.00    +0.000 C 
ATOM     25  C   UNL     1       7.189   4.978  18.294  0.00  0.00    +0.000 C 
ATOM     26  C   UNL     1       7.906   6.147  18.923  0.00  0.00    +0.000 C 
ATOM     27  C   UNL     1       7.733   7.229  17.878  0.00  0.00    +0.000 C 
ATOM     28  O   UNL     1       7.614   6.581  16.604  0.00  0.00    +0.000 OA
ENDBRANCH  23  24
ENDBRANCH  21  23
ENDBRANCH   6  19
TORSDOF 5
ENDMDL
MODEL 8
REMARK VINA RESULT:      -7.9      3.103      7.077
REMARK  Name = 
REMARK  5 active torsions:
REMARK  status: ('A' for Active; 'I' for Inactive)
REMARK    1  A    between atoms: C_2  and  C_19
REMARK    2  A    between atoms: N_3  and  C_4
REMARK    3  A    between atoms: C_9  and  C_10
REMARK    4  A    between atoms: N_12  and  C_13
REMARK    5  A    between atoms: C_13  and  C_14
REMARK                            x       y       z     vdW  Elec       q    Type
REMARK                         _______ _______ _______ _____ _____    ______ ____
ROOT
ATOM      1  C   UNL     1       5.153   5.836  17.421  0.00  0.00    +0.000 A 
ATOM      2  C   UNL     1       6.228   6.585  16.910  0.00  0.00    +0.000 A 
ATOM      3  C   UNL     1       7.111   6.027  15.987  0.00  0.00    +0.000 A 
ATOM      4  C   UNL     1       6.915   4.724  15.544  0.00  0.00    +0.000 A 
ATOM      5  C   UNL     1       5.828   3.988  16.018  0.00  0.00    +0.000 A 
ATOM      6  C   UNL     1       4.925   4.525  16.958  0.00  0.00    +0.000 A 
ENDROOT
BRANCH   1   9
ATOM      7  O   UNL     1       3.179   7.666  16.806  0.00  0.00    +0.000 OA
ATOM      8  C   UNL     1       3.316   7.299  17.970  0.00  0.00    +0.000 C 
ATOM      9  N   UNL     1       4.351   6.474  18.401  0.00  0.00    +0.000 N 
ATOM     10  H   UNL     1       4.060   5.861  19.159  0.00  0.00    +0.000 HD
BRANCH   8  11
ATOM     11  C   UNL     1       2.351   7.793  18.998  0.00  0.00    +0.000 A 
ATOM     12  C   UNL     1       2.087   6.902  20.058  0.00  0.00    +0.000 A 
ATOM     13  C   UNL     1       1.217   7.252  21.093  0.00  0.00    +0.000 A 
ATOM     14  C   UNL     1       0.606   8.501  21.081  0.00  0.00    +0.000 A 
ATOM     15 CL   UNL     1      -0.433   8.955  22.373  0.00  0.00    +0.000 Cl
ATOM     16  C   UNL     1       0.848   9.394  20.041  0.00  0.00    +0.000 A 
ATOM     17  C   UNL     1       1.717   9.046  18.999  0.00  0.00    +0.000 A 
ATOM     18 CL   UNL     1       1.968  10.251  17.785  0.00  0.00    +0.000 Cl
ENDBRANCH   8  11
ENDBRANCH   1   9
BRANCH   6  19
ATOM     19  C   UNL     1       3.736   3.661  17.271  0.00  0.00    +0.000 C 
ATOM     20  O   UNL     1       2.604   4.040  16.969  0.00  0.00    +0.000 OA
ATOM     21  N   UNL     1       3.943   2.486  17.951  0.00  0.00    +0.000 N 
ATOM     22  H   UNL     1       4.884   2.125  18.011  0.00  0.00    +0.000 HD
BRANCH  21  23
ATOM     23  C   UNL     1       2.857   1.572  18.260  0.00  0.00    +0.000 C 
BRANCH  23  24
ATOM     24  C   UNL     1       2.213   1.866  19.615  0.00  0.00    +0.000 C 
ATOM     25  C   UNL     1       1.019   2.807  19.563  0.00  0.00    +0.000 C 
ATOM     26  C   UNL     1       1.000   3.347  20.971  0.00  0.00    +0.000 C 
ATOM     27  C   UNL     1       2.475   3.472  21.287  0.00  0.00    +0.000 C 
ATOM     28  O   UNL     1       3.166   2.486  20.508  0.00  0.00    +0.000 OA
ENDBRANCH  23  24
ENDBRANCH  21  23
ENDBRANCH   6  19
TORSDOF 5
ENDMDL
MODEL 9
REMARK VINA RESULT:      -7.9      1.119      1.276
REMARK  Name = 
REMARK  5 active torsions:
REMARK  status: ('A' for Active; 'I' for Inactive)
REMARK    1  A    between atoms: C_2  and  C_19
REMARK    2  A    between atoms: N_3  and  C_4
REMARK    3  A    between atoms: C_9  and  C_10
REMARK    4  A    between atoms: N_12  and  C_13
REMARK    5  A    between atoms: C_13  and  C_14
REMARK                            x       y       z     vdW  Elec       q    Type
REMARK                         _______ _______ _______ _____ _____    ______ ____
ROOT
ATOM      1  C   UNL     1       3.744   3.948  19.705  0.00  0.00    +0.000 A 
ATOM      2  C   UNL     1       3.681   2.651  20.243  0.00  0.00    +0.000 A 
ATOM      3  C   UNL     1       2.779   2.344  21.261  0.00  0.00    +0.000 A 
ATOM      4  C   UNL     1       1.912   3.322  21.733  0.00  0.00    +0.000 A 
ATOM      5  C   UNL     1       1.943   4.601  21.177  0.00  0.00    +0.000 A 
ATOM      6  C   UNL     1       2.850   4.941  20.152  0.00  0.00    +0.000 A 
ENDROOT
BRANCH   1   9
ATOM      7  O   UNL     1       3.426   3.259  17.049  0.00  0.00    +0.000 OA
ATOM      8  C   UNL     1       4.428   3.881  17.392  0.00  0.00    +0.000 C 
ATOM      9  N   UNL     1       4.737   4.172  18.717  0.00  0.00    +0.000 N 
ATOM     10  H   UNL     1       5.217   5.065  18.811  0.00  0.00    +0.000 HD
BRANCH   8  11
ATOM     11  C   UNL     1       5.397   4.318  16.343  0.00  0.00    +0.000 A 
ATOM     12  C   UNL     1       5.281   3.663  15.101  0.00  0.00    +0.000 A 
ATOM     13  C   UNL     1       6.117   3.993  14.032  0.00  0.00    +0.000 A 
ATOM     14  C   UNL     1       7.075   4.988  14.193  0.00  0.00    +0.000 A 
ATOM     15 CL   UNL     1       8.078   5.429  12.869  0.00  0.00    +0.000 Cl
ATOM     16  C   UNL     1       7.210   5.644  15.413  0.00  0.00    +0.000 A 
ATOM     17  C   UNL     1       6.377   5.313  16.490  0.00  0.00    +0.000 A 
ATOM     18 CL   UNL     1       6.615   6.222  17.942  0.00  0.00    +0.000 Cl
ENDBRANCH   8  11
ENDBRANCH   1   9
BRANCH   6  19
ATOM     19  C   UNL     1       2.673   6.313  19.567  0.00  0.00    +0.000 C 
ATOM     20  O   UNL     1       3.207   6.598  18.495  0.00  0.00    +0.000 OA
ATOM     21  N   UNL     1       1.963   7.243  20.285  0.00  0.00    +0.000 N 
ATOM     22  H   UNL     1       1.390   6.923  21.053  0.00  0.00    +0.000 HD
BRANCH  21  23
ATOM     23  C   UNL     1       1.709   8.581  19.777  0.00  0.00    +0.000 C 
BRANCH  23  24
ATOM     24  C   UNL     1       0.520   9.251  20.467  0.00  0.00    +0.000 C 
ATOM     25  C   UNL     1       0.805  10.638  21.025  0.00  0.00    +0.000 C 
ATOM     26  C   UNL     1      -0.260  10.760  22.086  0.00  0.00    +0.000 C 
ATOM     27  C   UNL     1      -0.325   9.352  22.639  0.00  0.00    +0.000 C 
ATOM     28  O   UNL     1       0.068   8.459  21.589  0.00  0.00    +0.000 OA
ENDBRANCH  23  24
ENDBRANCH  21  23
ENDBRANCH   6  19
TORSDOF 5
ENDMDL
