MODEL 1
REMARK VINA RESULT:      -9.1      0.000      0.000
REMARK  Name = 
REMARK  9 active torsions:
REMARK  status: ('A' for Active; 'I' for Inactive)
REMARK    1  A    between atoms: C_1  and  C_2
REMARK    2  A    between atoms: N_5  and  C_6
REMARK    3  A    between atoms: C_8  and  C_9
REMARK    4  A    between atoms: C_15  and  C_16
REMARK    5  A    between atoms: C_16  and  N_17
REMARK    6  A    between atoms: C_18  and  C_20
REMARK    7  A    between atoms: C_20  and  C_21
REMARK    8  A    between atoms: C_20  and  C_22
REMARK    9  A    between atoms: C_25  and  N_26
REMARK                            x       y       z     vdW  Elec       q    Type
REMARK                         _______ _______ _______ _____ _____    ______ ____
ROOT
ATOM      1  C   UNL     1       3.787   4.741  17.539  0.00  0.00    +0.000 A 
ATOM      2  N   UNL     1       4.731   4.244  16.705  0.00  0.00    +0.000 NA
ATOM      3  C   UNL     1       5.468   5.099  15.929  0.00  0.00    +0.000 A 
ATOM      4  C   UNL     1       5.290   6.474  15.975  0.00  0.00    +0.000 A 
ATOM      5  C   UNL     1       4.341   6.990  16.843  0.00  0.00    +0.000 A 
ATOM      6  C   UNL     1       3.598   6.130  17.663  0.00  0.00    +0.000 A 
ENDROOT
BRANCH   1  11
ATOM      7  C   UNL     1       1.205   2.773  21.919  0.00  0.00    +0.000 C 
ATOM      8  C   UNL     1       1.690   2.605  20.478  0.00  0.00    +0.000 C 
ATOM      9  C   UNL     1       3.232   2.698  20.415  0.00  0.00    +0.000 C 
ATOM     10  C   UNL     1       3.759   2.749  18.970  0.00  0.00    +0.000 C 
ATOM     11  N   UNL     1       3.075   3.857  18.326  0.00  0.00    +0.000 N 
ATOM     12  C   UNL     1       1.634   3.663  18.171  0.00  0.00    +0.000 C 
ATOM     13  C   UNL     1       1.012   3.648  19.574  0.00  0.00    +0.000 C 
ENDBRANCH   1  11
BRANCH   3  14
ATOM     14  C   UNL     1       6.522   4.553  14.975  0.00  0.00    +0.000 C 
ATOM     15  F   UNL     1       6.820   5.372  13.925  0.00  0.00    +0.000 F 
ATOM     16  F   UNL     1       7.710   4.305  15.600  0.00  0.00    +0.000 F 
ATOM     17  F   UNL     1       6.153   3.363  14.420  0.00  0.00    +0.000 F 
ENDBRANCH   3  14
BRANCH   6  18
ATOM     18  C   UNL     1       2.607   6.677  18.655  0.00  0.00    +0.000 C 
BRANCH  18  19
ATOM     19  N   UNL     1       2.221   8.045  18.453  0.00  0.00    +0.000 N 
ATOM     20  C   UNL     1       1.534   8.727  19.426  0.00  0.00    +0.000 C 
ATOM     21  O   UNL     1       1.137   8.193  20.458  0.00  0.00    +0.000 OA
ATOM     22  H   UNL     1       2.596   8.530  17.648  0.00  0.00    +0.000 HD
BRANCH  20  23
ATOM     23  C   UNL     1       1.321  10.196  19.103  0.00  0.00    +0.000 C 
ATOM     24  C   UNL     1       2.245  10.573  17.944  0.00  0.00    +0.000 C 
BRANCH  23  25
ATOM     25  C   UNL     1      -0.138  10.492  18.786  0.00  0.00    +0.000 A 
ATOM     26  C   UNL     1      -0.889  11.387  19.563  0.00  0.00    +0.000 A 
ATOM     27  C   UNL     1      -2.248  11.606  19.303  0.00  0.00    +0.000 A 
ATOM     28  C   UNL     1      -2.880  10.973  18.233  0.00  0.00    +0.000 A 
ATOM     29  C   UNL     1      -2.132  10.065  17.475  0.00  0.00    +0.000 A 
ATOM     30  F   UNL     1      -2.723   9.398  16.470  0.00  0.00    +0.000 F 
ATOM     31  C   UNL     1      -0.778   9.835  17.725  0.00  0.00    +0.000 A 
BRANCH  28  32
ATOM     32  N   UNL     1      -4.273  11.066  18.084  0.00  0.00    +0.000 N 
ATOM     33  H   UNL     1      -4.755  10.175  18.042  0.00  0.00    +0.000 HD
ATOM     34  H   UNL     1      -4.696  11.720  18.739  0.00  0.00    +0.000 HD
ENDBRANCH  28  32
ENDBRANCH  23  25
ENDBRANCH  20  23
ENDBRANCH  18  19
ENDBRANCH   6  18
TORSDOF 7
ENDMDL
MODEL 2
REMARK VINA RESULT:      -9.1      0.905      1.420
REMARK  Name = 
REMARK  9 active torsions:
REMARK  status: ('A' for Active; 'I' for Inactive)
REMARK    1  A    between atoms: C_1  and  C_2
REMARK    2  A    between atoms: N_5  and  C_6
REMARK    3  A    between atoms: C_8  and  C_9
REMARK    4  A    between atoms: C_15  and  C_16
REMARK    5  A    between atoms: C_16  and  N_17
REMARK    6  A    between atoms: C_18  and  C_20
REMARK    7  A    between atoms: C_20  and  C_21
REMARK    8  A    between atoms: C_20  and  C_22
REMARK    9  A    between atoms: C_25  and  N_26
REMARK                            x       y       z     vdW  Elec       q    Type
REMARK                         _______ _______ _______ _____ _____    ______ ____
ROOT
ATOM      1  C   UNL     1       3.764   4.718  17.545  0.00  0.00    +0.000 A 
ATOM      2  N   UNL     1       4.718   4.225  16.719  0.00  0.00    +0.000 NA
ATOM      3  C   UNL     1       5.445   5.082  15.936  0.00  0.00    +0.000 A 
ATOM      4  C   UNL     1       5.249   6.455  15.968  0.00  0.00    +0.000 A 
ATOM      5  C   UNL     1       4.292   6.967  16.828  0.00  0.00    +0.000 A 
ATOM      6  C   UNL     1       3.557   6.106  17.655  0.00  0.00    +0.000 A 
ENDROOT
BRANCH   1  11
ATOM      7  C   UNL     1       1.212   2.753  21.943  0.00  0.00    +0.000 C 
ATOM      8  C   UNL     1       1.694   2.582  20.502  0.00  0.00    +0.000 C 
ATOM      9  C   UNL     1       3.235   2.686  20.433  0.00  0.00    +0.000 C 
ATOM     10  C   UNL     1       3.757   2.734  18.986  0.00  0.00    +0.000 C 
ATOM     11  N   UNL     1       3.062   3.833  18.339  0.00  0.00    +0.000 N 
ATOM     12  C   UNL     1       1.622   3.627  18.190  0.00  0.00    +0.000 C 
ATOM     13  C   UNL     1       1.005   3.614  19.595  0.00  0.00    +0.000 C 
ENDBRANCH   1  11
BRANCH   3  14
ATOM     14  C   UNL     1       6.509   4.540  14.990  0.00  0.00    +0.000 C 
ATOM     15  F   UNL     1       7.721   4.305  15.570  0.00  0.00    +0.000 F 
ATOM     16  F   UNL     1       6.139   3.359  14.414  0.00  0.00    +0.000 F 
ATOM     17  F   UNL     1       6.757   5.385  13.949  0.00  0.00    +0.000 F 
ENDBRANCH   3  14
BRANCH   6  18
ATOM     18  C   UNL     1       2.557   6.649  18.638  0.00  0.00    +0.000 C 
BRANCH  18  19
ATOM     19  N   UNL     1       2.200   8.028  18.459  0.00  0.00    +0.000 N 
ATOM     20  C   UNL     1       1.531   8.710  19.445  0.00  0.00    +0.000 C 
ATOM     21  O   UNL     1       1.124   8.169  20.469  0.00  0.00    +0.000 OA
ATOM     22  H   UNL     1       2.584   8.518  17.661  0.00  0.00    +0.000 HD
BRANCH  20  23
ATOM     23  C   UNL     1       1.349  10.189  19.146  0.00  0.00    +0.000 C 
ATOM     24  C   UNL     1       2.253  10.556  17.969  0.00  0.00    +0.000 C 
BRANCH  23  25
ATOM     25  C   UNL     1      -0.109  10.527  18.869  0.00  0.00    +0.000 A 
ATOM     26  C   UNL     1      -0.802   9.952  17.793  0.00  0.00    +0.000 A 
ATOM     27  C   UNL     1      -2.124  10.316  17.508  0.00  0.00    +0.000 A 
ATOM     28  C   UNL     1      -2.802  11.228  18.316  0.00  0.00    +0.000 A 
ATOM     29  C   UNL     1      -2.099  11.814  19.375  0.00  0.00    +0.000 A 
ATOM     30  F   UNL     1      -2.706  12.736  20.141  0.00  0.00    +0.000 F 
ATOM     31  C   UNL     1      -0.781  11.463  19.668  0.00  0.00    +0.000 A 
BRANCH  28  32
ATOM     32  N   UNL     1      -4.062  11.712  17.926  0.00  0.00    +0.000 N 
ATOM     33  H   UNL     1      -4.104  12.068  16.978  0.00  0.00    +0.000 HD
ATOM     34  H   UNL     1      -4.817  11.065  18.147  0.00  0.00    +0.000 HD
ENDBRANCH  28  32
ENDBRANCH  23  25
ENDBRANCH  20  23
ENDBRANCH  18  19
ENDBRANCH   6  18
TORSDOF 7
ENDMDL
MODEL 3
REMARK VINA RESULT:      -8.7      1.870      2.338
REMARK  Name = 
REMARK  9 active torsions:
REMARK  status: ('A' for Active; 'I' for Inactive)
REMARK    1  A    between atoms: C_1  and  C_2
REMARK    2  A    between atoms: N_5  and  C_6
REMARK    3  A    between atoms: C_8  and  C_9
REMARK    4  A    between atoms: C_15  and  C_16
REMARK    5  A    between atoms: C_16  and  N_17
REMARK    6  A    between atoms: C_18  and  C_20
REMARK    7  A    between atoms: C_20  and  C_21
REMARK    8  A    between atoms: C_20  and  C_22
REMARK    9  A    between atoms: C_25  and  N_26
REMARK                            x       y       z     vdW  Elec       q    Type
REMARK                         _______ _______ _______ _____ _____    ______ ____
ROOT
ATOM      1  C   UNL     1       3.780   4.606  17.425  0.00  0.00    +0.000 A 
ATOM      2  N   UNL     1       4.510   4.106  16.400  0.00  0.00    +0.000 NA
ATOM      3  C   UNL     1       5.214   4.957  15.590  0.00  0.00    +0.000 A 
ATOM      4  C   UNL     1       5.219   6.330  15.792  0.00  0.00    +0.000 A 
ATOM      5  C   UNL     1       4.493   6.845  16.852  0.00  0.00    +0.000 A 
ATOM      6  C   UNL     1       3.788   5.986  17.706  0.00  0.00    +0.000 A 
ENDROOT
BRANCH   1  11
ATOM      7  C   UNL     1       1.281   2.677  21.869  0.00  0.00    +0.000 C 
ATOM      8  C   UNL     1       1.763   2.487  20.430  0.00  0.00    +0.000 C 
ATOM      9  C   UNL     1       3.301   2.621  20.354  0.00  0.00    +0.000 C 
ATOM     10  C   UNL     1       3.818   2.651  18.905  0.00  0.00    +0.000 C 
ATOM     11  N   UNL     1       3.098   3.723  18.239  0.00  0.00    +0.000 N 
ATOM     12  C   UNL     1       1.663   3.485  18.098  0.00  0.00    +0.000 C 
ATOM     13  C   UNL     1       1.050   3.487  19.505  0.00  0.00    +0.000 C 
ENDBRANCH   1  11
BRANCH   3  14
ATOM     14  C   UNL     1       6.026   4.410  14.424  0.00  0.00    +0.000 C 
ATOM     15  F   UNL     1       6.758   3.294  14.711  0.00  0.00    +0.000 F 
ATOM     16  F   UNL     1       5.242   4.073  13.357  0.00  0.00    +0.000 F 
ATOM     17  F   UNL     1       6.919   5.320  13.939  0.00  0.00    +0.000 F 
ENDBRANCH   3  14
BRANCH   6  18
ATOM     18  C   UNL     1       3.045   6.523  18.899  0.00  0.00    +0.000 C 
BRANCH  18  19
ATOM     19  N   UNL     1       2.413   7.798  18.710  0.00  0.00    +0.000 N 
ATOM     20  C   UNL     1       1.677   8.368  19.719  0.00  0.00    +0.000 C 
ATOM     21  O   UNL     1       1.442   7.792  20.778  0.00  0.00    +0.000 OA
ATOM     22  H   UNL     1       2.648   8.325  17.880  0.00  0.00    +0.000 HD
BRANCH  20  23
ATOM     23  C   UNL     1       1.189   9.770  19.397  0.00  0.00    +0.000 C 
ATOM     24  C   UNL     1       0.449   9.728  18.059  0.00  0.00    +0.000 C 
BRANCH  23  25
ATOM     25  C   UNL     1       0.314  10.327  20.512  0.00  0.00    +0.000 A 
ATOM     26  C   UNL     1       0.395   9.830  21.822  0.00  0.00    +0.000 A 
ATOM     27  C   UNL     1      -0.457  10.304  22.828  0.00  0.00    +0.000 A 
ATOM     28  C   UNL     1      -1.378  11.317  22.564  0.00  0.00    +0.000 A 
ATOM     29  C   UNL     1      -1.468  11.793  21.251  0.00  0.00    +0.000 A 
ATOM     30  F   UNL     1      -2.381  12.731  20.950  0.00  0.00    +0.000 F 
ATOM     31  C   UNL     1      -0.628  11.328  20.238  0.00  0.00    +0.000 A 
BRANCH  28  32
ATOM     32  N   UNL     1      -2.337  11.665  23.529  0.00  0.00    +0.000 N 
ATOM     33  H   UNL     1      -3.290  11.698  23.184  0.00  0.00    +0.000 HD
ATOM     34  H   UNL     1      -2.240  11.132  24.390  0.00  0.00    +0.000 HD
ENDBRANCH  28  32
ENDBRANCH  23  25
ENDBRANCH  20  23
ENDBRANCH  18  19
ENDBRANCH   6  18
TORSDOF 7
ENDMDL
MODEL 4
REMARK VINA RESULT:      -8.5      2.228      3.058
REMARK  Name = 
REMARK  9 active torsions:
REMARK  status: ('A' for Active; 'I' for Inactive)
REMARK    1  A    between atoms: C_1  and  C_2
REMARK    2  A    between atoms: N_5  and  C_6
REMARK    3  A    between atoms: C_8  and  C_9
REMARK    4  A    between atoms: C_15  and  C_16
REMARK    5  A    between atoms: C_16  and  N_17
REMARK    6  A    between atoms: C_18  and  C_20
REMARK    7  A    between atoms: C_20  and  C_21
REMARK    8  A    between atoms: C_20  and  C_22
REMARK    9  A    between atoms: C_25  and  N_26
REMARK                            x       y       z     vdW  Elec       q    Type
REMARK                         _______ _______ _______ _____ _____    ______ ____
ROOT
ATOM      1  C   UNL     1       3.720   4.757  17.531  0.00  0.00    +0.000 A 
ATOM      2  N   UNL     1       4.472   4.245  16.527  0.00  0.00    +0.000 NA
ATOM      3  C   UNL     1       5.188   5.088  15.719  0.00  0.00    +0.000 A 
ATOM      4  C   UNL     1       5.183   6.463  15.901  0.00  0.00    +0.000 A 
ATOM      5  C   UNL     1       4.435   6.991  16.939  0.00  0.00    +0.000 A 
ATOM      6  C   UNL     1       3.717   6.140  17.792  0.00  0.00    +0.000 A 
ENDROOT
BRANCH   1  11
ATOM      7  C   UNL     1       1.300   2.809  22.011  0.00  0.00    +0.000 C 
ATOM      8  C   UNL     1       1.715   2.643  20.548  0.00  0.00    +0.000 C 
ATOM      9  C   UNL     1       3.255   2.704  20.415  0.00  0.00    +0.000 C 
ATOM     10  C   UNL     1       3.716   2.755  18.948  0.00  0.00    +0.000 C 
ATOM     11  N   UNL     1       3.026   3.882  18.344  0.00  0.00    +0.000 N 
ATOM     12  C   UNL     1       1.576   3.720  18.254  0.00  0.00    +0.000 C 
ATOM     13  C   UNL     1       1.019   3.707  19.683  0.00  0.00    +0.000 C 
ENDBRANCH   1  11
BRANCH   3  14
ATOM     14  C   UNL     1       6.024   4.527  14.576  0.00  0.00    +0.000 C 
ATOM     15  F   UNL     1       5.319   4.225  13.447  0.00  0.00    +0.000 F 
ATOM     16  F   UNL     1       7.006   5.389  14.179  0.00  0.00    +0.000 F 
ATOM     17  F   UNL     1       6.673   3.379  14.922  0.00  0.00    +0.000 F 
ENDBRANCH   3  14
BRANCH   6  18
ATOM     18  C   UNL     1       2.949   6.691  18.962  0.00  0.00    +0.000 C 
BRANCH  18  19
ATOM     19  N   UNL     1       1.995   7.716  18.647  0.00  0.00    +0.000 N 
ATOM     20  C   UNL     1       1.503   8.538  19.631  0.00  0.00    +0.000 C 
ATOM     21  O   UNL     1       1.771   8.386  20.820  0.00  0.00    +0.000 OA
ATOM     22  H   UNL     1       1.812   7.911  17.672  0.00  0.00    +0.000 HD
BRANCH  20  23
ATOM     23  C   UNL     1       0.606   9.646  19.106  0.00  0.00    +0.000 C 
ATOM     24  C   UNL     1      -0.685   9.649  19.925  0.00  0.00    +0.000 C 
BRANCH  23  25
ATOM     25  C   UNL     1       1.306  10.997  19.143  0.00  0.00    +0.000 A 
ATOM     26  C   UNL     1       2.119  11.429  18.083  0.00  0.00    +0.000 A 
ATOM     27  C   UNL     1       2.810  12.646  18.152  0.00  0.00    +0.000 A 
ATOM     28  C   UNL     1       2.672  13.482  19.260  0.00  0.00    +0.000 A 
ATOM     29  C   UNL     1       1.877  13.036  20.322  0.00  0.00    +0.000 A 
ATOM     30  F   UNL     1       1.765  13.792  21.426  0.00  0.00    +0.000 F 
ATOM     31  C   UNL     1       1.186  11.825  20.268  0.00  0.00    +0.000 A 
BRANCH  28  32
ATOM     32  N   UNL     1       3.494  14.612  19.395  0.00  0.00    +0.000 N 
ATOM     33  H   UNL     1       3.494  15.233  18.593  0.00  0.00    +0.000 HD
ATOM     34  H   UNL     1       3.353  15.097  20.278  0.00  0.00    +0.000 HD
ENDBRANCH  28  32
ENDBRANCH  23  25
ENDBRANCH  20  23
ENDBRANCH  18  19
ENDBRANCH   6  18
TORSDOF 7
ENDMDL
MODEL 5
REMARK VINA RESULT:      -8.4      2.278      2.998
REMARK  Name = 
REMARK  9 active torsions:
REMARK  status: ('A' for Active; 'I' for Inactive)
REMARK    1  A    between atoms: C_1  and  C_2
REMARK    2  A    between atoms: N_5  and  C_6
REMARK    3  A    between atoms: C_8  and  C_9
REMARK    4  A    between atoms: C_15  and  C_16
REMARK    5  A    between atoms: C_16  and  N_17
REMARK    6  A    between atoms: C_18  and  C_20
REMARK    7  A    between atoms: C_20  and  C_21
REMARK    8  A    between atoms: C_20  and  C_22
REMARK    9  A    between atoms: C_25  and  N_26
REMARK                            x       y       z     vdW  Elec       q    Type
REMARK                         _______ _______ _______ _____ _____    ______ ____
ROOT
ATOM      1  C   UNL     1       3.814   4.844  17.503  0.00  0.00    +0.000 A 
ATOM      2  N   UNL     1       4.743   4.318  16.670  0.00  0.00    +0.000 NA
ATOM      3  C   UNL     1       5.524   5.151  15.913  0.00  0.00    +0.000 A 
ATOM      4  C   UNL     1       5.406   6.532  15.980  0.00  0.00    +0.000 A 
ATOM      5  C   UNL     1       4.474   7.076  16.847  0.00  0.00    +0.000 A 
ATOM      6  C   UNL     1       3.685   6.238  17.647  0.00  0.00    +0.000 A 
ENDROOT
BRANCH   1  11
ATOM      7  C   UNL     1       1.292   2.818  21.891  0.00  0.00    +0.000 C 
ATOM      8  C   UNL     1       1.671   2.715  20.413  0.00  0.00    +0.000 C 
ATOM      9  C   UNL     1       3.207   2.649  20.253  0.00  0.00    +0.000 C 
ATOM     10  C   UNL     1       3.650   2.759  18.784  0.00  0.00    +0.000 C 
ATOM     11  N   UNL     1       3.056   3.980  18.270  0.00  0.00    +0.000 N 
ATOM     12  C   UNL     1       1.596   3.953  18.198  0.00  0.00    +0.000 C 
ATOM     13  C   UNL     1       1.060   3.892  19.635  0.00  0.00    +0.000 C 
ENDBRANCH   1  11
BRANCH   3  14
ATOM     14  C   UNL     1       6.561   4.574  14.959  0.00  0.00    +0.000 C 
ATOM     15  F   UNL     1       7.804   4.409  15.499  0.00  0.00    +0.000 F 
ATOM     16  F   UNL     1       6.201   3.347  14.480  0.00  0.00    +0.000 F 
ATOM     17  F   UNL     1       6.741   5.352  13.854  0.00  0.00    +0.000 F 
ENDBRANCH   3  14
BRANCH   6  18
ATOM     18  C   UNL     1       2.711   6.813  18.639  0.00  0.00    +0.000 C 
BRANCH  18  19
ATOM     19  N   UNL     1       1.977   7.962  18.190  0.00  0.00    +0.000 N 
ATOM     20  C   UNL     1       1.434   8.840  19.094  0.00  0.00    +0.000 C 
ATOM     21  O   UNL     1       1.460   8.647  20.307  0.00  0.00    +0.000 OA
ATOM     22  H   UNL     1       2.002   8.184  17.204  0.00  0.00    +0.000 HD
BRANCH  20  23
ATOM     23  C   UNL     1       0.805  10.064  18.450  0.00  0.00    +0.000 C 
ATOM     24  C   UNL     1      -0.706  10.007  18.680  0.00  0.00    +0.000 C 
BRANCH  23  25
ATOM     25  C   UNL     1       1.413  11.352  18.987  0.00  0.00    +0.000 A 
ATOM     26  C   UNL     1       1.045  11.868  20.240  0.00  0.00    +0.000 A 
ATOM     27  C   UNL     1       1.562  13.086  20.699  0.00  0.00    +0.000 A 
ATOM     28  C   UNL     1       2.492  13.797  19.941  0.00  0.00    +0.000 A 
ATOM     29  C   UNL     1       2.839  13.289  18.684  0.00  0.00    +0.000 A 
ATOM     30  F   UNL     1       3.692  13.975  17.906  0.00  0.00    +0.000 F 
ATOM     31  C   UNL     1       2.329  12.078  18.213  0.00  0.00    +0.000 A 
BRANCH  28  32
ATOM     32  N   UNL     1       2.874  15.092  20.329  0.00  0.00    +0.000 N 
ATOM     33  H   UNL     1       2.464  15.410  21.201  0.00  0.00    +0.000 HD
ATOM     34  H   UNL     1       3.881  15.235  20.283  0.00  0.00    +0.000 HD
ENDBRANCH  28  32
ENDBRANCH  23  25
ENDBRANCH  20  23
ENDBRANCH  18  19
ENDBRANCH   6  18
TORSDOF 7
ENDMDL
MODEL 6
REMARK VINA RESULT:      -8.4      2.026      2.420
REMARK  Name = 
REMARK  9 active torsions:
REMARK  status: ('A' for Active; 'I' for Inactive)
REMARK    1  A    between atoms: C_1  and  C_2
REMARK    2  A    between atoms: N_5  and  C_6
REMARK    3  A    between atoms: C_8  and  C_9
REMARK    4  A    between atoms: C_15  and  C_16
REMARK    5  A    between atoms: C_16  and  N_17
REMARK    6  A    between atoms: C_18  and  C_20
REMARK    7  A    between atoms: C_20  and  C_21
REMARK    8  A    between atoms: C_20  and  C_22
REMARK    9  A    between atoms: C_25  and  N_26
REMARK                            x       y       z     vdW  Elec       q    Type
REMARK                         _______ _______ _______ _____ _____    ______ ____
ROOT
ATOM      1  C   UNL     1       3.921   4.674  17.565  0.00  0.00    +0.000 A 
ATOM      2  N   UNL     1       4.800   4.227  16.636  0.00  0.00    +0.000 NA
ATOM      3  C   UNL     1       5.469   5.127  15.849  0.00  0.00    +0.000 A 
ATOM      4  C   UNL     1       5.287   6.496  15.978  0.00  0.00    +0.000 A 
ATOM      5  C   UNL     1       4.407   6.959  16.941  0.00  0.00    +0.000 A 
ATOM      6  C   UNL     1       3.734   6.053  17.772  0.00  0.00    +0.000 A 
ENDROOT
BRANCH   1  11
ATOM      7  C   UNL     1       1.183   2.649  21.821  0.00  0.00    +0.000 C 
ATOM      8  C   UNL     1       1.868   2.450  20.468  0.00  0.00    +0.000 C 
ATOM      9  C   UNL     1       3.367   2.818  20.564  0.00  0.00    +0.000 C 
ATOM     10  C   UNL     1       4.055   2.841  19.188  0.00  0.00    +0.000 C 
ATOM     11  N   UNL     1       3.278   3.745  18.359  0.00  0.00    +0.000 N 
ATOM     12  C   UNL     1       1.923   3.278  18.070  0.00  0.00    +0.000 C 
ATOM     13  C   UNL     1       1.141   3.269  19.390  0.00  0.00    +0.000 C 
ENDBRANCH   1  11
BRANCH   3  14
ATOM     14  C   UNL     1       6.448   4.639  14.789  0.00  0.00    +0.000 C 
ATOM     15  F   UNL     1       7.733   4.492  15.225  0.00  0.00    +0.000 F 
ATOM     16  F   UNL     1       6.092   3.427  14.271  0.00  0.00    +0.000 F 
ATOM     17  F   UNL     1       6.517   5.481  13.718  0.00  0.00    +0.000 F 
ENDBRANCH   3  14
BRANCH   6  18
ATOM     18  C   UNL     1       2.821   6.541  18.864  0.00  0.00    +0.000 C 
BRANCH  18  19
ATOM     19  N   UNL     1       2.221   7.825  18.640  0.00  0.00    +0.000 N 
ATOM     20  C   UNL     1       1.588   8.488  19.663  0.00  0.00    +0.000 C 
ATOM     21  O   UNL     1       1.418   7.990  20.773  0.00  0.00    +0.000 OA
ATOM     22  H   UNL     1       2.407   8.289  17.761  0.00  0.00    +0.000 HD
BRANCH  20  23
ATOM     23  C   UNL     1       1.125   9.885  19.287  0.00  0.00    +0.000 C 
ATOM     24  C   UNL     1       0.490   9.824  17.898  0.00  0.00    +0.000 C 
BRANCH  23  25
ATOM     25  C   UNL     1       0.168  10.455  20.325  0.00  0.00    +0.000 A 
ATOM     26  C   UNL     1      -0.744  11.470  19.999  0.00  0.00    +0.000 A 
ATOM     27  C   UNL     1      -1.577  12.033  20.975  0.00  0.00    +0.000 A 
ATOM     28  C   UNL     1      -1.554  11.565  22.288  0.00  0.00    +0.000 A 
ATOM     29  C   UNL     1      -0.627  10.567  22.612  0.00  0.00    +0.000 A 
ATOM     30  F   UNL     1      -0.541  10.131  23.879  0.00  0.00    +0.000 F 
ATOM     31  C   UNL     1       0.211  10.000  21.651  0.00  0.00    +0.000 A 
BRANCH  28  32
ATOM     32  N   UNL     1      -2.266  12.245  23.290  0.00  0.00    +0.000 N 
ATOM     33  H   UNL     1      -2.133  11.878  24.226  0.00  0.00    +0.000 HD
ATOM     34  H   UNL     1      -2.154  13.255  23.235  0.00  0.00    +0.000 HD
ENDBRANCH  28  32
ENDBRANCH  23  25
ENDBRANCH  20  23
ENDBRANCH  18  19
ENDBRANCH   6  18
TORSDOF 7
ENDMDL
MODEL 7
REMARK VINA RESULT:      -8.3      2.135      2.550
REMARK  Name = 
REMARK  9 active torsions:
REMARK  status: ('A' for Active; 'I' for Inactive)
REMARK    1  A    between atoms: C_1  and  C_2
REMARK    2  A    between atoms: N_5  and  C_6
REMARK    3  A    between atoms: C_8  and  C_9
REMARK    4  A    between atoms: C_15  and  C_16
REMARK    5  A    between atoms: C_16  and  N_17
REMARK    6  A    between atoms: C_18  and  C_20
REMARK    7  A    between atoms: C_20  and  C_21
REMARK    8  A    between atoms: C_20  and  C_22
REMARK    9  A    between atoms: C_25  and  N_26
REMARK                            x       y       z     vdW  Elec       q    Type
REMARK                         _______ _______ _______ _____ _____    ______ ____
ROOT
ATOM      1  C   UNL     1       3.708   4.801  17.403  0.00  0.00    +0.000 A 
ATOM      2  N   UNL     1       4.521   4.253  16.469  0.00  0.00    +0.000 NA
ATOM      3  C   UNL     1       5.292   5.066  15.681  0.00  0.00    +0.000 A 
ATOM      4  C   UNL     1       5.282   6.447  15.815  0.00  0.00    +0.000 A 
ATOM      5  C   UNL     1       4.470   7.012  16.784  0.00  0.00    +0.000 A 
ATOM      6  C   UNL     1       3.694   6.193  17.616  0.00  0.00    +0.000 A 
ENDROOT
BRANCH   1  11
ATOM      7  C   UNL     1       1.360   2.799  21.897  0.00  0.00    +0.000 C 
ATOM      8  C   UNL     1       1.645   2.710  20.397  0.00  0.00    +0.000 C 
ATOM      9  C   UNL     1       3.165   2.580  20.145  0.00  0.00    +0.000 C 
ATOM     10  C   UNL     1       3.526   2.700  18.654  0.00  0.00    +0.000 C 
ATOM     11  N   UNL     1       2.958   3.957  18.198  0.00  0.00    +0.000 N 
ATOM     12  C   UNL     1       1.497   3.995  18.213  0.00  0.00    +0.000 C 
ATOM     13  C   UNL     1       1.044   3.928  19.678  0.00  0.00    +0.000 C 
ENDBRANCH   1  11
BRANCH   3  14
ATOM     14  C   UNL     1       6.199   4.465  14.615  0.00  0.00    +0.000 C 
ATOM     15  F   UNL     1       7.216   5.277  14.206  0.00  0.00    +0.000 F 
ATOM     16  F   UNL     1       6.793   3.308  15.030  0.00  0.00    +0.000 F 
ATOM     17  F   UNL     1       5.517   4.131  13.481  0.00  0.00    +0.000 F 
ENDBRANCH   3  14
BRANCH   6  18
ATOM     18  C   UNL     1       2.854   6.785  18.714  0.00  0.00    +0.000 C 
BRANCH  18  19
ATOM     19  N   UNL     1       2.110   7.960  18.358  0.00  0.00    +0.000 N 
ATOM     20  C   UNL     1       1.551   8.754  19.328  0.00  0.00    +0.000 C 
ATOM     21  O   UNL     1       1.573   8.461  20.521  0.00  0.00    +0.000 OA
ATOM     22  H   UNL     1       2.137   8.264  17.393  0.00  0.00    +0.000 HD
BRANCH  20  23
ATOM     23  C   UNL     1       0.913  10.021  18.785  0.00  0.00    +0.000 C 
ATOM     24  C   UNL     1      -0.273   9.622  17.905  0.00  0.00    +0.000 C 
BRANCH  23  25
ATOM     25  C   UNL     1       0.498  10.963  19.905  0.00  0.00    +0.000 A 
ATOM     26  C   UNL     1      -0.709  10.787  20.600  0.00  0.00    +0.000 A 
ATOM     27  C   UNL     1      -1.113  11.695  21.587  0.00  0.00    +0.000 A 
ATOM     28  C   UNL     1      -0.303  12.774  21.938  0.00  0.00    +0.000 A 
ATOM     29  C   UNL     1       0.890  12.956  21.227  0.00  0.00    +0.000 A 
ATOM     30  F   UNL     1       1.668  14.015  21.504  0.00  0.00    +0.000 F 
ATOM     31  C   UNL     1       1.302  12.062  20.240  0.00  0.00    +0.000 A 
BRANCH  28  32
ATOM     32  N   UNL     1      -0.789  13.768  22.803  0.00  0.00    +0.000 N 
ATOM     33  H   UNL     1      -0.258  14.631  22.796  0.00  0.00    +0.000 HD
ATOM     34  H   UNL     1      -1.793  13.913  22.711  0.00  0.00    +0.000 HD
ENDBRANCH  28  32
ENDBRANCH  23  25
ENDBRANCH  20  23
ENDBRANCH  18  19
ENDBRANCH   6  18
TORSDOF 7
ENDMDL
MODEL 8
REMARK VINA RESULT:      -8.3      1.830      2.359
REMARK  Name = 
REMARK  9 active torsions:
REMARK  status: ('A' for Active; 'I' for Inactive)
REMARK    1  A    between atoms: C_1  and  C_2
REMARK    2  A    between atoms: N_5  and  C_6
REMARK    3  A    between atoms: C_8  and  C_9
REMARK    4  A    between atoms: C_15  and  C_16
REMARK    5  A    between atoms: C_16  and  N_17
REMARK    6  A    between atoms: C_18  and  C_20
REMARK    7  A    between atoms: C_20  and  C_21
REMARK    8  A    between atoms: C_20  and  C_22
REMARK    9  A    between atoms: C_25  and  N_26
REMARK                            x       y       z     vdW  Elec       q    Type
REMARK                         _______ _______ _______ _____ _____    ______ ____
ROOT
ATOM      1  C   UNL     1       3.832   4.786  17.498  0.00  0.00    +0.000 A 
ATOM      2  N   UNL     1       4.749   4.263  16.649  0.00  0.00    +0.000 NA
ATOM      3  C   UNL     1       5.526   5.101  15.892  0.00  0.00    +0.000 A 
ATOM      4  C   UNL     1       5.417   6.481  15.974  0.00  0.00    +0.000 A 
ATOM      5  C   UNL     1       4.497   7.021  16.857  0.00  0.00    +0.000 A 
ATOM      6  C   UNL     1       3.712   6.179  17.658  0.00  0.00    +0.000 A 
ENDROOT
BRANCH   1  11
ATOM      7  C   UNL     1       1.281   2.769  21.873  0.00  0.00    +0.000 C 
ATOM      8  C   UNL     1       1.683   2.655  20.402  0.00  0.00    +0.000 C 
ATOM      9  C   UNL     1       3.223   2.614  20.266  0.00  0.00    +0.000 C 
ATOM     10  C   UNL     1       3.686   2.714  18.802  0.00  0.00    +0.000 C 
ATOM     11  N   UNL     1       3.078   3.918  18.264  0.00  0.00    +0.000 N 
ATOM     12  C   UNL     1       1.620   3.864  18.171  0.00  0.00    +0.000 C 
ATOM     13  C   UNL     1       1.064   3.811  19.600  0.00  0.00    +0.000 C 
ENDBRANCH   1  11
BRANCH   3  14
ATOM     14  C   UNL     1       6.550   4.528  14.921  0.00  0.00    +0.000 C 
ATOM     15  F   UNL     1       6.213   3.319  14.385  0.00  0.00    +0.000 F 
ATOM     16  F   UNL     1       6.778   5.354  13.858  0.00  0.00    +0.000 F 
ATOM     17  F   UNL     1       7.771   4.345  15.502  0.00  0.00    +0.000 F 
ENDBRANCH   3  14
BRANCH   6  18
ATOM     18  C   UNL     1       2.752   6.748  18.666  0.00  0.00    +0.000 C 
BRANCH  18  19
ATOM     19  N   UNL     1       2.010   7.897  18.231  0.00  0.00    +0.000 N 
ATOM     20  C   UNL     1       1.499   8.785  19.146  0.00  0.00    +0.000 C 
ATOM     21  O   UNL     1       1.562   8.601  20.358  0.00  0.00    +0.000 OA
ATOM     22  H   UNL     1       2.004   8.113  17.243  0.00  0.00    +0.000 HD
BRANCH  20  23
ATOM     23  C   UNL     1       0.855  10.007  18.513  0.00  0.00    +0.000 C 
ATOM     24  C   UNL     1      -0.361   9.549  17.708  0.00  0.00    +0.000 C 
BRANCH  23  25
ATOM     25  C   UNL     1       0.485  11.049  19.559  0.00  0.00    +0.000 A 
ATOM     26  C   UNL     1       1.382  12.062  19.933  0.00  0.00    +0.000 A 
ATOM     27  C   UNL     1       1.058  12.978  20.942  0.00  0.00    +0.000 A 
ATOM     28  C   UNL     1      -0.186  12.936  21.570  0.00  0.00    +0.000 A 
ATOM     29  C   UNL     1      -1.068  11.910  21.208  0.00  0.00    +0.000 A 
ATOM     30  F   UNL     1      -2.254  11.809  21.831  0.00  0.00    +0.000 F 
ATOM     31  C   UNL     1      -0.756  10.989  20.208  0.00  0.00    +0.000 A 
BRANCH  28  32
ATOM     32  N   UNL     1      -0.437  13.746  22.690  0.00  0.00    +0.000 N 
ATOM     33  H   UNL     1      -0.963  13.293  23.429  0.00  0.00    +0.000 HD
ATOM     34  H   UNL     1       0.398  14.223  23.024  0.00  0.00    +0.000 HD
ENDBRANCH  28  32
ENDBRANCH  23  25
ENDBRANCH  20  23
ENDBRANCH  18  19
ENDBRANCH   6  18
TORSDOF 7
ENDMDL
MODEL 9
REMARK VINA RESULT:      -8.3      2.509      4.363
REMARK  Name = 
REMARK  9 active torsions:
REMARK  status: ('A' for Active; 'I' for Inactive)
REMARK    1  A    between atoms: C_1  and  C_2
REMARK    2  A    between atoms: N_5  and  C_6
REMARK    3  A    between atoms: C_8  and  C_9
REMARK    4  A    between atoms: C_15  and  C_16
REMARK    5  A    between atoms: C_16  and  N_17
REMARK    6  A    between atoms: C_18  and  C_20
REMARK    7  A    between atoms: C_20  and  C_21
REMARK    8  A    between atoms: C_20  and  C_22
REMARK    9  A    between atoms: C_25  and  N_26
REMARK                            x       y       z     vdW  Elec       q    Type
REMARK                         _______ _______ _______ _____ _____    ______ ____
ROOT
ATOM      1  C   UNL     1       4.496   5.216  18.187  0.00  0.00    +0.000 A 
ATOM      2  N   UNL     1       4.538   3.864  18.257  0.00  0.00    +0.000 NA
ATOM      3  C   UNL     1       3.412   3.169  18.615  0.00  0.00    +0.000 A 
ATOM      4  C   UNL     1       2.213   3.806  18.898  0.00  0.00    +0.000 A 
ATOM      5  C   UNL     1       2.158   5.186  18.805  0.00  0.00    +0.000 A 
ATOM      6  C   UNL     1       3.294   5.910  18.416  0.00  0.00    +0.000 A 
ENDROOT
BRANCH   1  11
ATOM      7  C   UNL     1       8.384   9.038  18.164  0.00  0.00    +0.000 C 
ATOM      8  C   UNL     1       7.773   7.763  17.580  0.00  0.00    +0.000 C 
ATOM      9  C   UNL     1       6.351   8.044  17.042  0.00  0.00    +0.000 C 
ATOM     10  C   UNL     1       5.611   6.756  16.638  0.00  0.00    +0.000 C 
ATOM     11  N   UNL     1       5.640   5.889  17.803  0.00  0.00    +0.000 N 
ATOM     12  C   UNL     1       6.976   5.427  18.174  0.00  0.00    +0.000 C 
ATOM     13  C   UNL     1       7.779   6.649  18.640  0.00  0.00    +0.000 C 
ENDBRANCH   1  11
BRANCH   3  14
ATOM     14  C   UNL     1       3.449   1.650  18.714  0.00  0.00    +0.000 C 
ATOM     15  F   UNL     1       3.765   1.010  17.551  0.00  0.00    +0.000 F 
ATOM     16  F   UNL     1       4.354   1.210  19.636  0.00  0.00    +0.000 F 
ATOM     17  F   UNL     1       2.252   1.126  19.108  0.00  0.00    +0.000 F 
ENDBRANCH   3  14
BRANCH   6  18
ATOM     18  C   UNL     1       3.236   7.405  18.251  0.00  0.00    +0.000 C 
BRANCH  18  19
ATOM     19  N   UNL     1       2.227   8.073  19.023  0.00  0.00    +0.000 N 
ATOM     20  C   UNL     1       1.608   9.199  18.538  0.00  0.00    +0.000 C 
ATOM     21  O   UNL     1       1.942   9.741  17.488  0.00  0.00    +0.000 OA
ATOM     22  H   UNL     1       1.882   7.611  19.854  0.00  0.00    +0.000 HD
BRANCH  20  23
ATOM     23  C   UNL     1       0.480   9.701  19.423  0.00  0.00    +0.000 C 
ATOM     24  C   UNL     1       1.058  10.712  20.414  0.00  0.00    +0.000 C 
BRANCH  23  25
ATOM     25  C   UNL     1      -0.653  10.297  18.599  0.00  0.00    +0.000 A 
ATOM     26  C   UNL     1      -1.252  11.516  18.953  0.00  0.00    +0.000 A 
ATOM     27  C   UNL     1      -2.335  12.026  18.226  0.00  0.00    +0.000 A 
ATOM     28  C   UNL     1      -2.818  11.357  17.102  0.00  0.00    +0.000 A 
ATOM     29  C   UNL     1      -2.230  10.131  16.766  0.00  0.00    +0.000 A 
ATOM     30  F   UNL     1      -2.705   9.435  15.721  0.00  0.00    +0.000 F 
ATOM     31  C   UNL     1      -1.153   9.610  17.484  0.00  0.00    +0.000 A 
BRANCH  28  32
ATOM     32  N   UNL     1      -4.004  11.785  16.483  0.00  0.00    +0.000 N 
ATOM     33  H   UNL     1      -3.867  12.378  15.672  0.00  0.00    +0.000 HD
ATOM     34  H   UNL     1      -4.659  11.023  16.319  0.00  0.00    +0.000 HD
ENDBRANCH  28  32
ENDBRANCH  23  25
ENDBRANCH  20  23
ENDBRANCH  18  19
ENDBRANCH   6  18
TORSDOF 7
ENDMDL
