MODEL 1
REMARK VINA RESULT:      -7.3      0.000      0.000
REMARK  Name = 
REMARK  4 active torsions:
REMARK  status: ('A' for Active; 'I' for Inactive)
REMARK    1  A    between atoms: C_1  and  C_2
REMARK    2  A    between atoms: C_5  and  C_6
REMARK    3  A    between atoms: C_11  and  C_12
REMARK    4  A    between atoms: C_12  and  N_13
REMARK                            x       y       z     vdW  Elec       q    Type
REMARK                         _______ _______ _______ _____ _____    ______ ____
ROOT
ATOM      1  C   UNL     1       2.102   8.881  17.754  0.00  0.00    +0.000 C 
ATOM      2  C   UNL     1       2.562   7.775  18.373  0.00  0.00    +0.000 C 
ATOM      3  C   UNL     1       1.938   7.200  19.613  0.00  0.00    +0.000 C 
ATOM      4  C   UNL     1       2.234   5.722  19.813  0.00  0.00    +0.000 C 
ATOM      5  C   UNL     1       3.734   5.492  19.744  0.00  0.00    +0.000 C 
ATOM      6  C   UNL     1       4.299   5.792  18.352  0.00  0.00    +0.000 C 
ATOM      7  C   UNL     1       3.766   7.100  17.762  0.00  0.00    +0.000 C 
ATOM      8  O   UNL     1       4.308   7.580  16.763  0.00  0.00    +0.000 OA
ENDROOT
BRANCH   1  13
ATOM      9  C   UNL     1      -2.421  12.085  19.403  0.00  0.00    +0.000 C 
ATOM     10  C   UNL     1      -1.248  11.234  19.018  0.00  0.00    +0.000 A 
ATOM     11  C   UNL     1       0.013  11.436  19.592  0.00  0.00    +0.000 A 
ATOM     12  C   UNL     1       1.107  10.662  19.192  0.00  0.00    +0.000 A 
ATOM     13  C   UNL     1       0.956   9.679  18.206  0.00  0.00    +0.000 A 
ATOM     14  C   UNL     1      -0.302   9.468  17.641  0.00  0.00    +0.000 A 
ATOM     15  C   UNL     1      -1.398  10.238  18.044  0.00  0.00    +0.000 A 
ENDBRANCH   1  13
BRANCH   6  16
ATOM     16  C   UNL     1       4.072   4.659  17.314  0.00  0.00    +0.000 C 
BRANCH  16  17
ATOM     17  N   UNL     1       5.306   3.974  16.891  0.00  0.00    +0.000 NA
ATOM     18  C   UNL     1       6.547   4.491  17.509  0.00  0.00    +0.000 C 
ATOM     19  C   UNL     1       7.210   5.693  16.805  0.00  0.00    +0.000 C 
ATOM     20  O   UNL     1       7.358   5.477  15.398  0.00  0.00    +0.000 OA
ATOM     21  C   UNL     1       6.081   5.207  14.811  0.00  0.00    +0.000 C 
ATOM     22  C   UNL     1       5.464   3.940  15.421  0.00  0.00    +0.000 C 
ENDBRANCH  16  17
ENDBRANCH   6  16
TORSDOF 3
ENDMDL
MODEL 2
REMARK VINA RESULT:      -7.3      0.083      1.031
REMARK  Name = 
REMARK  4 active torsions:
REMARK  status: ('A' for Active; 'I' for Inactive)
REMARK    1  A    between atoms: C_1  and  C_2
REMARK    2  A    between atoms: C_5  and  C_6
REMARK    3  A    between atoms: C_11  and  C_12
REMARK    4  A    between atoms: C_12  and  N_13
REMARK                            x       y       z     vdW  Elec       q    Type
REMARK                         _______ _______ _______ _____ _____    ______ ____
ROOT
ATOM      1  C   UNL     1       2.150   8.915  17.768  0.00  0.00    +0.000 C 
ATOM      2  C   UNL     1       2.586   7.801  18.391  0.00  0.00    +0.000 C 
ATOM      3  C   UNL     1       1.939   7.235  19.623  0.00  0.00    +0.000 C 
ATOM      4  C   UNL     1       2.210   5.752  19.825  0.00  0.00    +0.000 C 
ATOM      5  C   UNL     1       3.708   5.500  19.774  0.00  0.00    +0.000 C 
ATOM      6  C   UNL     1       4.294   5.792  18.389  0.00  0.00    +0.000 C 
ATOM      7  C   UNL     1       3.787   7.109  17.794  0.00  0.00    +0.000 C 
ATOM      8  O   UNL     1       4.349   7.581  16.802  0.00  0.00    +0.000 OA
ENDROOT
BRANCH   1  13
ATOM      9  C   UNL     1      -2.327  12.068  19.627  0.00  0.00    +0.000 C 
ATOM     10  C   UNL     1      -1.170  11.272  19.103  0.00  0.00    +0.000 A 
ATOM     11  C   UNL     1      -1.355  10.272  18.141  0.00  0.00    +0.000 A 
ATOM     12  C   UNL     1      -0.273   9.509  17.691  0.00  0.00    +0.000 A 
ATOM     13  C   UNL     1       1.011   9.730  18.207  0.00  0.00    +0.000 A 
ATOM     14  C   UNL     1       1.200  10.733  19.158  0.00  0.00    +0.000 A 
ATOM     15  C   UNL     1       0.119  11.500  19.603  0.00  0.00    +0.000 A 
ENDBRANCH   1  13
BRANCH   6  16
ATOM     16  C   UNL     1       4.063   4.664  17.348  0.00  0.00    +0.000 C 
BRANCH  16  17
ATOM     17  N   UNL     1       5.294   3.976  16.922  0.00  0.00    +0.000 NA
ATOM     18  C   UNL     1       6.538   4.493  17.534  0.00  0.00    +0.000 C 
ATOM     19  C   UNL     1       7.200   5.692  16.825  0.00  0.00    +0.000 C 
ATOM     20  O   UNL     1       7.343   5.472  15.418  0.00  0.00    +0.000 OA
ATOM     21  C   UNL     1       6.064   5.202  14.836  0.00  0.00    +0.000 C 
ATOM     22  C   UNL     1       5.447   3.938  15.452  0.00  0.00    +0.000 C 
ENDBRANCH  16  17
ENDBRANCH   6  16
TORSDOF 3
ENDMDL
MODEL 3
REMARK VINA RESULT:      -7.3      4.566      7.156
REMARK  Name = 
REMARK  4 active torsions:
REMARK  status: ('A' for Active; 'I' for Inactive)
REMARK    1  A    between atoms: C_1  and  C_2
REMARK    2  A    between atoms: C_5  and  C_6
REMARK    3  A    between atoms: C_11  and  C_12
REMARK    4  A    between atoms: C_12  and  N_13
REMARK                            x       y       z     vdW  Elec       q    Type
REMARK                         _______ _______ _______ _____ _____    ______ ____
ROOT
ATOM      1  C   UNL     1       7.781   8.993  17.624  0.00  0.00    +0.000 C 
ATOM      2  C   UNL     1       7.645   7.677  17.884  0.00  0.00    +0.000 C 
ATOM      3  C   UNL     1       8.471   6.945  18.903  0.00  0.00    +0.000 C 
ATOM      4  C   UNL     1       7.814   5.675  19.421  0.00  0.00    +0.000 C 
ATOM      5  C   UNL     1       7.412   4.799  18.246  0.00  0.00    +0.000 C 
ATOM      6  C   UNL     1       6.321   5.451  17.389  0.00  0.00    +0.000 C 
ATOM      7  C   UNL     1       6.599   6.928  17.095  0.00  0.00    +0.000 C 
ATOM      8  O   UNL     1       5.936   7.509  16.232  0.00  0.00    +0.000 OA
ENDROOT
BRANCH   1  13
ATOM      9  C   UNL     1      11.708  12.415  20.136  0.00  0.00    +0.000 C 
ATOM     10  C   UNL     1      10.655  11.555  19.502  0.00  0.00    +0.000 A 
ATOM     11  C   UNL     1       9.812  10.752  20.279  0.00  0.00    +0.000 A 
ATOM     12  C   UNL     1       8.863   9.924  19.672  0.00  0.00    +0.000 A 
ATOM     13  C   UNL     1       8.750   9.881  18.276  0.00  0.00    +0.000 A 
ATOM     14  C   UNL     1       9.582  10.689  17.500  0.00  0.00    +0.000 A 
ATOM     15  C   UNL     1      10.528  11.522  18.108  0.00  0.00    +0.000 A 
ENDBRANCH   1  13
BRANCH   6  16
ATOM     16  C   UNL     1       4.890   5.329  17.978  0.00  0.00    +0.000 C 
BRANCH  16  17
ATOM     17  N   UNL     1       4.392   3.946  18.070  0.00  0.00    +0.000 NA
ATOM     18  C   UNL     1       3.211   3.653  17.228  0.00  0.00    +0.000 C 
ATOM     19  C   UNL     1       1.836   3.977  17.846  0.00  0.00    +0.000 C 
ATOM     20  O   UNL     1       1.701   3.445  19.167  0.00  0.00    +0.000 OA
ATOM     21  C   UNL     1       2.746   3.949  20.004  0.00  0.00    +0.000 C 
ATOM     22  C   UNL     1       4.121   3.528  19.462  0.00  0.00    +0.000 C 
ENDBRANCH  16  17
ENDBRANCH   6  16
TORSDOF 3
ENDMDL
MODEL 4
REMARK VINA RESULT:      -7.2      4.561      7.146
REMARK  Name = 
REMARK  4 active torsions:
REMARK  status: ('A' for Active; 'I' for Inactive)
REMARK    1  A    between atoms: C_1  and  C_2
REMARK    2  A    between atoms: C_5  and  C_6
REMARK    3  A    between atoms: C_11  and  C_12
REMARK    4  A    between atoms: C_12  and  N_13
REMARK                            x       y       z     vdW  Elec       q    Type
REMARK                         _______ _______ _______ _____ _____    ______ ____
ROOT
ATOM      1  C   UNL     1       7.786   8.976  17.621  0.00  0.00    +0.000 C 
ATOM      2  C   UNL     1       7.648   7.661  17.883  0.00  0.00    +0.000 C 
ATOM      3  C   UNL     1       8.472   6.929  18.904  0.00  0.00    +0.000 C 
ATOM      4  C   UNL     1       7.812   5.661  19.422  0.00  0.00    +0.000 C 
ATOM      5  C   UNL     1       7.409   4.784  18.249  0.00  0.00    +0.000 C 
ATOM      6  C   UNL     1       6.321   5.437  17.390  0.00  0.00    +0.000 C 
ATOM      7  C   UNL     1       6.601   6.913  17.094  0.00  0.00    +0.000 C 
ATOM      8  O   UNL     1       5.940   7.493  16.230  0.00  0.00    +0.000 OA
ENDROOT
BRANCH   1  13
ATOM      9  C   UNL     1      11.503  12.548  20.244  0.00  0.00    +0.000 C 
ATOM     10  C   UNL     1      10.576  11.596  19.548  0.00  0.00    +0.000 A 
ATOM     11  C   UNL     1      10.499  11.551  18.151  0.00  0.00    +0.000 A 
ATOM     12  C   UNL     1       9.599  10.689  17.516  0.00  0.00    +0.000 A 
ATOM     13  C   UNL     1       8.758   9.864  18.273  0.00  0.00    +0.000 A 
ATOM     14  C   UNL     1       8.841   9.898  19.665  0.00  0.00    +0.000 A 
ATOM     15  C   UNL     1       9.744  10.756  20.300  0.00  0.00    +0.000 A 
ENDBRANCH   1  13
BRANCH   6  16
ATOM     16  C   UNL     1       4.889   5.319  17.978  0.00  0.00    +0.000 C 
BRANCH  16  17
ATOM     17  N   UNL     1       4.382   3.937  18.058  0.00  0.00    +0.000 NA
ATOM     18  C   UNL     1       3.188   3.664  17.228  0.00  0.00    +0.000 C 
ATOM     19  C   UNL     1       1.823   3.990  17.868  0.00  0.00    +0.000 C 
ATOM     20  O   UNL     1       1.702   3.440  19.184  0.00  0.00    +0.000 OA
ATOM     21  C   UNL     1       2.762   3.926  20.014  0.00  0.00    +0.000 C 
ATOM     22  C   UNL     1       4.126   3.503  19.448  0.00  0.00    +0.000 C 
ENDBRANCH  16  17
ENDBRANCH   6  16
TORSDOF 3
ENDMDL
MODEL 5
REMARK VINA RESULT:      -7.0      3.718      8.136
REMARK  Name = 
REMARK  4 active torsions:
REMARK  status: ('A' for Active; 'I' for Inactive)
REMARK    1  A    between atoms: C_1  and  C_2
REMARK    2  A    between atoms: C_5  and  C_6
REMARK    3  A    between atoms: C_11  and  C_12
REMARK    4  A    between atoms: C_12  and  N_13
REMARK                            x       y       z     vdW  Elec       q    Type
REMARK                         _______ _______ _______ _____ _____    ______ ____
ROOT
ATOM      1  C   UNL     1       1.928   6.186  20.443  0.00  0.00    +0.000 C 
ATOM      2  C   UNL     1       1.849   7.344  19.757  0.00  0.00    +0.000 C 
ATOM      3  C   UNL     1       2.284   7.490  18.327  0.00  0.00    +0.000 C 
ATOM      4  C   UNL     1       1.622   8.654  17.606  0.00  0.00    +0.000 C 
ATOM      5  C   UNL     1       1.814   9.926  18.415  0.00  0.00    +0.000 C 
ATOM      6  C   UNL     1       1.083   9.867  19.760  0.00  0.00    +0.000 C 
ATOM      7  C   UNL     1       1.287   8.537  20.492  0.00  0.00    +0.000 C 
ATOM      8  O   UNL     1       0.956   8.440  21.676  0.00  0.00    +0.000 OA
ENDROOT
BRANCH   1  13
ATOM      9  C   UNL     1       3.972   1.159  18.443  0.00  0.00    +0.000 C 
ATOM     10  C   UNL     1       3.455   2.483  18.921  0.00  0.00    +0.000 A 
ATOM     11  C   UNL     1       4.328   3.532  19.234  0.00  0.00    +0.000 A 
ATOM     12  C   UNL     1       3.835   4.747  19.719  0.00  0.00    +0.000 A 
ATOM     13  C   UNL     1       2.458   4.927  19.906  0.00  0.00    +0.000 A 
ATOM     14  C   UNL     1       1.585   3.888  19.584  0.00  0.00    +0.000 A 
ATOM     15  C   UNL     1       2.078   2.674  19.094  0.00  0.00    +0.000 A 
ENDBRANCH   1  13
BRANCH   6  16
ATOM     16  C   UNL     1      -0.442  10.147  19.670  0.00  0.00    +0.000 C 
BRANCH  16  17
ATOM     17  N   UNL     1      -0.837  10.957  18.505  0.00  0.00    +0.000 NA
ATOM     18  C   UNL     1      -1.572  12.199  18.832  0.00  0.00    +0.000 C 
ATOM     19  C   UNL     1      -3.099  12.063  19.005  0.00  0.00    +0.000 C 
ATOM     20  O   UNL     1      -3.701  11.350  17.920  0.00  0.00    +0.000 OA
ATOM     21  C   UNL     1      -3.104  10.056  17.797  0.00  0.00    +0.000 C 
ATOM     22  C   UNL     1      -1.601  10.181  17.504  0.00  0.00    +0.000 C 
ENDBRANCH  16  17
ENDBRANCH   6  16
TORSDOF 3
ENDMDL
MODEL 6
REMARK VINA RESULT:      -6.9      3.781      8.239
REMARK  Name = 
REMARK  4 active torsions:
REMARK  status: ('A' for Active; 'I' for Inactive)
REMARK    1  A    between atoms: C_1  and  C_2
REMARK    2  A    between atoms: C_5  and  C_6
REMARK    3  A    between atoms: C_11  and  C_12
REMARK    4  A    between atoms: C_12  and  N_13
REMARK                            x       y       z     vdW  Elec       q    Type
REMARK                         _______ _______ _______ _____ _____    ______ ____
ROOT
ATOM      1  C   UNL     1       1.848   6.267  20.600  0.00  0.00    +0.000 C 
ATOM      2  C   UNL     1       1.776   7.411  19.888  0.00  0.00    +0.000 C 
ATOM      3  C   UNL     1       2.194   7.518  18.450  0.00  0.00    +0.000 C 
ATOM      4  C   UNL     1       1.539   8.674  17.711  0.00  0.00    +0.000 C 
ATOM      5  C   UNL     1       1.759   9.961  18.488  0.00  0.00    +0.000 C 
ATOM      6  C   UNL     1       1.044   9.944  19.844  0.00  0.00    +0.000 C 
ATOM      7  C   UNL     1       1.239   8.628  20.602  0.00  0.00    +0.000 C 
ATOM      8  O   UNL     1       0.923   8.562  21.793  0.00  0.00    +0.000 OA
ENDROOT
BRANCH   1  13
ATOM      9  C   UNL     1       3.872   1.297  18.444  0.00  0.00    +0.000 C 
ATOM     10  C   UNL     1       3.340   2.564  19.045  0.00  0.00    +0.000 A 
ATOM     11  C   UNL     1       1.985   2.699  19.369  0.00  0.00    +0.000 A 
ATOM     12  C   UNL     1       1.495   3.901  19.889  0.00  0.00    +0.000 A 
ATOM     13  C   UNL     1       2.354   4.990  20.084  0.00  0.00    +0.000 A 
ATOM     14  C   UNL     1       3.708   4.854  19.772  0.00  0.00    +0.000 A 
ATOM     15  C   UNL     1       4.199   3.651  19.257  0.00  0.00    +0.000 A 
ENDBRANCH   1  13
BRANCH   6  16
ATOM     16  C   UNL     1      -0.477  10.243  19.766  0.00  0.00    +0.000 C 
BRANCH  16  17
ATOM     17  N   UNL     1      -0.855  11.167  18.684  0.00  0.00    +0.000 NA
ATOM     18  C   UNL     1      -1.568  12.386  19.127  0.00  0.00    +0.000 C 
ATOM     19  C   UNL     1      -3.097  12.263  19.285  0.00  0.00    +0.000 C 
ATOM     20  O   UNL     1      -3.709  11.668  18.137  0.00  0.00    +0.000 OA
ATOM     21  C   UNL     1      -3.136  10.381  17.891  0.00  0.00    +0.000 C 
ATOM     22  C   UNL     1      -1.631  10.505  17.612  0.00  0.00    +0.000 C 
ENDBRANCH  16  17
ENDBRANCH   6  16
TORSDOF 3
ENDMDL
MODEL 7
REMARK VINA RESULT:      -6.7      2.246      2.973
REMARK  Name = 
REMARK  4 active torsions:
REMARK  status: ('A' for Active; 'I' for Inactive)
REMARK    1  A    between atoms: C_1  and  C_2
REMARK    2  A    between atoms: C_5  and  C_6
REMARK    3  A    between atoms: C_11  and  C_12
REMARK    4  A    between atoms: C_12  and  N_13
REMARK                            x       y       z     vdW  Elec       q    Type
REMARK                         _______ _______ _______ _____ _____    ______ ____
ROOT
ATOM      1  C   UNL     1       1.231   8.102  21.270  0.00  0.00    +0.000 C 
ATOM      2  C   UNL     1       1.695   7.878  20.024  0.00  0.00    +0.000 C 
ATOM      3  C   UNL     1       1.598   8.883  18.912  0.00  0.00    +0.000 C 
ATOM      4  C   UNL     1       2.626   8.673  17.812  0.00  0.00    +0.000 C 
ATOM      5  C   UNL     1       2.554   7.238  17.319  0.00  0.00    +0.000 C 
ATOM      6  C   UNL     1       2.970   6.236  18.402  0.00  0.00    +0.000 C 
ATOM      7  C   UNL     1       2.341   6.539  19.765  0.00  0.00    +0.000 C 
ATOM      8  O   UNL     1       2.398   5.691  20.659  0.00  0.00    +0.000 OA
ENDROOT
BRANCH   1  13
ATOM      9  C   UNL     1      -1.534  12.897  22.946  0.00  0.00    +0.000 C 
ATOM     10  C   UNL     1      -0.777  11.671  22.529  0.00  0.00    +0.000 A 
ATOM     11  C   UNL     1       0.165  11.718  21.495  0.00  0.00    +0.000 A 
ATOM     12  C   UNL     1       0.833  10.559  21.088  0.00  0.00    +0.000 A 
ATOM     13  C   UNL     1       0.561   9.332  21.707  0.00  0.00    +0.000 A 
ATOM     14  C   UNL     1      -0.370   9.285  22.746  0.00  0.00    +0.000 A 
ATOM     15  C   UNL     1      -1.033  10.445  23.156  0.00  0.00    +0.000 A 
ENDBRANCH   1  13
BRANCH   6  16
ATOM     16  C   UNL     1       4.505   6.101  18.590  0.00  0.00    +0.000 C 
BRANCH  16  17
ATOM     17  N   UNL     1       5.010   4.724  18.450  0.00  0.00    +0.000 NA
ATOM     18  C   UNL     1       6.479   4.612  18.315  0.00  0.00    +0.000 C 
ATOM     19  C   UNL     1       7.046   4.753  16.888  0.00  0.00    +0.000 C 
ATOM     20  O   UNL     1       6.354   3.922  15.951  0.00  0.00    +0.000 OA
ATOM     21  C   UNL     1       4.958   4.238  15.958  0.00  0.00    +0.000 C 
ATOM     22  C   UNL     1       4.356   3.986  17.348  0.00  0.00    +0.000 C 
ENDBRANCH  16  17
ENDBRANCH   6  16
TORSDOF 3
ENDMDL
MODEL 8
REMARK VINA RESULT:      -6.6      1.521      2.431
REMARK  Name = 
REMARK  4 active torsions:
REMARK  status: ('A' for Active; 'I' for Inactive)
REMARK    1  A    between atoms: C_1  and  C_2
REMARK    2  A    between atoms: C_5  and  C_6
REMARK    3  A    between atoms: C_11  and  C_12
REMARK    4  A    between atoms: C_12  and  N_13
REMARK                            x       y       z     vdW  Elec       q    Type
REMARK                         _______ _______ _______ _____ _____    ______ ____
ROOT
ATOM      1  C   UNL     1       2.984   7.133  19.457  0.00  0.00    +0.000 C 
ATOM      2  C   UNL     1       2.877   5.887  18.950  0.00  0.00    +0.000 C 
ATOM      3  C   UNL     1       1.651   5.384  18.244  0.00  0.00    +0.000 C 
ATOM      4  C   UNL     1       1.926   4.220  17.304  0.00  0.00    +0.000 C 
ATOM      5  C   UNL     1       2.667   3.127  18.055  0.00  0.00    +0.000 C 
ATOM      6  C   UNL     1       4.064   3.577  18.497  0.00  0.00    +0.000 C 
ATOM      7  C   UNL     1       4.070   4.977  19.117  0.00  0.00    +0.000 C 
ATOM      8  O   UNL     1       5.071   5.366  19.724  0.00  0.00    +0.000 OA
ENDROOT
BRANCH   1  13
ATOM      9  C   UNL     1      -1.270  11.046  19.281  0.00  0.00    +0.000 C 
ATOM     10  C   UNL     1      -0.136  10.066  19.321  0.00  0.00    +0.000 A 
ATOM     11  C   UNL     1       0.621   9.787  18.177  0.00  0.00    +0.000 A 
ATOM     12  C   UNL     1       1.649   8.840  18.218  0.00  0.00    +0.000 A 
ATOM     13  C   UNL     1       1.929   8.152  19.406  0.00  0.00    +0.000 A 
ATOM     14  C   UNL     1       1.184   8.437  20.551  0.00  0.00    +0.000 A 
ATOM     15  C   UNL     1       0.160   9.388  20.511  0.00  0.00    +0.000 A 
ENDBRANCH   1  13
BRANCH   6  16
ATOM     16  C   UNL     1       5.132   3.535  17.371  0.00  0.00    +0.000 C 
BRANCH  16  17
ATOM     17  N   UNL     1       5.054   4.662  16.425  0.00  0.00    +0.000 NA
ATOM     18  C   UNL     1       5.102   4.279  14.997  0.00  0.00    +0.000 C 
ATOM     19  C   UNL     1       6.505   4.118  14.380  0.00  0.00    +0.000 C 
ATOM     20  O   UNL     1       7.350   5.236  14.666  0.00  0.00    +0.000 OA
ATOM     21  C   UNL     1       7.454   5.419  16.081  0.00  0.00    +0.000 C 
ATOM     22  C   UNL     1       6.073   5.701  16.691  0.00  0.00    +0.000 C 
ENDBRANCH  16  17
ENDBRANCH   6  16
TORSDOF 3
ENDMDL
MODEL 9
REMARK VINA RESULT:      -6.6      3.850      8.431
REMARK  Name = 
REMARK  4 active torsions:
REMARK  status: ('A' for Active; 'I' for Inactive)
REMARK    1  A    between atoms: C_1  and  C_2
REMARK    2  A    between atoms: C_5  and  C_6
REMARK    3  A    between atoms: C_11  and  C_12
REMARK    4  A    between atoms: C_12  and  N_13
REMARK                            x       y       z     vdW  Elec       q    Type
REMARK                         _______ _______ _______ _____ _____    ______ ____
ROOT
ATOM      1  C   UNL     1       1.854   6.484  20.518  0.00  0.00    +0.000 C 
ATOM      2  C   UNL     1       1.778   7.634  19.818  0.00  0.00    +0.000 C 
ATOM      3  C   UNL     1       2.167   7.749  18.372  0.00  0.00    +0.000 C 
ATOM      4  C   UNL     1       1.507   8.918  17.657  0.00  0.00    +0.000 C 
ATOM      5  C   UNL     1       1.757  10.196  18.440  0.00  0.00    +0.000 C 
ATOM      6  C   UNL     1       1.072  10.174  19.810  0.00  0.00    +0.000 C 
ATOM      7  C   UNL     1       1.270   8.850  20.554  0.00  0.00    +0.000 C 
ATOM      8  O   UNL     1       0.979   8.777  21.750  0.00  0.00    +0.000 OA
ENDROOT
BRANCH   1  13
ATOM      9  C   UNL     1       3.716   1.383  18.526  0.00  0.00    +0.000 C 
ATOM     10  C   UNL     1       3.243   2.725  19.001  0.00  0.00    +0.000 A 
ATOM     11  C   UNL     1       4.144   3.774  19.222  0.00  0.00    +0.000 A 
ATOM     12  C   UNL     1       3.695   5.007  19.705  0.00  0.00    +0.000 A 
ATOM     13  C   UNL     1       2.336   5.205  19.981  0.00  0.00    +0.000 A 
ATOM     14  C   UNL     1       1.434   4.166  19.751  0.00  0.00    +0.000 A 
ATOM     15  C   UNL     1       1.883   2.934  19.263  0.00  0.00    +0.000 A 
ENDBRANCH   1  13
BRANCH   6  16
ATOM     16  C   UNL     1      -0.448  10.489  19.769  0.00  0.00    +0.000 C 
BRANCH  16  17
ATOM     17  N   UNL     1      -0.777  11.785  19.152  0.00  0.00    +0.000 NA
ATOM     18  C   UNL     1      -0.433  12.969  19.970  0.00  0.00    +0.000 C 
ATOM     19  C   UNL     1      -1.488  13.417  21.001  0.00  0.00    +0.000 C 
ATOM     20  O   UNL     1      -2.793  13.523  20.423  0.00  0.00    +0.000 OA
ATOM     21  C   UNL     1      -3.172  12.272  19.844  0.00  0.00    +0.000 C 
ATOM     22  C   UNL     1      -2.192  11.874  18.730  0.00  0.00    +0.000 C 
ENDBRANCH  16  17
ENDBRANCH   6  16
TORSDOF 3
ENDMDL
