MODEL 1
REMARK VINA RESULT:      -8.4      0.000      0.000
REMARK  Name = 
REMARK  8 active torsions:
REMARK  status: ('A' for Active; 'I' for Inactive)
REMARK    1  A    between atoms: C_1  and  C_2
REMARK    2  A    between atoms: C_5  and  C_6
REMARK    3  A    between atoms: C_6  and  C_7
REMARK    4  A    between atoms: N_11  and  C_12
REMARK    5  A    between atoms: C_12  and  C_13
REMARK    6  A    between atoms: N_15  and  C_16
REMARK    7  A    between atoms: C_16  and  C_17
REMARK    8  A    between atoms: C_17  and  C_18
REMARK                            x       y       z     vdW  Elec       q    Type
REMARK                         _______ _______ _______ _____ _____    ______ ____
ROOT
ATOM      1  C   UNL     1       3.279   5.528  18.126  0.00  0.00    +0.000 C 
ATOM      2  C   UNL     1       2.450   4.244  18.249  0.00  0.00    +0.000 C 
ATOM      3  N   UNL     1       3.685   5.688  16.744  0.00  0.00    +0.000 N 
ATOM      4  C   UNL     1       4.995   5.328  16.539  0.00  0.00    +0.000 C 
ATOM      5  O   UNL     1       5.487   5.181  15.435  0.00  0.00    +0.000 OA
ATOM      6  N   UNL     1       5.592   5.157  17.746  0.00  0.00    +0.000 N 
ATOM      7  C   UNL     1       4.668   5.238  18.748  0.00  0.00    +0.000 C 
ATOM      8  O   UNL     1       4.898   4.984  19.928  0.00  0.00    +0.000 OA
ATOM      9  H   UNL     1       3.051   5.748  15.959  0.00  0.00    +0.000 HD
ENDROOT
BRANCH   1  14
ATOM     10  C   UNL     1       0.569  10.270  20.275  0.00  0.00    +0.000 C 
ATOM     11  C   UNL     1       1.294   9.072  19.735  0.00  0.00    +0.000 A 
ATOM     12  C   UNL     1       1.736   9.032  18.413  0.00  0.00    +0.000 A 
ATOM     13  C   UNL     1       2.383   7.896  17.909  0.00  0.00    +0.000 A 
ATOM     14  C   UNL     1       2.605   6.762  18.711  0.00  0.00    +0.000 A 
ATOM     15  C   UNL     1       2.173   6.826  20.048  0.00  0.00    +0.000 A 
ATOM     16  C   UNL     1       1.529   7.960  20.553  0.00  0.00    +0.000 A 
ENDBRANCH   1  14
BRANCH   6  17
ATOM     17  C   UNL     1       6.978   4.793  17.925  0.00  0.00    +0.000 C 
BRANCH  17  18
ATOM     18  C   UNL     1       7.721   5.875  18.699  0.00  0.00    +0.000 C 
ATOM     19  O   UNL     1       8.241   5.645  19.791  0.00  0.00    +0.000 OA
ATOM     20  N   UNL     1       7.834   7.105  18.073  0.00  0.00    +0.000 N 
ATOM     21  H   UNL     1       7.486   7.230  17.122  0.00  0.00    +0.000 HD
BRANCH  20  22
ATOM     22  C   UNL     1       8.561   8.159  18.750  0.00  0.00    +0.000 C 
BRANCH  22  23
ATOM     23  C   UNL     1       8.401   9.564  18.164  0.00  0.00    +0.000 C 
BRANCH  23  24
ATOM     24  C   UNL     1       9.408  10.526  18.775  0.00  0.00    +0.000 C 
ATOM     25  C   UNL     1       9.450  10.781  20.097  0.00  0.00    +0.000 C 
ATOM     26  C   UNL     1      10.378  11.783  20.727  0.00  0.00    +0.000 C 
ATOM     27  C   UNL     1      11.039  12.717  19.713  0.00  0.00    +0.000 C 
ATOM     28  C   UNL     1      11.520  11.939  18.495  0.00  0.00    +0.000 C 
ATOM     29  C   UNL     1      10.358  11.214  17.814  0.00  0.00    +0.000 C 
ENDBRANCH  23  24
ENDBRANCH  22  23
ENDBRANCH  20  22
ENDBRANCH  17  18
ENDBRANCH   6  17
TORSDOF 6
ENDMDL
MODEL 2
REMARK VINA RESULT:      -8.3      0.383      1.386
REMARK  Name = 
REMARK  8 active torsions:
REMARK  status: ('A' for Active; 'I' for Inactive)
REMARK    1  A    between atoms: C_1  and  C_2
REMARK    2  A    between atoms: C_5  and  C_6
REMARK    3  A    between atoms: C_6  and  C_7
REMARK    4  A    between atoms: N_11  and  C_12
REMARK    5  A    between atoms: C_12  and  C_13
REMARK    6  A    between atoms: N_15  and  C_16
REMARK    7  A    between atoms: C_16  and  C_17
REMARK    8  A    between atoms: C_17  and  C_18
REMARK                            x       y       z     vdW  Elec       q    Type
REMARK                         _______ _______ _______ _____ _____    ______ ____
ROOT
ATOM      1  C   UNL     1       3.183   5.270  18.409  0.00  0.00    +0.000 C 
ATOM      2  C   UNL     1       2.438   3.994  18.818  0.00  0.00    +0.000 C 
ATOM      3  N   UNL     1       3.417   5.234  16.980  0.00  0.00    +0.000 N 
ATOM      4  C   UNL     1       4.711   4.889  16.672  0.00  0.00    +0.000 C 
ATOM      5  O   UNL     1       5.079   4.593  15.549  0.00  0.00    +0.000 OA
ATOM      6  N   UNL     1       5.451   4.921  17.809  0.00  0.00    +0.000 N 
ATOM      7  C   UNL     1       4.647   5.123  18.894  0.00  0.00    +0.000 C 
ATOM      8  O   UNL     1       5.023   5.057  20.061  0.00  0.00    +0.000 OA
ATOM      9  H   UNL     1       2.695   5.154  16.277  0.00  0.00    +0.000 HD
ENDROOT
BRANCH   1  14
ATOM     10  C   UNL     1       0.733  10.237  20.355  0.00  0.00    +0.000 C 
ATOM     11  C   UNL     1       1.327   8.956  19.847  0.00  0.00    +0.000 A 
ATOM     12  C   UNL     1       1.412   7.827  20.662  0.00  0.00    +0.000 A 
ATOM     13  C   UNL     1       1.997   6.645  20.188  0.00  0.00    +0.000 A 
ATOM     14  C   UNL     1       2.519   6.556  18.885  0.00  0.00    +0.000 A 
ATOM     15  C   UNL     1       2.407   7.696  18.069  0.00  0.00    +0.000 A 
ATOM     16  C   UNL     1       1.820   8.875  18.539  0.00  0.00    +0.000 A 
ENDBRANCH   1  14
BRANCH   6  17
ATOM     17  C   UNL     1       6.865   4.634  17.869  0.00  0.00    +0.000 C 
BRANCH  17  18
ATOM     18  C   UNL     1       7.605   5.737  18.616  0.00  0.00    +0.000 C 
ATOM     19  O   UNL     1       8.082   5.549  19.735  0.00  0.00    +0.000 OA
ATOM     20  N   UNL     1       7.768   6.932  17.935  0.00  0.00    +0.000 N 
ATOM     21  H   UNL     1       7.456   7.017  16.967  0.00  0.00    +0.000 HD
BRANCH  20  22
ATOM     22  C   UNL     1       8.495   8.002  18.585  0.00  0.00    +0.000 C 
BRANCH  22  23
ATOM     23  C   UNL     1       8.191   9.417  18.086  0.00  0.00    +0.000 C 
BRANCH  23  24
ATOM     24  C   UNL     1       9.215  10.411  18.612  0.00  0.00    +0.000 C 
ATOM     25  C   UNL     1      10.012  11.125  17.793  0.00  0.00    +0.000 C 
ATOM     26  C   UNL     1      11.088  12.057  18.277  0.00  0.00    +0.000 C 
ATOM     27  C   UNL     1      11.419  11.883  19.759  0.00  0.00    +0.000 C 
ATOM     28  C   UNL     1      10.145  11.744  20.584  0.00  0.00    +0.000 C 
ATOM     29  C   UNL     1       9.319  10.544  20.118  0.00  0.00    +0.000 C 
ENDBRANCH  23  24
ENDBRANCH  22  23
ENDBRANCH  20  22
ENDBRANCH  17  18
ENDBRANCH   6  17
TORSDOF 6
ENDMDL
MODEL 3
REMARK VINA RESULT:      -8.2      1.025      1.127
REMARK  Name = 
REMARK  8 active torsions:
REMARK  status: ('A' for Active; 'I' for Inactive)
REMARK    1  A    between atoms: C_1  and  C_2
REMARK    2  A    between atoms: C_5  and  C_6
REMARK    3  A    between atoms: C_6  and  C_7
REMARK    4  A    between atoms: N_11  and  C_12
REMARK    5  A    between atoms: C_12  and  C_13
REMARK    6  A    between atoms: N_15  and  C_16
REMARK    7  A    between atoms: C_16  and  C_17
REMARK    8  A    between atoms: C_17  and  C_18
REMARK                            x       y       z     vdW  Elec       q    Type
REMARK                         _______ _______ _______ _____ _____    ______ ____
ROOT
ATOM      1  C   UNL     1       3.521   5.689  17.947  0.00  0.00    +0.000 C 
ATOM      2  C   UNL     1       2.940   4.308  17.619  0.00  0.00    +0.000 C 
ATOM      3  N   UNL     1       3.739   6.408  16.707  0.00  0.00    +0.000 N 
ATOM      4  C   UNL     1       5.060   6.412  16.331  0.00  0.00    +0.000 C 
ATOM      5  O   UNL     1       5.445   6.768  15.232  0.00  0.00    +0.000 OA
ATOM      6  N   UNL     1       5.807   5.945  17.363  0.00  0.00    +0.000 N 
ATOM      7  C   UNL     1       4.999   5.479  18.361  0.00  0.00    +0.000 C 
ATOM      8  O   UNL     1       5.397   4.874  19.353  0.00  0.00    +0.000 OA
ATOM      9  H   UNL     1       3.021   6.616  16.026  0.00  0.00    +0.000 HD
ENDROOT
BRANCH   1  14
ATOM     10  C   UNL     1       0.311   8.745  21.795  0.00  0.00    +0.000 C 
ATOM     11  C   UNL     1       1.162   7.974  20.829  0.00  0.00    +0.000 A 
ATOM     12  C   UNL     1       1.672   8.575  19.677  0.00  0.00    +0.000 A 
ATOM     13  C   UNL     1       2.438   7.837  18.765  0.00  0.00    +0.000 A 
ATOM     14  C   UNL     1       2.715   6.475  18.973  0.00  0.00    +0.000 A 
ATOM     15  C   UNL     1       2.212   5.888  20.150  0.00  0.00    +0.000 A 
ATOM     16  C   UNL     1       1.450   6.624  21.062  0.00  0.00    +0.000 A 
ENDBRANCH   1  14
BRANCH   6  17
ATOM     17  C   UNL     1       7.246   5.825  17.340  0.00  0.00    +0.000 C 
BRANCH  17  18
ATOM     18  C   UNL     1       7.886   6.861  18.255  0.00  0.00    +0.000 C 
ATOM     19  O   UNL     1       8.335   6.555  19.359  0.00  0.00    +0.000 OA
ATOM     20  N   UNL     1       7.994   8.143  17.744  0.00  0.00    +0.000 N 
ATOM     21  H   UNL     1       7.711   8.337  16.783  0.00  0.00    +0.000 HD
BRANCH  20  22
ATOM     22  C   UNL     1       8.627   9.159  18.559  0.00  0.00    +0.000 C 
BRANCH  22  23
ATOM     23  C   UNL     1       8.655  10.570  17.967  0.00  0.00    +0.000 C 
BRANCH  23  24
ATOM     24  C   UNL     1       9.886  11.332  18.434  0.00  0.00    +0.000 C 
ATOM     25  C   UNL     1      10.384  11.201  19.678  0.00  0.00    +0.000 C 
ATOM     26  C   UNL     1      11.551  11.996  20.199  0.00  0.00    +0.000 C 
ATOM     27  C   UNL     1      11.915  13.187  19.315  0.00  0.00    +0.000 C 
ATOM     28  C   UNL     1      11.898  12.794  17.843  0.00  0.00    +0.000 C 
ATOM     29  C   UNL     1      10.518  12.277  17.432  0.00  0.00    +0.000 C 
ENDBRANCH  23  24
ENDBRANCH  22  23
ENDBRANCH  20  22
ENDBRANCH  17  18
ENDBRANCH   6  17
TORSDOF 6
ENDMDL
MODEL 4
REMARK VINA RESULT:      -8.2      2.457      7.187
REMARK  Name = 
REMARK  8 active torsions:
REMARK  status: ('A' for Active; 'I' for Inactive)
REMARK    1  A    between atoms: C_1  and  C_2
REMARK    2  A    between atoms: C_5  and  C_6
REMARK    3  A    between atoms: C_6  and  C_7
REMARK    4  A    between atoms: N_11  and  C_12
REMARK    5  A    between atoms: C_12  and  C_13
REMARK    6  A    between atoms: N_15  and  C_16
REMARK    7  A    between atoms: C_16  and  C_17
REMARK    8  A    between atoms: C_17  and  C_18
REMARK                            x       y       z     vdW  Elec       q    Type
REMARK                         _______ _______ _______ _____ _____    ______ ____
ROOT
ATOM      1  C   UNL     1       5.641   4.560  17.756  0.00  0.00    +0.000 C 
ATOM      2  C   UNL     1       5.777   3.880  16.389  0.00  0.00    +0.000 C 
ATOM      3  N   UNL     1       5.942   3.589  18.789  0.00  0.00    +0.000 N 
ATOM      4  C   UNL     1       4.809   3.101  19.393  0.00  0.00    +0.000 C 
ATOM      5  O   UNL     1       4.806   2.134  20.133  0.00  0.00    +0.000 OA
ATOM      6  N   UNL     1       3.751   3.856  19.006  0.00  0.00    +0.000 N 
ATOM      7  C   UNL     1       4.126   4.736  18.032  0.00  0.00    +0.000 C 
ATOM      8  O   UNL     1       3.350   5.446  17.398  0.00  0.00    +0.000 OA
ATOM      9  H   UNL     1       6.813   3.083  18.870  0.00  0.00    +0.000 HD
ENDROOT
BRANCH   1  14
ATOM     10  C   UNL     1       8.809   9.480  18.215  0.00  0.00    +0.000 C 
ATOM     11  C   UNL     1       7.978   8.233  18.125  0.00  0.00    +0.000 A 
ATOM     12  C   UNL     1       8.301   7.096  18.866  0.00  0.00    +0.000 A 
ATOM     13  C   UNL     1       7.539   5.927  18.751  0.00  0.00    +0.000 A 
ATOM     14  C   UNL     1       6.430   5.856  17.888  0.00  0.00    +0.000 A 
ATOM     15  C   UNL     1       6.104   7.017  17.164  0.00  0.00    +0.000 A 
ATOM     16  C   UNL     1       6.863   8.186  17.280  0.00  0.00    +0.000 A 
ENDBRANCH   1  14
BRANCH   6  17
ATOM     17  C   UNL     1       2.394   3.651  19.456  0.00  0.00    +0.000 C 
BRANCH  17  18
ATOM     18  C   UNL     1       2.033   4.652  20.547  0.00  0.00    +0.000 C 
ATOM     19  O   UNL     1       2.175   4.383  21.740  0.00  0.00    +0.000 OA
ATOM     20  N   UNL     1       1.606   5.896  20.116  0.00  0.00    +0.000 N 
ATOM     21  H   UNL     1       1.604   6.121  19.121  0.00  0.00    +0.000 HD
BRANCH  20  22
ATOM     22  C   UNL     1       1.284   6.897  21.112  0.00  0.00    +0.000 C 
BRANCH  22  23
ATOM     23  C   UNL     1       1.708   8.330  20.781  0.00  0.00    +0.000 C 
BRANCH  23  24
ATOM     24  C   UNL     1       0.666   9.330  21.258  0.00  0.00    +0.000 C 
ATOM     25  C   UNL     1       0.013  10.149  20.411  0.00  0.00    +0.000 C 
ATOM     26  C   UNL     1      -0.965  11.203  20.854  0.00  0.00    +0.000 C 
ATOM     27  C   UNL     1      -0.913  11.484  22.356  0.00  0.00    +0.000 C 
ATOM     28  C   UNL     1      -0.830  10.185  23.147  0.00  0.00    +0.000 C 
ATOM     29  C   UNL     1       0.411   9.383  22.751  0.00  0.00    +0.000 C 
ENDBRANCH  23  24
ENDBRANCH  22  23
ENDBRANCH  20  22
ENDBRANCH  17  18
ENDBRANCH   6  17
TORSDOF 6
ENDMDL
MODEL 5
REMARK VINA RESULT:      -8.2      2.450      7.023
REMARK  Name = 
REMARK  8 active torsions:
REMARK  status: ('A' for Active; 'I' for Inactive)
REMARK    1  A    between atoms: C_1  and  C_2
REMARK    2  A    between atoms: C_5  and  C_6
REMARK    3  A    between atoms: C_6  and  C_7
REMARK    4  A    between atoms: N_11  and  C_12
REMARK    5  A    between atoms: C_12  and  C_13
REMARK    6  A    between atoms: N_15  and  C_16
REMARK    7  A    between atoms: C_16  and  C_17
REMARK    8  A    between atoms: C_17  and  C_18
REMARK                            x       y       z     vdW  Elec       q    Type
REMARK                         _______ _______ _______ _____ _____    ______ ____
ROOT
ATOM      1  C   UNL     1       5.583   4.549  17.715  0.00  0.00    +0.000 C 
ATOM      2  C   UNL     1       5.637   3.875  16.339  0.00  0.00    +0.000 C 
ATOM      3  N   UNL     1       5.885   3.559  18.729  0.00  0.00    +0.000 N 
ATOM      4  C   UNL     1       4.758   3.112  19.375  0.00  0.00    +0.000 C 
ATOM      5  O   UNL     1       4.744   2.140  20.109  0.00  0.00    +0.000 OA
ATOM      6  N   UNL     1       3.717   3.914  19.035  0.00  0.00    +0.000 N 
ATOM      7  C   UNL     1       4.090   4.785  18.052  0.00  0.00    +0.000 C 
ATOM      8  O   UNL     1       3.318   5.531  17.454  0.00  0.00    +0.000 OA
ATOM      9  H   UNL     1       6.737   3.017  18.772  0.00  0.00    +0.000 HD
ENDROOT
BRANCH   1  14
ATOM     10  C   UNL     1       8.722   9.487  18.179  0.00  0.00    +0.000 C 
ATOM     11  C   UNL     1       7.942   8.213  18.033  0.00  0.00    +0.000 A 
ATOM     12  C   UNL     1       6.857   8.129  17.160  0.00  0.00    +0.000 A 
ATOM     13  C   UNL     1       6.114   6.945  17.055  0.00  0.00    +0.000 A 
ATOM     14  C   UNL     1       6.430   5.810  17.823  0.00  0.00    +0.000 A 
ATOM     15  C   UNL     1       7.540   5.905  18.683  0.00  0.00    +0.000 A 
ATOM     16  C   UNL     1       8.283   7.084  18.787  0.00  0.00    +0.000 A 
ENDBRANCH   1  14
BRANCH   6  17
ATOM     17  C   UNL     1       2.372   3.760  19.538  0.00  0.00    +0.000 C 
BRANCH  17  18
ATOM     18  C   UNL     1       2.062   4.831  20.577  0.00  0.00    +0.000 C 
ATOM     19  O   UNL     1       2.252   4.638  21.778  0.00  0.00    +0.000 OA
ATOM     20  N   UNL     1       1.624   6.049  20.086  0.00  0.00    +0.000 N 
ATOM     21  H   UNL     1       1.583   6.211  19.079  0.00  0.00    +0.000 HD
BRANCH  20  22
ATOM     22  C   UNL     1       1.349   7.114  21.029  0.00  0.00    +0.000 C 
BRANCH  22  23
ATOM     23  C   UNL     1       1.566   8.538  20.511  0.00  0.00    +0.000 C 
BRANCH  23  24
ATOM     24  C   UNL     1       0.726   9.535  21.293  0.00  0.00    +0.000 C 
ATOM     25  C   UNL     1       0.176   9.234  22.486  0.00  0.00    +0.000 C 
ATOM     26  C   UNL     1      -0.725  10.165  23.251  0.00  0.00    +0.000 C 
ATOM     27  C   UNL     1      -1.223  11.345  22.417  0.00  0.00    +0.000 C 
ATOM     28  C   UNL     1      -0.091  11.939  21.589  0.00  0.00    +0.000 C 
ATOM     29  C   UNL     1       0.508  10.890  20.651  0.00  0.00    +0.000 C 
ENDBRANCH  23  24
ENDBRANCH  22  23
ENDBRANCH  20  22
ENDBRANCH  17  18
ENDBRANCH   6  17
TORSDOF 6
ENDMDL
MODEL 6
REMARK VINA RESULT:      -8.1      1.229      1.601
REMARK  Name = 
REMARK  8 active torsions:
REMARK  status: ('A' for Active; 'I' for Inactive)
REMARK    1  A    between atoms: C_1  and  C_2
REMARK    2  A    between atoms: C_5  and  C_6
REMARK    3  A    between atoms: C_6  and  C_7
REMARK    4  A    between atoms: N_11  and  C_12
REMARK    5  A    between atoms: C_12  and  C_13
REMARK    6  A    between atoms: N_15  and  C_16
REMARK    7  A    between atoms: C_16  and  C_17
REMARK    8  A    between atoms: C_17  and  C_18
REMARK                            x       y       z     vdW  Elec       q    Type
REMARK                         _______ _______ _______ _____ _____    ______ ____
ROOT
ATOM      1  C   UNL     1       3.205   5.274  18.887  0.00  0.00    +0.000 C 
ATOM      2  C   UNL     1       2.771   4.135  19.816  0.00  0.00    +0.000 C 
ATOM      3  N   UNL     1       3.059   4.835  17.514  0.00  0.00    +0.000 N 
ATOM      4  C   UNL     1       4.261   4.485  16.947  0.00  0.00    +0.000 C 
ATOM      5  O   UNL     1       4.358   3.894  15.887  0.00  0.00    +0.000 OA
ATOM      6  N   UNL     1       5.262   4.887  17.770  0.00  0.00    +0.000 N 
ATOM      7  C   UNL     1       4.751   5.353  18.948  0.00  0.00    +0.000 C 
ATOM      8  O   UNL     1       5.426   5.651  19.930  0.00  0.00    +0.000 OA
ATOM      9  H   UNL     1       2.195   4.515  17.098  0.00  0.00    +0.000 HD
ENDROOT
BRANCH   1  14
ATOM     10  C   UNL     1       0.479  10.374  19.891  0.00  0.00    +0.000 C 
ATOM     11  C   UNL     1       1.207   9.086  19.645  0.00  0.00    +0.000 A 
ATOM     12  C   UNL     1       1.764   8.800  18.398  0.00  0.00    +0.000 A 
ATOM     13  C   UNL     1       2.414   7.580  18.168  0.00  0.00    +0.000 A 
ATOM     14  C   UNL     1       2.524   6.606  19.176  0.00  0.00    +0.000 A 
ATOM     15  C   UNL     1       1.976   6.918  20.434  0.00  0.00    +0.000 A 
ATOM     16  C   UNL     1       1.329   8.136  20.666  0.00  0.00    +0.000 A 
ENDBRANCH   1  14
BRANCH   6  17
ATOM     17  C   UNL     1       6.668   4.706  17.493  0.00  0.00    +0.000 C 
BRANCH  17  18
ATOM     18  C   UNL     1       7.301   6.018  17.049  0.00  0.00    +0.000 C 
ATOM     19  O   UNL     1       7.610   6.219  15.874  0.00  0.00    +0.000 OA
ATOM     20  N   UNL     1       7.441   6.990  18.025  0.00  0.00    +0.000 N 
ATOM     21  H   UNL     1       7.074   6.830  18.964  0.00  0.00    +0.000 HD
BRANCH  20  22
ATOM     22  C   UNL     1       8.004   8.270  17.648  0.00  0.00    +0.000 C 
BRANCH  22  23
ATOM     23  C   UNL     1       8.817   8.987  18.729  0.00  0.00    +0.000 C 
BRANCH  23  24
ATOM     24  C   UNL     1       9.032  10.449  18.368  0.00  0.00    +0.000 C 
ATOM     25  C   UNL     1      10.210  11.073  18.561  0.00  0.00    +0.000 C 
ATOM     26  C   UNL     1      10.436  12.535  18.290  0.00  0.00    +0.000 C 
ATOM     27  C   UNL     1       9.140  13.321  18.087  0.00  0.00    +0.000 C 
ATOM     28  C   UNL     1       8.176  12.552  17.193  0.00  0.00    +0.000 C 
ATOM     29  C   UNL     1       7.838  11.189  17.798  0.00  0.00    +0.000 C 
ENDBRANCH  23  24
ENDBRANCH  22  23
ENDBRANCH  20  22
ENDBRANCH  17  18
ENDBRANCH   6  17
TORSDOF 6
ENDMDL
MODEL 7
REMARK VINA RESULT:      -8.1      2.016      7.127
REMARK  Name = 
REMARK  8 active torsions:
REMARK  status: ('A' for Active; 'I' for Inactive)
REMARK    1  A    between atoms: C_1  and  C_2
REMARK    2  A    between atoms: C_5  and  C_6
REMARK    3  A    between atoms: C_6  and  C_7
REMARK    4  A    between atoms: N_11  and  C_12
REMARK    5  A    between atoms: C_12  and  C_13
REMARK    6  A    between atoms: N_15  and  C_16
REMARK    7  A    between atoms: C_16  and  C_17
REMARK    8  A    between atoms: C_17  and  C_18
REMARK                            x       y       z     vdW  Elec       q    Type
REMARK                         _______ _______ _______ _____ _____    ______ ____
ROOT
ATOM      1  C   UNL     1       6.136   4.997  17.624  0.00  0.00    +0.000 C 
ATOM      2  C   UNL     1       6.472   4.307  16.296  0.00  0.00    +0.000 C 
ATOM      3  N   UNL     1       6.216   4.018  18.689  0.00  0.00    +0.000 N 
ATOM      4  C   UNL     1       4.977   3.582  19.091  0.00  0.00    +0.000 C 
ATOM      5  O   UNL     1       4.806   2.618  19.816  0.00  0.00    +0.000 OA
ATOM      6  N   UNL     1       4.033   4.382  18.533  0.00  0.00    +0.000 N 
ATOM      7  C   UNL     1       4.606   5.241  17.640  0.00  0.00    +0.000 C 
ATOM      8  O   UNL     1       3.980   5.981  16.886  0.00  0.00    +0.000 OA
ATOM      9  H   UNL     1       7.038   3.475  18.914  0.00  0.00    +0.000 HD
ENDROOT
BRANCH   1  14
ATOM     10  C   UNL     1       9.133   9.931  18.685  0.00  0.00    +0.000 C 
ATOM     11  C   UNL     1       8.393   8.659  18.391  0.00  0.00    +0.000 A 
ATOM     12  C   UNL     1       7.467   8.589  17.350  0.00  0.00    +0.000 A 
ATOM     13  C   UNL     1       6.757   7.406  17.103  0.00  0.00    +0.000 A 
ATOM     14  C   UNL     1       6.948   6.258  17.892  0.00  0.00    +0.000 A 
ATOM     15  C   UNL     1       7.901   6.338  18.924  0.00  0.00    +0.000 A 
ATOM     16  C   UNL     1       8.612   7.517  19.170  0.00  0.00    +0.000 A 
ENDBRANCH   1  14
BRANCH   6  17
ATOM     17  C   UNL     1       2.612   4.237  18.747  0.00  0.00    +0.000 C 
BRANCH  17  18
ATOM     18  C   UNL     1       2.105   5.296  19.719  0.00  0.00    +0.000 C 
ATOM     19  O   UNL     1       1.539   4.988  20.768  0.00  0.00    +0.000 OA
ATOM     20  N   UNL     1       2.380   6.611  19.386  0.00  0.00    +0.000 N 
ATOM     21  H   UNL     1       2.946   6.825  18.565  0.00  0.00    +0.000 HD
BRANCH  20  22
ATOM     22  C   UNL     1       1.951   7.655  20.294  0.00  0.00    +0.000 C 
BRANCH  22  23
ATOM     23  C   UNL     1       1.292   8.876  19.646  0.00  0.00    +0.000 C 
BRANCH  23  24
ATOM     24  C   UNL     1       0.421   9.619  20.646  0.00  0.00    +0.000 C 
ATOM     25  C   UNL     1      -0.326  10.685  20.299  0.00  0.00    +0.000 C 
ATOM     26  C   UNL     1      -1.137  11.492  21.275  0.00  0.00    +0.000 C 
ATOM     27  C   UNL     1      -0.790  11.203  22.735  0.00  0.00    +0.000 C 
ATOM     28  C   UNL     1      -0.642   9.705  22.970  0.00  0.00    +0.000 C 
ATOM     29  C   UNL     1       0.452   9.117  22.076  0.00  0.00    +0.000 C 
ENDBRANCH  23  24
ENDBRANCH  22  23
ENDBRANCH  20  22
ENDBRANCH  17  18
ENDBRANCH   6  17
TORSDOF 6
ENDMDL
MODEL 8
REMARK VINA RESULT:      -7.9      1.060      1.534
REMARK  Name = 
REMARK  8 active torsions:
REMARK  status: ('A' for Active; 'I' for Inactive)
REMARK    1  A    between atoms: C_1  and  C_2
REMARK    2  A    between atoms: C_5  and  C_6
REMARK    3  A    between atoms: C_6  and  C_7
REMARK    4  A    between atoms: N_11  and  C_12
REMARK    5  A    between atoms: C_12  and  C_13
REMARK    6  A    between atoms: N_15  and  C_16
REMARK    7  A    between atoms: C_16  and  C_17
REMARK    8  A    between atoms: C_17  and  C_18
REMARK                            x       y       z     vdW  Elec       q    Type
REMARK                         _______ _______ _______ _____ _____    ______ ____
ROOT
ATOM      1  C   UNL     1       3.210   5.170  18.723  0.00  0.00    +0.000 C 
ATOM      2  C   UNL     1       2.669   3.951  19.481  0.00  0.00    +0.000 C 
ATOM      3  N   UNL     1       3.209   4.872  17.304  0.00  0.00    +0.000 N 
ATOM      4  C   UNL     1       4.461   4.558  16.836  0.00  0.00    +0.000 C 
ATOM      5  O   UNL     1       4.666   4.075  15.737  0.00  0.00    +0.000 OA
ATOM      6  N   UNL     1       5.372   4.856  17.797  0.00  0.00    +0.000 N 
ATOM      7  C   UNL     1       4.741   5.212  18.955  0.00  0.00    +0.000 C 
ATOM      8  O   UNL     1       5.309   5.398  20.028  0.00  0.00    +0.000 OA
ATOM      9  H   UNL     1       2.392   4.613  16.769  0.00  0.00    +0.000 HD
ENDROOT
BRANCH   1  14
ATOM     10  C   UNL     1       0.626  10.234  20.183  0.00  0.00    +0.000 C 
ATOM     11  C   UNL     1       1.255   8.927  19.798  0.00  0.00    +0.000 A 
ATOM     12  C   UNL     1       1.318   7.864  20.700  0.00  0.00    +0.000 A 
ATOM     13  C   UNL     1       1.936   6.658  20.342  0.00  0.00    +0.000 A 
ATOM     14  C   UNL     1       2.513   6.479  19.072  0.00  0.00    +0.000 A 
ATOM     15  C   UNL     1       2.423   7.552  18.167  0.00  0.00    +0.000 A 
ATOM     16  C   UNL     1       1.805   8.755  18.522  0.00  0.00    +0.000 A 
ENDBRANCH   1  14
BRANCH   6  17
ATOM     17  C   UNL     1       6.798   4.677  17.653  0.00  0.00    +0.000 C 
BRANCH  17  18
ATOM     18  C   UNL     1       7.442   5.935  17.084  0.00  0.00    +0.000 C 
ATOM     19  O   UNL     1       7.641   6.066  15.876  0.00  0.00    +0.000 OA
ATOM     20  N   UNL     1       7.724   6.941  17.992  0.00  0.00    +0.000 N 
ATOM     21  H   UNL     1       7.445   6.842  18.969  0.00  0.00    +0.000 HD
BRANCH  20  22
ATOM     22  C   UNL     1       8.304   8.173  17.499  0.00  0.00    +0.000 C 
BRANCH  22  23
ATOM     23  C   UNL     1       7.644   9.465  17.985  0.00  0.00    +0.000 C 
BRANCH  23  24
ATOM     24  C   UNL     1       8.690  10.514  18.330  0.00  0.00    +0.000 C 
ATOM     25  C   UNL     1       9.684  10.278  19.208  0.00  0.00    +0.000 C 
ATOM     26  C   UNL     1      10.689  11.314  19.632  0.00  0.00    +0.000 C 
ATOM     27  C   UNL     1      10.295  12.737  19.235  0.00  0.00    +0.000 C 
ATOM     28  C   UNL     1       9.766  12.773  17.807  0.00  0.00    +0.000 C 
ATOM     29  C   UNL     1       8.547  11.862  17.653  0.00  0.00    +0.000 C 
ENDBRANCH  23  24
ENDBRANCH  22  23
ENDBRANCH  20  22
ENDBRANCH  17  18
ENDBRANCH   6  17
TORSDOF 6
ENDMDL
MODEL 9
REMARK VINA RESULT:      -7.8      1.836      7.080
REMARK  Name = 
REMARK  8 active torsions:
REMARK  status: ('A' for Active; 'I' for Inactive)
REMARK    1  A    between atoms: C_1  and  C_2
REMARK    2  A    between atoms: C_5  and  C_6
REMARK    3  A    between atoms: C_6  and  C_7
REMARK    4  A    between atoms: N_11  and  C_12
REMARK    5  A    between atoms: C_12  and  C_13
REMARK    6  A    between atoms: N_15  and  C_16
REMARK    7  A    between atoms: C_16  and  C_17
REMARK    8  A    between atoms: C_17  and  C_18
REMARK                            x       y       z     vdW  Elec       q    Type
REMARK                         _______ _______ _______ _____ _____    ______ ____
ROOT
ATOM      1  C   UNL     1       6.414   5.336  17.535  0.00  0.00    +0.000 C 
ATOM      2  C   UNL     1       6.874   4.650  16.243  0.00  0.00    +0.000 C 
ATOM      3  N   UNL     1       6.399   4.354  18.601  0.00  0.00    +0.000 N 
ATOM      4  C   UNL     1       5.130   3.912  18.886  0.00  0.00    +0.000 C 
ATOM      5  O   UNL     1       4.897   2.946  19.590  0.00  0.00    +0.000 OA
ATOM      6  N   UNL     1       4.238   4.709  18.245  0.00  0.00    +0.000 N 
ATOM      7  C   UNL     1       4.888   5.573  17.410  0.00  0.00    +0.000 C 
ATOM      8  O   UNL     1       4.330   6.312  16.603  0.00  0.00    +0.000 OA
ATOM      9  H   UNL     1       7.199   3.814  18.900  0.00  0.00    +0.000 HD
ENDROOT
BRANCH   1  14
ATOM     10  C   UNL     1       9.277  10.278  18.885  0.00  0.00    +0.000 C 
ATOM     11  C   UNL     1       8.572   9.005  18.518  0.00  0.00    +0.000 A 
ATOM     12  C   UNL     1       7.706   8.950  17.426  0.00  0.00    +0.000 A 
ATOM     13  C   UNL     1       7.027   7.765  17.111  0.00  0.00    +0.000 A 
ATOM     14  C   UNL     1       7.191   6.599  17.880  0.00  0.00    +0.000 A 
ATOM     15  C   UNL     1       8.085   6.665  18.965  0.00  0.00    +0.000 A 
ATOM     16  C   UNL     1       8.764   7.846  19.279  0.00  0.00    +0.000 A 
ENDBRANCH   1  14
BRANCH   6  17
ATOM     17  C   UNL     1       2.804   4.557  18.326  0.00  0.00    +0.000 C 
BRANCH  17  18
ATOM     18  C   UNL     1       2.231   5.454  19.417  0.00  0.00    +0.000 C 
ATOM     19  O   UNL     1       1.696   4.984  20.421  0.00  0.00    +0.000 OA
ATOM     20  N   UNL     1       2.410   6.816  19.244  0.00  0.00    +0.000 N 
ATOM     21  H   UNL     1       2.955   7.165  18.455  0.00  0.00    +0.000 HD
BRANCH  20  22
ATOM     22  C   UNL     1       1.916   7.711  20.270  0.00  0.00    +0.000 C 
BRANCH  22  23
ATOM     23  C   UNL     1       1.102   8.910  19.775  0.00  0.00    +0.000 C 
BRANCH  23  24
ATOM     24  C   UNL     1       0.477   9.660  20.940  0.00  0.00    +0.000 C 
ATOM     25  C   UNL     1       0.263   9.082  22.138  0.00  0.00    +0.000 C 
ATOM     26  C   UNL     1      -0.424   9.768  23.287  0.00  0.00    +0.000 C 
ATOM     27  C   UNL     1      -1.145  11.053  22.882  0.00  0.00    +0.000 C 
ATOM     28  C   UNL     1      -0.279  11.886  21.945  0.00  0.00    +0.000 C 
ATOM     29  C   UNL     1       0.074  11.099  20.682  0.00  0.00    +0.000 C 
ENDBRANCH  23  24
ENDBRANCH  22  23
ENDBRANCH  20  22
ENDBRANCH  17  18
ENDBRANCH   6  17
TORSDOF 6
ENDMDL
