MODEL 1
REMARK VINA RESULT:      -8.4      0.000      0.000
REMARK  Name = 
REMARK  6 active torsions:
REMARK  status: ('A' for Active; 'I' for Inactive)
REMARK    1  A    between atoms: C_2  and  C_4
REMARK    2  A    between atoms: C_4  and  C_5
REMARK    3  A    between atoms: C_9  and  N_10
REMARK    4  A    between atoms: C_12  and  C_13
REMARK    5  A    between atoms: C_21  and  N_22
REMARK    6  A    between atoms: N_25  and  C_26
REMARK                            x       y       z     vdW  Elec       q    Type
REMARK                         _______ _______ _______ _____ _____    ______ ____
ROOT
ATOM      1  N   UNL     1       1.169   9.264  19.712  0.00  0.00    +0.000 N 
ATOM      2  N   UNL     1       1.855   8.090  19.659  0.00  0.00    +0.000 NA
ATOM      3  C   UNL     1       2.277   7.969  18.395  0.00  0.00    +0.000 A 
ATOM      4  C   UNL     1       1.859   9.077  17.619  0.00  0.00    +0.000 A 
ATOM      5  C   UNL     1       1.223   9.926  18.493  0.00  0.00    +0.000 A 
ENDROOT
BRANCH   3   6
ATOM      6  C   UNL     1       3.097   6.832  17.964  0.00  0.00    +0.000 A 
ATOM      7  C   UNL     1       4.312   7.046  17.298  0.00  0.00    +0.000 A 
ATOM      8  C   UNL     1       5.082   5.954  16.863  0.00  0.00    +0.000 A 
ATOM      9  C   UNL     1       4.637   4.654  17.076  0.00  0.00    +0.000 A 
ATOM     10  C   UNL     1       3.435   4.432  17.737  0.00  0.00    +0.000 A 
ATOM     11  C   UNL     1       2.678   5.518  18.180  0.00  0.00    +0.000 A 
ATOM     12  F   UNL     1       1.513   5.255  18.790  0.00  0.00    +0.000 F 
ENDBRANCH   3   6
BRANCH   1  17
ATOM     13  C   UNL     1      -1.194  11.045  22.008  0.00  0.00    +0.000 A 
ATOM     14  C   UNL     1      -0.871  10.446  23.232  0.00  0.00    +0.000 A 
ATOM     15  C   UNL     1       0.100   9.447  23.295  0.00  0.00    +0.000 A 
ATOM     16  C   UNL     1       0.769   9.046  22.138  0.00  0.00    +0.000 A 
ATOM     17  C   UNL     1       0.474   9.632  20.904  0.00  0.00    +0.000 A 
ATOM     18  C   UNL     1      -0.506  10.644  20.849  0.00  0.00    +0.000 A 
BRANCH  13  19
ATOM     19  C   UNL     1      -2.261  12.110  21.945  0.00  0.00    +0.000 C 
BRANCH  19  21
ATOM     20  N   UNL     1      -2.282  13.690  23.790  0.00  0.00    +0.000 N 
ATOM     21  C   UNL     1      -2.819  12.535  23.289  0.00  0.00    +0.000 C 
ATOM     22  O   UNL     1      -3.710  11.951  23.898  0.00  0.00    +0.000 OA
ATOM     23  H   UNL     1      -2.677  14.049  24.650  0.00  0.00    +0.000 HD
ATOM     24  H   UNL     1      -1.698  14.305  23.242  0.00  0.00    +0.000 HD
ENDBRANCH  19  21
ENDBRANCH  13  19
ENDBRANCH   1  17
BRANCH   5  25
ATOM     25  N   UNL     1       0.779  11.206  18.155  0.00  0.00    +0.000 N 
ATOM     26  C   UNL     1       1.463  12.338  18.671  0.00  0.00    +0.000 C 
ATOM     27  O   UNL     1       2.449  12.199  19.378  0.00  0.00    +0.000 OA
ATOM     28  N   UNL     1       0.882  13.493  18.231  0.00  0.00    +0.000 N 
ATOM     29  H   UNL     1       0.133  11.303  17.388  0.00  0.00    +0.000 HD
ATOM     30  H   UNL     1      -0.124  13.460  18.114  0.00  0.00    +0.000 HD
BRANCH  28  31
ATOM     31  C   UNL     1       1.401  14.753  18.630  0.00  0.00    +0.000 A 
ATOM     32  C   UNL     1       2.580  15.241  18.051  0.00  0.00    +0.000 A 
ATOM     33  C   UNL     1       3.084  16.487  18.428  0.00  0.00    +0.000 A 
ATOM     34  C   UNL     1       2.425  17.244  19.396  0.00  0.00    +0.000 A 
ATOM     35  C   UNL     1       1.252  16.762  19.986  0.00  0.00    +0.000 A 
ATOM     36 CL   UNL     1       0.511  17.740  21.204  0.00  0.00    +0.000 Cl
ATOM     37  C   UNL     1       0.726  15.523  19.595  0.00  0.00    +0.000 A 
ATOM     38 CL   UNL     1      -0.690  14.858  20.350  0.00  0.00    +0.000 Cl
ENDBRANCH  28  31
ENDBRANCH   5  25
TORSDOF 6
ENDMDL
MODEL 2
REMARK VINA RESULT:      -8.3      3.488      5.032
REMARK  Name = 
REMARK  6 active torsions:
REMARK  status: ('A' for Active; 'I' for Inactive)
REMARK    1  A    between atoms: C_2  and  C_4
REMARK    2  A    between atoms: C_4  and  C_5
REMARK    3  A    between atoms: C_9  and  N_10
REMARK    4  A    between atoms: C_12  and  C_13
REMARK    5  A    between atoms: C_21  and  N_22
REMARK    6  A    between atoms: N_25  and  C_26
REMARK                            x       y       z     vdW  Elec       q    Type
REMARK                         _______ _______ _______ _____ _____    ______ ____
ROOT
ATOM      1  N   UNL     1      -1.054  10.904  18.407  0.00  0.00    +0.000 N 
ATOM      2  N   UNL     1      -0.452   9.700  18.204  0.00  0.00    +0.000 NA
ATOM      3  C   UNL     1       0.757   9.795  18.768  0.00  0.00    +0.000 A 
ATOM      4  C   UNL     1       0.942  11.076  19.344  0.00  0.00    +0.000 A 
ATOM      5  C   UNL     1      -0.249  11.737  19.171  0.00  0.00    +0.000 A 
ENDROOT
BRANCH   3   6
ATOM      6  C   UNL     1       1.688   8.662  18.785  0.00  0.00    +0.000 A 
ATOM      7  C   UNL     1       2.528   8.419  17.690  0.00  0.00    +0.000 A 
ATOM      8  C   UNL     1       3.401   7.317  17.698  0.00  0.00    +0.000 A 
ATOM      9  C   UNL     1       3.424   6.450  18.785  0.00  0.00    +0.000 A 
ATOM     10  C   UNL     1       2.596   6.684  19.876  0.00  0.00    +0.000 A 
ATOM     11  C   UNL     1       1.740   7.787  19.871  0.00  0.00    +0.000 A 
ATOM     12  F   UNL     1       0.941   7.958  20.935  0.00  0.00    +0.000 F 
ENDBRANCH   3   6
BRANCH   1  17
ATOM     13  C   UNL     1      -4.649  11.900  18.068  0.00  0.00    +0.000 A 
ATOM     14  C   UNL     1      -4.858  11.662  16.704  0.00  0.00    +0.000 A 
ATOM     15  C   UNL     1      -3.817  11.200  15.899  0.00  0.00    +0.000 A 
ATOM     16  C   UNL     1      -2.559  10.958  16.451  0.00  0.00    +0.000 A 
ATOM     17  C   UNL     1      -2.322  11.178  17.811  0.00  0.00    +0.000 A 
ATOM     18  C   UNL     1      -3.380  11.641  18.619  0.00  0.00    +0.000 A 
BRANCH  13  19
ATOM     19  C   UNL     1      -5.774  12.419  18.927  0.00  0.00    +0.000 C 
BRANCH  19  21
ATOM     20  N   UNL     1      -7.135  10.411  19.059  0.00  0.00    +0.000 N 
ATOM     21  C   UNL     1      -6.467  11.369  19.774  0.00  0.00    +0.000 C 
ATOM     22  O   UNL     1      -6.425  11.312  20.998  0.00  0.00    +0.000 OA
ATOM     23  H   UNL     1      -7.550   9.650  19.582  0.00  0.00    +0.000 HD
ATOM     24  H   UNL     1      -7.034  10.302  18.061  0.00  0.00    +0.000 HD
ENDBRANCH  19  21
ENDBRANCH  13  19
ENDBRANCH   1  17
BRANCH   5  25
ATOM     25  N   UNL     1      -0.534  12.989  19.721  0.00  0.00    +0.000 N 
ATOM     26  C   UNL     1      -1.166  13.064  20.990  0.00  0.00    +0.000 C 
ATOM     27  O   UNL     1      -1.432  12.048  21.612  0.00  0.00    +0.000 OA
ATOM     28  N   UNL     1      -1.360  14.366  21.356  0.00  0.00    +0.000 N 
ATOM     29  H   UNL     1      -0.093  13.802  19.320  0.00  0.00    +0.000 HD
ATOM     30  H   UNL     1      -1.563  15.008  20.597  0.00  0.00    +0.000 HD
BRANCH  28  31
ATOM     31  C   UNL     1      -1.986  14.677  22.591  0.00  0.00    +0.000 A 
ATOM     32  C   UNL     1      -1.226  14.733  23.768  0.00  0.00    +0.000 A 
ATOM     33  C   UNL     1      -1.834  15.055  24.981  0.00  0.00    +0.000 A 
ATOM     34  C   UNL     1      -3.204  15.307  25.032  0.00  0.00    +0.000 A 
ATOM     35  C   UNL     1      -3.974  15.246  23.865  0.00  0.00    +0.000 A 
ATOM     36 CL   UNL     1      -5.672  15.535  24.012  0.00  0.00    +0.000 Cl
ATOM     37  C   UNL     1      -3.367  14.947  22.638  0.00  0.00    +0.000 A 
ATOM     38 CL   UNL     1      -4.295  14.795  21.178  0.00  0.00    +0.000 Cl
ENDBRANCH  28  31
ENDBRANCH   5  25
TORSDOF 6
ENDMDL
MODEL 3
REMARK VINA RESULT:      -8.1      4.258      8.311
REMARK  Name = 
REMARK  6 active torsions:
REMARK  status: ('A' for Active; 'I' for Inactive)
REMARK    1  A    between atoms: C_2  and  C_4
REMARK    2  A    between atoms: C_4  and  C_5
REMARK    3  A    between atoms: C_9  and  N_10
REMARK    4  A    between atoms: C_12  and  C_13
REMARK    5  A    between atoms: C_21  and  N_22
REMARK    6  A    between atoms: N_25  and  C_26
REMARK                            x       y       z     vdW  Elec       q    Type
REMARK                         _______ _______ _______ _____ _____    ______ ____
ROOT
ATOM      1  N   UNL     1       0.305  11.869  19.059  0.00  0.00    +0.000 N 
ATOM      2  N   UNL     1      -0.898  12.456  18.810  0.00  0.00    +0.000 NA
ATOM      3  C   UNL     1      -1.765  11.453  18.632  0.00  0.00    +0.000 A 
ATOM      4  C   UNL     1      -1.118  10.200  18.766  0.00  0.00    +0.000 A 
ATOM      5  C   UNL     1       0.180  10.488  19.114  0.00  0.00    +0.000 A 
ENDROOT
BRANCH   3   6
ATOM      6  C   UNL     1      -3.188  11.703  18.381  0.00  0.00    +0.000 A 
ATOM      7  C   UNL     1      -4.015  12.183  19.405  0.00  0.00    +0.000 A 
ATOM      8  C   UNL     1      -5.384  12.396  19.169  0.00  0.00    +0.000 A 
ATOM      9  C   UNL     1      -5.931  12.116  17.921  0.00  0.00    +0.000 A 
ATOM     10  C   UNL     1      -5.119  11.641  16.899  0.00  0.00    +0.000 A 
ATOM     11  C   UNL     1      -3.757  11.443  17.133  0.00  0.00    +0.000 A 
ATOM     12  F   UNL     1      -3.018  10.959  16.123  0.00  0.00    +0.000 F 
ENDBRANCH   3   6
BRANCH   1  17
ATOM     13  C   UNL     1       2.929  14.094  20.539  0.00  0.00    +0.000 A 
ATOM     14  C   UNL     1       3.742  14.319  19.422  0.00  0.00    +0.000 A 
ATOM     15  C   UNL     1       3.441  13.722  18.198  0.00  0.00    +0.000 A 
ATOM     16  C   UNL     1       2.317  12.906  18.073  0.00  0.00    +0.000 A 
ATOM     17  C   UNL     1       1.481  12.671  19.169  0.00  0.00    +0.000 A 
ATOM     18  C   UNL     1       1.789  13.281  20.402  0.00  0.00    +0.000 A 
BRANCH  13  19
ATOM     19  C   UNL     1       3.273  14.727  21.865  0.00  0.00    +0.000 C 
BRANCH  19  21
ATOM     20  N   UNL     1       5.524  15.450  22.418  0.00  0.00    +0.000 N 
ATOM     21  C   UNL     1       4.655  14.393  22.391  0.00  0.00    +0.000 C 
ATOM     22  O   UNL     1       5.001  13.295  22.814  0.00  0.00    +0.000 OA
ATOM     23  H   UNL     1       6.435  15.289  22.829  0.00  0.00    +0.000 HD
ATOM     24  H   UNL     1       5.231  16.405  22.271  0.00  0.00    +0.000 HD
ENDBRANCH  19  21
ENDBRANCH  13  19
ENDBRANCH   1  17
BRANCH   5  25
ATOM     25  N   UNL     1       1.123   9.524  19.477  0.00  0.00    +0.000 N 
ATOM     26  C   UNL     1       1.695   8.699  18.473  0.00  0.00    +0.000 C 
ATOM     27  O   UNL     1       1.394   8.849  17.300  0.00  0.00    +0.000 OA
ATOM     28  N   UNL     1       2.589   7.823  19.021  0.00  0.00    +0.000 N 
ATOM     29  H   UNL     1       1.538   9.578  20.394  0.00  0.00    +0.000 HD
ATOM     30  H   UNL     1       2.359   7.487  19.949  0.00  0.00    +0.000 HD
BRANCH  28  31
ATOM     31  C   UNL     1       3.279   6.895  18.198  0.00  0.00    +0.000 A 
ATOM     32  C   UNL     1       4.243   7.347  17.286  0.00  0.00    +0.000 A 
ATOM     33  C   UNL     1       4.936   6.437  16.488  0.00  0.00    +0.000 A 
ATOM     34  C   UNL     1       4.660   5.073  16.581  0.00  0.00    +0.000 A 
ATOM     35  C   UNL     1       3.695   4.612  17.482  0.00  0.00    +0.000 A 
ATOM     36 CL   UNL     1       3.381   2.912  17.516  0.00  0.00    +0.000 Cl
ATOM     37  C   UNL     1       3.011   5.517  18.305  0.00  0.00    +0.000 A 
ATOM     38 CL   UNL     1       1.758   4.994  19.388  0.00  0.00    +0.000 Cl
ENDBRANCH  28  31
ENDBRANCH   5  25
TORSDOF 6
ENDMDL
MODEL 4
REMARK VINA RESULT:      -8.1      0.860      1.185
REMARK  Name = 
REMARK  6 active torsions:
REMARK  status: ('A' for Active; 'I' for Inactive)
REMARK    1  A    between atoms: C_2  and  C_4
REMARK    2  A    between atoms: C_4  and  C_5
REMARK    3  A    between atoms: C_9  and  N_10
REMARK    4  A    between atoms: C_12  and  C_13
REMARK    5  A    between atoms: C_21  and  N_22
REMARK    6  A    between atoms: N_25  and  C_26
REMARK                            x       y       z     vdW  Elec       q    Type
REMARK                         _______ _______ _______ _____ _____    ______ ____
ROOT
ATOM      1  N   UNL     1       1.117   9.146  19.717  0.00  0.00    +0.000 N 
ATOM      2  N   UNL     1       1.735   7.934  19.686  0.00  0.00    +0.000 NA
ATOM      3  C   UNL     1       2.135   7.760  18.422  0.00  0.00    +0.000 A 
ATOM      4  C   UNL     1       1.773   8.871  17.622  0.00  0.00    +0.000 A 
ATOM      5  C   UNL     1       1.196   9.775  18.482  0.00  0.00    +0.000 A 
ENDROOT
BRANCH   3   6
ATOM      6  C   UNL     1       2.885   6.568  18.010  0.00  0.00    +0.000 A 
ATOM      7  C   UNL     1       2.288   5.301  18.061  0.00  0.00    +0.000 A 
ATOM      8  C   UNL     1       3.018   4.158  17.692  0.00  0.00    +0.000 A 
ATOM      9  C   UNL     1       4.343   4.275  17.290  0.00  0.00    +0.000 A 
ATOM     10  C   UNL     1       4.944   5.526  17.234  0.00  0.00    +0.000 A 
ATOM     11  C   UNL     1       4.213   6.661  17.589  0.00  0.00    +0.000 A 
ATOM     12  F   UNL     1       4.843   7.845  17.544  0.00  0.00    +0.000 F 
ENDBRANCH   3   6
BRANCH   1  17
ATOM     13  C   UNL     1      -1.099  11.127  21.996  0.00  0.00    +0.000 A 
ATOM     14  C   UNL     1      -0.813  10.525  23.228  0.00  0.00    +0.000 A 
ATOM     15  C   UNL     1       0.084   9.459  23.301  0.00  0.00    +0.000 A 
ATOM     16  C   UNL     1       0.715   8.993  22.148  0.00  0.00    +0.000 A 
ATOM     17  C   UNL     1       0.457   9.581  20.906  0.00  0.00    +0.000 A 
ATOM     18  C   UNL     1      -0.448  10.660  20.840  0.00  0.00    +0.000 A 
BRANCH  13  19
ATOM     19  C   UNL     1      -2.086  12.266  21.921  0.00  0.00    +0.000 C 
BRANCH  19  21
ATOM     20  N   UNL     1      -1.314  13.928  23.515  0.00  0.00    +0.000 N 
ATOM     21  C   UNL     1      -2.293  13.017  23.222  0.00  0.00    +0.000 C 
ATOM     22  O   UNL     1      -3.262  12.889  23.962  0.00  0.00    +0.000 OA
ATOM     23  H   UNL     1      -1.449  14.503  24.338  0.00  0.00    +0.000 HD
ATOM     24  H   UNL     1      -0.609  14.209  22.849  0.00  0.00    +0.000 HD
ENDBRANCH  19  21
ENDBRANCH  13  19
ENDBRANCH   1  17
BRANCH   5  25
ATOM     25  N   UNL     1       0.822  11.070  18.117  0.00  0.00    +0.000 N 
ATOM     26  C   UNL     1       1.567  12.173  18.610  0.00  0.00    +0.000 C 
ATOM     27  O   UNL     1       2.544  11.996  19.319  0.00  0.00    +0.000 OA
ATOM     28  N   UNL     1       1.050  13.349  18.146  0.00  0.00    +0.000 N 
ATOM     29  H   UNL     1       0.181  11.187  17.349  0.00  0.00    +0.000 HD
ATOM     30  H   UNL     1       0.042  13.369  18.029  0.00  0.00    +0.000 HD
BRANCH  28  31
ATOM     31  C   UNL     1       1.637  14.587  18.518  0.00  0.00    +0.000 A 
ATOM     32  C   UNL     1       2.871  14.969  17.976  0.00  0.00    +0.000 A 
ATOM     33  C   UNL     1       3.443  16.193  18.327  0.00  0.00    +0.000 A 
ATOM     34  C   UNL     1       2.797  17.033  19.233  0.00  0.00    +0.000 A 
ATOM     35  C   UNL     1       1.568  16.658  19.786  0.00  0.00    +0.000 A 
ATOM     36 CL   UNL     1       0.844  17.734  20.928  0.00  0.00    +0.000 Cl
ATOM     37  C   UNL     1       0.975  15.441  19.420  0.00  0.00    +0.000 A 
ATOM     38 CL   UNL     1      -0.516  14.907  20.134  0.00  0.00    +0.000 Cl
ENDBRANCH  28  31
ENDBRANCH   5  25
TORSDOF 6
ENDMDL
MODEL 5
REMARK VINA RESULT:      -8.1      4.144      8.433
REMARK  Name = 
REMARK  6 active torsions:
REMARK  status: ('A' for Active; 'I' for Inactive)
REMARK    1  A    between atoms: C_2  and  C_4
REMARK    2  A    between atoms: C_4  and  C_5
REMARK    3  A    between atoms: C_9  and  N_10
REMARK    4  A    between atoms: C_12  and  C_13
REMARK    5  A    between atoms: C_21  and  N_22
REMARK    6  A    between atoms: N_25  and  C_26
REMARK                            x       y       z     vdW  Elec       q    Type
REMARK                         _______ _______ _______ _____ _____    ______ ____
ROOT
ATOM      1  N   UNL     1       0.039  11.907  19.295  0.00  0.00    +0.000 N 
ATOM      2  N   UNL     1      -1.158  12.475  18.985  0.00  0.00    +0.000 NA
ATOM      3  C   UNL     1      -1.976  11.462  18.680  0.00  0.00    +0.000 A 
ATOM      4  C   UNL     1      -1.303  10.222  18.794  0.00  0.00    +0.000 A 
ATOM      5  C   UNL     1      -0.046  10.522  19.261  0.00  0.00    +0.000 A 
ENDROOT
BRANCH   3   6
ATOM      6  C   UNL     1      -3.383  11.689  18.331  0.00  0.00    +0.000 A 
ATOM      7  C   UNL     1      -4.293  12.128  19.301  0.00  0.00    +0.000 A 
ATOM      8  C   UNL     1      -5.645  12.319  18.970  0.00  0.00    +0.000 A 
ATOM      9  C   UNL     1      -6.093  12.057  17.679  0.00  0.00    +0.000 A 
ATOM     10  C   UNL     1      -5.198  11.622  16.709  0.00  0.00    +0.000 A 
ATOM     11  C   UNL     1      -3.853  11.447  17.038  0.00  0.00    +0.000 A 
ATOM     12  F   UNL     1      -3.031  11.001  16.076  0.00  0.00    +0.000 F 
ENDBRANCH   3   6
BRANCH   1  17
ATOM     13  C   UNL     1       2.881  14.272  18.694  0.00  0.00    +0.000 A 
ATOM     14  C   UNL     1       3.463  14.311  19.967  0.00  0.00    +0.000 A 
ATOM     15  C   UNL     1       2.908  13.584  21.019  0.00  0.00    +0.000 A 
ATOM     16  C   UNL     1       1.775  12.798  20.808  0.00  0.00    +0.000 A 
ATOM     17  C   UNL     1       1.178  12.732  19.546  0.00  0.00    +0.000 A 
ATOM     18  C   UNL     1       1.746  13.467  18.486  0.00  0.00    +0.000 A 
BRANCH  13  19
ATOM     19  C   UNL     1       3.474  15.078  17.565  0.00  0.00    +0.000 C 
BRANCH  19  21
ATOM     20  N   UNL     1       2.303  17.203  17.457  0.00  0.00    +0.000 N 
ATOM     21  C   UNL     1       3.476  16.578  17.785  0.00  0.00    +0.000 C 
ATOM     22  O   UNL     1       4.409  17.220  18.257  0.00  0.00    +0.000 OA
ATOM     23  H   UNL     1       2.235  18.193  17.656  0.00  0.00    +0.000 HD
ATOM     24  H   UNL     1       1.451  16.699  17.257  0.00  0.00    +0.000 HD
ENDBRANCH  19  21
ENDBRANCH  13  19
ENDBRANCH   1  17
BRANCH   5  25
ATOM     25  N   UNL     1       0.895   9.563  19.641  0.00  0.00    +0.000 N 
ATOM     26  C   UNL     1       1.492   8.743  18.649  0.00  0.00    +0.000 C 
ATOM     27  O   UNL     1       1.213   8.891  17.470  0.00  0.00    +0.000 OA
ATOM     28  N   UNL     1       2.380   7.871  19.214  0.00  0.00    +0.000 N 
ATOM     29  H   UNL     1       1.292   9.619  20.566  0.00  0.00    +0.000 HD
ATOM     30  H   UNL     1       2.133   7.533  20.137  0.00  0.00    +0.000 HD
BRANCH  28  31
ATOM     31  C   UNL     1       3.092   6.948  18.404  0.00  0.00    +0.000 A 
ATOM     32  C   UNL     1       4.017   7.412  17.459  0.00  0.00    +0.000 A 
ATOM     33  C   UNL     1       4.731   6.506  16.673  0.00  0.00    +0.000 A 
ATOM     34  C   UNL     1       4.514   5.136  16.813  0.00  0.00    +0.000 A 
ATOM     35  C   UNL     1       3.588   4.663  17.748  0.00  0.00    +0.000 A 
ATOM     36 CL   UNL     1       3.347   2.953  17.840  0.00  0.00    +0.000 Cl
ATOM     37  C   UNL     1       2.884   5.564  18.558  0.00  0.00    +0.000 A 
ATOM     38 CL   UNL     1       1.676   5.023  19.683  0.00  0.00    +0.000 Cl
ENDBRANCH  28  31
ENDBRANCH   5  25
TORSDOF 6
ENDMDL
MODEL 6
REMARK VINA RESULT:      -8.0      4.318      8.342
REMARK  Name = 
REMARK  6 active torsions:
REMARK  status: ('A' for Active; 'I' for Inactive)
REMARK    1  A    between atoms: C_2  and  C_4
REMARK    2  A    between atoms: C_4  and  C_5
REMARK    3  A    between atoms: C_9  and  N_10
REMARK    4  A    between atoms: C_12  and  C_13
REMARK    5  A    between atoms: C_21  and  N_22
REMARK    6  A    between atoms: N_25  and  C_26
REMARK                            x       y       z     vdW  Elec       q    Type
REMARK                         _______ _______ _______ _____ _____    ______ ____
ROOT
ATOM      1  N   UNL     1       0.339  11.895  19.086  0.00  0.00    +0.000 N 
ATOM      2  N   UNL     1      -0.870  12.473  18.850  0.00  0.00    +0.000 NA
ATOM      3  C   UNL     1      -1.730  11.464  18.671  0.00  0.00    +0.000 A 
ATOM      4  C   UNL     1      -1.071  10.216  18.793  0.00  0.00    +0.000 A 
ATOM      5  C   UNL     1       0.227  10.512  19.133  0.00  0.00    +0.000 A 
ENDROOT
BRANCH   3   6
ATOM      6  C   UNL     1      -3.157  11.704  18.432  0.00  0.00    +0.000 A 
ATOM      7  C   UNL     1      -3.717  11.452  17.172  0.00  0.00    +0.000 A 
ATOM      8  C   UNL     1      -5.079  11.708  16.938  0.00  0.00    +0.000 A 
ATOM      9  C   UNL     1      -5.876  12.229  17.951  0.00  0.00    +0.000 A 
ATOM     10  C   UNL     1      -5.331  12.481  19.204  0.00  0.00    +0.000 A 
ATOM     11  C   UNL     1      -3.981  12.213  19.437  0.00  0.00    +0.000 A 
ATOM     12  F   UNL     1      -3.493  12.496  20.654  0.00  0.00    +0.000 F 
ENDBRANCH   3   6
BRANCH   1  17
ATOM     13  C   UNL     1       2.948  14.142  20.560  0.00  0.00    +0.000 A 
ATOM     14  C   UNL     1       3.759  14.370  19.441  0.00  0.00    +0.000 A 
ATOM     15  C   UNL     1       3.461  13.769  18.219  0.00  0.00    +0.000 A 
ATOM     16  C   UNL     1       2.343  12.944  18.097  0.00  0.00    +0.000 A 
ATOM     17  C   UNL     1       1.510  12.705  19.194  0.00  0.00    +0.000 A 
ATOM     18  C   UNL     1       1.814  13.320  20.426  0.00  0.00    +0.000 A 
BRANCH  13  19
ATOM     19  C   UNL     1       3.288  14.780  21.884  0.00  0.00    +0.000 C 
BRANCH  19  21
ATOM     20  N   UNL     1       5.519  15.461  22.560  0.00  0.00    +0.000 N 
ATOM     21  C   UNL     1       4.650  14.411  22.439  0.00  0.00    +0.000 C 
ATOM     22  O   UNL     1       4.979  13.288  22.807  0.00  0.00    +0.000 OA
ATOM     23  H   UNL     1       6.415  15.272  22.994  0.00  0.00    +0.000 HD
ATOM     24  H   UNL     1       5.233  16.424  22.461  0.00  0.00    +0.000 HD
ENDBRANCH  19  21
ENDBRANCH  13  19
ENDBRANCH   1  17
BRANCH   5  25
ATOM     25  N   UNL     1       1.180   9.553  19.483  0.00  0.00    +0.000 N 
ATOM     26  C   UNL     1       1.718   8.709  18.477  0.00  0.00    +0.000 C 
ATOM     27  O   UNL     1       1.379   8.838  17.311  0.00  0.00    +0.000 OA
ATOM     28  N   UNL     1       2.629   7.842  19.011  0.00  0.00    +0.000 N 
ATOM     29  H   UNL     1       1.624   9.623  20.385  0.00  0.00    +0.000 HD
ATOM     30  H   UNL     1       2.428   7.523  19.952  0.00  0.00    +0.000 HD
BRANCH  28  31
ATOM     31  C   UNL     1       3.291   6.898  18.183  0.00  0.00    +0.000 A 
ATOM     32  C   UNL     1       4.251   7.328  17.258  0.00  0.00    +0.000 A 
ATOM     33  C   UNL     1       4.916   6.402  16.454  0.00  0.00    +0.000 A 
ATOM     34  C   UNL     1       4.616   5.044  16.556  0.00  0.00    +0.000 A 
ATOM     35  C   UNL     1       3.654   4.604  17.471  0.00  0.00    +0.000 A 
ATOM     36 CL   UNL     1       3.309   2.911  17.517  0.00  0.00    +0.000 Cl
ATOM     37  C   UNL     1       2.998   5.526  18.300  0.00  0.00    +0.000 A 
ATOM     38 CL   UNL     1       1.749   5.031  19.400  0.00  0.00    +0.000 Cl
ENDBRANCH  28  31
ENDBRANCH   5  25
TORSDOF 6
ENDMDL
MODEL 7
REMARK VINA RESULT:      -8.0      3.606      5.033
REMARK  Name = 
REMARK  6 active torsions:
REMARK  status: ('A' for Active; 'I' for Inactive)
REMARK    1  A    between atoms: C_2  and  C_4
REMARK    2  A    between atoms: C_4  and  C_5
REMARK    3  A    between atoms: C_9  and  N_10
REMARK    4  A    between atoms: C_12  and  C_13
REMARK    5  A    between atoms: C_21  and  N_22
REMARK    6  A    between atoms: N_25  and  C_26
REMARK                            x       y       z     vdW  Elec       q    Type
REMARK                         _______ _______ _______ _____ _____    ______ ____
ROOT
ATOM      1  N   UNL     1      -0.961  10.832  18.347  0.00  0.00    +0.000 N 
ATOM      2  N   UNL     1      -0.361   9.628  18.140  0.00  0.00    +0.000 NA
ATOM      3  C   UNL     1       0.863   9.732  18.669  0.00  0.00    +0.000 A 
ATOM      4  C   UNL     1       1.061  11.019  19.226  0.00  0.00    +0.000 A 
ATOM      5  C   UNL     1      -0.137  11.676  19.079  0.00  0.00    +0.000 A 
ENDROOT
BRANCH   3   6
ATOM      6  C   UNL     1       1.798   8.601  18.672  0.00  0.00    +0.000 A 
ATOM      7  C   UNL     1       2.648   8.382  17.580  0.00  0.00    +0.000 A 
ATOM      8  C   UNL     1       3.524   7.282  17.574  0.00  0.00    +0.000 A 
ATOM      9  C   UNL     1       3.540   6.395  18.645  0.00  0.00    +0.000 A 
ATOM     10  C   UNL     1       2.702   6.605  19.733  0.00  0.00    +0.000 A 
ATOM     11  C   UNL     1       1.843   7.705  19.742  0.00  0.00    +0.000 A 
ATOM     12  F   UNL     1       1.034   7.853  20.801  0.00  0.00    +0.000 F 
ENDBRANCH   3   6
BRANCH   1  17
ATOM     13  C   UNL     1      -4.578  11.769  18.105  0.00  0.00    +0.000 A 
ATOM     14  C   UNL     1      -4.813  11.559  16.741  0.00  0.00    +0.000 A 
ATOM     15  C   UNL     1      -3.780  11.135  15.904  0.00  0.00    +0.000 A 
ATOM     16  C   UNL     1      -2.507  10.904  16.424  0.00  0.00    +0.000 A 
ATOM     17  C   UNL     1      -2.245  11.096  17.784  0.00  0.00    +0.000 A 
ATOM     18  C   UNL     1      -3.295  11.521  18.624  0.00  0.00    +0.000 A 
BRANCH  13  19
ATOM     19  C   UNL     1      -5.695  12.247  19.000  0.00  0.00    +0.000 C 
BRANCH  19  21
ATOM     20  N   UNL     1      -6.170  14.522  18.292  0.00  0.00    +0.000 N 
ATOM     21  C   UNL     1      -6.645  13.240  18.359  0.00  0.00    +0.000 C 
ATOM     22  O   UNL     1      -7.741  12.960  17.884  0.00  0.00    +0.000 OA
ATOM     23  H   UNL     1      -6.741  15.202  17.807  0.00  0.00    +0.000 HD
ATOM     24  H   UNL     1      -5.208  14.760  18.486  0.00  0.00    +0.000 HD
ENDBRANCH  19  21
ENDBRANCH  13  19
ENDBRANCH   1  17
BRANCH   5  25
ATOM     25  N   UNL     1      -0.409  12.933  19.623  0.00  0.00    +0.000 N 
ATOM     26  C   UNL     1      -1.016  13.019  20.904  0.00  0.00    +0.000 C 
ATOM     27  O   UNL     1      -1.270  12.009  21.541  0.00  0.00    +0.000 OA
ATOM     28  N   UNL     1      -1.202  14.325  21.262  0.00  0.00    +0.000 N 
ATOM     29  H   UNL     1       0.023  13.741  19.206  0.00  0.00    +0.000 HD
ATOM     30  H   UNL     1      -1.419  14.960  20.502  0.00  0.00    +0.000 HD
BRANCH  28  31
ATOM     31  C   UNL     1      -1.801  14.648  22.507  0.00  0.00    +0.000 A 
ATOM     32  C   UNL     1      -1.018  14.714  23.667  0.00  0.00    +0.000 A 
ATOM     33  C   UNL     1      -1.601  15.048  24.890  0.00  0.00    +0.000 A 
ATOM     34  C   UNL     1      -2.970  15.301  24.966  0.00  0.00    +0.000 A 
ATOM     35  C   UNL     1      -3.763  15.229  23.816  0.00  0.00    +0.000 A 
ATOM     36 CL   UNL     1      -5.457  15.520  23.995  0.00  0.00    +0.000 Cl
ATOM     37  C   UNL     1      -3.181  14.918  22.579  0.00  0.00    +0.000 A 
ATOM     38 CL   UNL     1      -4.139  14.753  21.140  0.00  0.00    +0.000 Cl
ENDBRANCH  28  31
ENDBRANCH   5  25
TORSDOF 6
ENDMDL
MODEL 8
REMARK VINA RESULT:      -8.0      4.430      8.683
REMARK  Name = 
REMARK  6 active torsions:
REMARK  status: ('A' for Active; 'I' for Inactive)
REMARK    1  A    between atoms: C_2  and  C_4
REMARK    2  A    between atoms: C_4  and  C_5
REMARK    3  A    between atoms: C_9  and  N_10
REMARK    4  A    between atoms: C_12  and  C_13
REMARK    5  A    between atoms: C_21  and  N_22
REMARK    6  A    between atoms: N_25  and  C_26
REMARK                            x       y       z     vdW  Elec       q    Type
REMARK                         _______ _______ _______ _____ _____    ______ ____
ROOT
ATOM      1  N   UNL     1      -1.454  11.630  20.137  0.00  0.00    +0.000 N 
ATOM      2  N   UNL     1      -2.154  12.473  20.943  0.00  0.00    +0.000 NA
ATOM      3  C   UNL     1      -1.455  12.557  22.081  0.00  0.00    +0.000 A 
ATOM      4  C   UNL     1      -0.288  11.758  22.012  0.00  0.00    +0.000 A 
ATOM      5  C   UNL     1      -0.266  11.240  20.740  0.00  0.00    +0.000 A 
ENDROOT
BRANCH   3   6
ATOM      6  C   UNL     1      -1.887  13.420  23.186  0.00  0.00    +0.000 A 
ATOM      7  C   UNL     1      -1.053  14.444  23.653  0.00  0.00    +0.000 A 
ATOM      8  C   UNL     1      -1.457  15.252  24.729  0.00  0.00    +0.000 A 
ATOM      9  C   UNL     1      -2.682  15.029  25.349  0.00  0.00    +0.000 A 
ATOM     10  C   UNL     1      -3.517  14.017  24.893  0.00  0.00    +0.000 A 
ATOM     11  C   UNL     1      -3.118  13.225  23.815  0.00  0.00    +0.000 A 
ATOM     12  F   UNL     1      -3.945  12.243  23.426  0.00  0.00    +0.000 F 
ENDBRANCH   3   6
BRANCH   1  17
ATOM     13  C   UNL     1      -3.818  11.352  17.245  0.00  0.00    +0.000 A 
ATOM     14  C   UNL     1      -3.156  10.404  16.456  0.00  0.00    +0.000 A 
ATOM     15  C   UNL     1      -1.929   9.880  16.862  0.00  0.00    +0.000 A 
ATOM     16  C   UNL     1      -1.358  10.287  18.068  0.00  0.00    +0.000 A 
ATOM     17  C   UNL     1      -2.000  11.225  18.881  0.00  0.00    +0.000 A 
ATOM     18  C   UNL     1      -3.241  11.747  18.466  0.00  0.00    +0.000 A 
BRANCH  13  19
ATOM     19  C   UNL     1      -5.135  11.930  16.789  0.00  0.00    +0.000 C 
BRANCH  19  21
ATOM     20  N   UNL     1      -6.181  13.606  18.202  0.00  0.00    +0.000 N 
ATOM     21  C   UNL     1      -6.102  12.272  17.905  0.00  0.00    +0.000 C 
ATOM     22  O   UNL     1      -6.812  11.463  18.494  0.00  0.00    +0.000 OA
ATOM     23  H   UNL     1      -6.867  13.887  18.892  0.00  0.00    +0.000 HD
ATOM     24  H   UNL     1      -5.772  14.322  17.620  0.00  0.00    +0.000 HD
ENDBRANCH  19  21
ENDBRANCH  13  19
ENDBRANCH   1  17
BRANCH   5  25
ATOM     25  N   UNL     1       0.798  10.504  20.215  0.00  0.00    +0.000 N 
ATOM     26  C   UNL     1       0.795   9.090  20.343  0.00  0.00    +0.000 C 
ATOM     27  O   UNL     1      -0.141   8.516  20.877  0.00  0.00    +0.000 OA
ATOM     28  N   UNL     1       1.914   8.552  19.772  0.00  0.00    +0.000 N 
ATOM     29  H   UNL     1       1.427  10.958  19.573  0.00  0.00    +0.000 HD
ATOM     30  H   UNL     1       2.755   9.113  19.846  0.00  0.00    +0.000 HD
BRANCH  28  31
ATOM     31  C   UNL     1       2.122   7.148  19.789  0.00  0.00    +0.000 A 
ATOM     32  C   UNL     1       1.637   6.379  20.856  0.00  0.00    +0.000 A 
ATOM     33  C   UNL     1       1.825   4.997  20.868  0.00  0.00    +0.000 A 
ATOM     34  C   UNL     1       2.512   4.375  19.826  0.00  0.00    +0.000 A 
ATOM     35  C   UNL     1       3.007   5.134  18.760  0.00  0.00    +0.000 A 
ATOM     36 CL   UNL     1       3.879   4.299  17.523  0.00  0.00    +0.000 Cl
ATOM     37  C   UNL     1       2.802   6.520  18.728  0.00  0.00    +0.000 A 
ATOM     38 CL   UNL     1       3.458   7.507  17.459  0.00  0.00    +0.000 Cl
ENDBRANCH  28  31
ENDBRANCH   5  25
TORSDOF 6
ENDMDL
MODEL 9
REMARK VINA RESULT:      -8.0      4.199      8.468
REMARK  Name = 
REMARK  6 active torsions:
REMARK  status: ('A' for Active; 'I' for Inactive)
REMARK    1  A    between atoms: C_2  and  C_4
REMARK    2  A    between atoms: C_4  and  C_5
REMARK    3  A    between atoms: C_9  and  N_10
REMARK    4  A    between atoms: C_12  and  C_13
REMARK    5  A    between atoms: C_21  and  N_22
REMARK    6  A    between atoms: N_25  and  C_26
REMARK                            x       y       z     vdW  Elec       q    Type
REMARK                         _______ _______ _______ _____ _____    ______ ____
ROOT
ATOM      1  N   UNL     1       0.232  11.905  19.238  0.00  0.00    +0.000 N 
ATOM      2  N   UNL     1      -0.985  12.442  18.949  0.00  0.00    +0.000 NA
ATOM      3  C   UNL     1      -1.776  11.410  18.636  0.00  0.00    +0.000 A 
ATOM      4  C   UNL     1      -1.064  10.188  18.722  0.00  0.00    +0.000 A 
ATOM      5  C   UNL     1       0.188  10.519  19.181  0.00  0.00    +0.000 A 
ENDROOT
BRANCH   3   6
ATOM      6  C   UNL     1      -3.192  11.599  18.305  0.00  0.00    +0.000 A 
ATOM      7  C   UNL     1      -3.664  11.313  17.017  0.00  0.00    +0.000 A 
ATOM      8  C   UNL     1      -5.016  11.522  16.695  0.00  0.00    +0.000 A 
ATOM      9  C   UNL     1      -5.892  12.029  17.648  0.00  0.00    +0.000 A 
ATOM     10  C   UNL     1      -5.434  12.314  18.929  0.00  0.00    +0.000 A 
ATOM     11  C   UNL     1      -4.094  12.094  19.249  0.00  0.00    +0.000 A 
ATOM     12  F   UNL     1      -3.692  12.408  20.490  0.00  0.00    +0.000 F 
ENDBRANCH   3   6
BRANCH   1  17
ATOM     13  C   UNL     1       3.020  14.333  18.639  0.00  0.00    +0.000 A 
ATOM     14  C   UNL     1       3.589  14.398  19.916  0.00  0.00    +0.000 A 
ATOM     15  C   UNL     1       3.043  13.667  20.971  0.00  0.00    +0.000 A 
ATOM     16  C   UNL     1       1.931  12.852  20.757  0.00  0.00    +0.000 A 
ATOM     17  C   UNL     1       1.347  12.760  19.491  0.00  0.00    +0.000 A 
ATOM     18  C   UNL     1       1.907  13.498  18.428  0.00  0.00    +0.000 A 
BRANCH  13  19
ATOM     19  C   UNL     1       3.604  15.143  17.507  0.00  0.00    +0.000 C 
BRANCH  19  21
ATOM     20  N   UNL     1       2.631  17.176  16.601  0.00  0.00    +0.000 N 
ATOM     21  C   UNL     1       3.381  16.639  17.613  0.00  0.00    +0.000 C 
ATOM     22  O   UNL     1       3.779  17.347  18.532  0.00  0.00    +0.000 OA
ATOM     23  H   UNL     1       2.397  18.158  16.670  0.00  0.00    +0.000 HD
ATOM     24  H   UNL     1       2.120  16.611  15.938  0.00  0.00    +0.000 HD
ENDBRANCH  19  21
ENDBRANCH  13  19
ENDBRANCH   1  17
BRANCH   5  25
ATOM     25  N   UNL     1       1.161   9.583  19.536  0.00  0.00    +0.000 N 
ATOM     26  C   UNL     1       1.665   8.696  18.549  0.00  0.00    +0.000 C 
ATOM     27  O   UNL     1       1.278   8.767  17.393  0.00  0.00    +0.000 OA
ATOM     28  N   UNL     1       2.603   7.859  19.086  0.00  0.00    +0.000 N 
ATOM     29  H   UNL     1       1.642   9.698  20.414  0.00  0.00    +0.000 HD
ATOM     30  H   UNL     1       2.443   7.584  20.049  0.00  0.00    +0.000 HD
BRANCH  28  31
ATOM     31  C   UNL     1       3.237   6.881  18.277  0.00  0.00    +0.000 A 
ATOM     32  C   UNL     1       4.196   7.268  17.331  0.00  0.00    +0.000 A 
ATOM     33  C   UNL     1       4.835   6.307  16.546  0.00  0.00    +0.000 A 
ATOM     34  C   UNL     1       4.509   4.959  16.687  0.00  0.00    +0.000 A 
ATOM     35  C   UNL     1       3.548   4.563  17.622  0.00  0.00    +0.000 A 
ATOM     36 CL   UNL     1       3.170   2.878  17.716  0.00  0.00    +0.000 Cl
ATOM     37  C   UNL     1       2.919   5.518  18.432  0.00  0.00    +0.000 A 
ATOM     38 CL   UNL     1       1.672   5.077  19.558  0.00  0.00    +0.000 Cl
ENDBRANCH  28  31
ENDBRANCH   5  25
TORSDOF 6
ENDMDL
