MODEL 1
REMARK VINA RESULT:      -8.7      0.000      0.000
REMARK  Name = 
REMARK  8 active torsions:
REMARK  status: ('A' for Active; 'I' for Inactive)
REMARK    1  A    between atoms: C_2  and  O_3
REMARK    2  A    between atoms: C_2  and  C_4
REMARK    3  A    between atoms: C_4  and  C_5
REMARK    4  A    between atoms: C_4  and  O_18
REMARK    5  A    between atoms: C_5  and  C_6
REMARK    6  A    between atoms: C_9  and  C_10
REMARK    7  A    between atoms: O_18  and  C_19
REMARK    8  A    between atoms: C_22  and  C_23
REMARK                            x       y       z     vdW  Elec       q    Type
REMARK                         _______ _______ _______ _____ _____    ______ ____
ROOT
ATOM      1  C   UNL     1       5.026   4.920  18.470  0.00  0.00    +0.000 C 
ENDROOT
BRANCH   1   3
ATOM      2  O   UNL     1       4.905   2.843  19.738  0.00  0.00    +0.000 OA
ATOM      3  C   UNL     1       4.755   3.426  18.672  0.00  0.00    +0.000 C 
BRANCH   3   4
ATOM      4  O   UNL     1       4.282   2.792  17.571  0.00  0.00    +0.000 OA
ATOM      5  H   UNL     1       4.775   3.067  16.770  0.00  0.00    +0.000 HD
ENDBRANCH   3   4
ENDBRANCH   1   3
BRANCH   1   6
ATOM      6  C   UNL     1       3.794   5.506  17.768  0.00  0.00    +0.000 C 
BRANCH   6   7
ATOM      7  C   UNL     1       3.018   6.484  18.621  0.00  0.00    +0.000 A 
ATOM      8  C   UNL     1       2.742   7.765  18.141  0.00  0.00    +0.000 A 
ATOM      9  C   UNL     1       1.969   8.655  18.893  0.00  0.00    +0.000 A 
ATOM     10  C   UNL     1       1.435   8.297  20.143  0.00  0.00    +0.000 A 
ATOM     11  C   UNL     1       1.755   7.016  20.628  0.00  0.00    +0.000 A 
ATOM     12  C   UNL     1       2.542   6.124  19.885  0.00  0.00    +0.000 A 
BRANCH  10  13
ATOM     13  C   UNL     1       0.569   9.237  20.896  0.00  0.00    +0.000 A 
ATOM     14  C   UNL     1      -0.048  10.329  20.255  0.00  0.00    +0.000 A 
ATOM     15  C   UNL     1      -0.825  11.253  20.960  0.00  0.00    +0.000 A 
ATOM     16  C   UNL     1      -1.022  11.094  22.327  0.00  0.00    +0.000 A 
ATOM     17  C   UNL     1      -0.450  10.010  22.983  0.00  0.00    +0.000 A 
ATOM     18  C   UNL     1       0.338   9.093  22.276  0.00  0.00    +0.000 A 
ENDBRANCH  10  13
ENDBRANCH   6   7
ENDBRANCH   1   6
BRANCH   1  19
ATOM     19  O   UNL     1       6.180   5.123  17.640  0.00  0.00    +0.000 OA
BRANCH  19  20
ATOM     20  C   UNL     1       6.878   6.293  17.775  0.00  0.00    +0.000 A 
ATOM     21  C   UNL     1       7.847   6.283  18.778  0.00  0.00    +0.000 A 
ATOM     22  C   UNL     1       8.558   7.449  19.095  0.00  0.00    +0.000 A 
ATOM     23  C   UNL     1       8.344   8.651  18.399  0.00  0.00    +0.000 A 
ATOM     24  C   UNL     1       7.424   8.610  17.340  0.00  0.00    +0.000 A 
ATOM     25  C   UNL     1       6.696   7.453  17.030  0.00  0.00    +0.000 A 
BRANCH  23  26
ATOM     26  C   UNL     1       9.029   9.911  18.772  0.00  0.00    +0.000 A 
ATOM     27  C   UNL     1       9.284  10.253  20.112  0.00  0.00    +0.000 A 
ATOM     28  C   UNL     1       9.917  11.453  20.453  0.00  0.00    +0.000 A 
ATOM     29  C   UNL     1      10.322  12.338  19.459  0.00  0.00    +0.000 A 
ATOM     30  C   UNL     1      10.086  12.028  18.124  0.00  0.00    +0.000 A 
ATOM     31  C   UNL     1       9.440  10.834  17.790  0.00  0.00    +0.000 A 
ENDBRANCH  23  26
ENDBRANCH  19  20
ENDBRANCH   1  19
TORSDOF 8
ENDMDL
MODEL 2
REMARK VINA RESULT:      -8.6      0.630      1.091
REMARK  Name = 
REMARK  8 active torsions:
REMARK  status: ('A' for Active; 'I' for Inactive)
REMARK    1  A    between atoms: C_2  and  O_3
REMARK    2  A    between atoms: C_2  and  C_4
REMARK    3  A    between atoms: C_4  and  C_5
REMARK    4  A    between atoms: C_4  and  O_18
REMARK    5  A    between atoms: C_5  and  C_6
REMARK    6  A    between atoms: C_9  and  C_10
REMARK    7  A    between atoms: O_18  and  C_19
REMARK    8  A    between atoms: C_22  and  C_23
REMARK                            x       y       z     vdW  Elec       q    Type
REMARK                         _______ _______ _______ _____ _____    ______ ____
ROOT
ATOM      1  C   UNL     1       4.877   4.375  18.793  0.00  0.00    +0.000 C 
ENDROOT
BRANCH   1   3
ATOM      2  O   UNL     1       5.026   2.258  19.989  0.00  0.00    +0.000 OA
ATOM      3  C   UNL     1       4.578   2.894  19.044  0.00  0.00    +0.000 C 
BRANCH   3   4
ATOM      4  O   UNL     1       3.723   2.339  18.151  0.00  0.00    +0.000 OA
ATOM      5  H   UNL     1       4.094   2.370  17.245  0.00  0.00    +0.000 HD
ENDBRANCH   3   4
ENDBRANCH   1   3
BRANCH   1   6
ATOM      6  C   UNL     1       3.660   4.959  18.064  0.00  0.00    +0.000 C 
BRANCH   6   7
ATOM      7  C   UNL     1       2.949   6.042  18.844  0.00  0.00    +0.000 A 
ATOM      8  C   UNL     1       2.817   7.321  18.302  0.00  0.00    +0.000 A 
ATOM      9  C   UNL     1       2.105   8.312  18.984  0.00  0.00    +0.000 A 
ATOM     10  C   UNL     1       1.491   8.062  20.224  0.00  0.00    +0.000 A 
ATOM     11  C   UNL     1       1.667   6.779  20.773  0.00  0.00    +0.000 A 
ATOM     12  C   UNL     1       2.393   5.785  20.100  0.00  0.00    +0.000 A 
BRANCH  10  13
ATOM     13  C   UNL     1       0.692   9.112  20.902  0.00  0.00    +0.000 A 
ATOM     14  C   UNL     1       0.397   9.026  22.277  0.00  0.00    +0.000 A 
ATOM     15  C   UNL     1      -0.397   9.981  22.920  0.00  0.00    +0.000 A 
ATOM     16  C   UNL     1      -0.899  11.061  22.205  0.00  0.00    +0.000 A 
ATOM     17  C   UNL     1      -0.601  11.189  20.853  0.00  0.00    +0.000 A 
ATOM     18  C   UNL     1       0.184  10.225  20.208  0.00  0.00    +0.000 A 
ENDBRANCH  10  13
ENDBRANCH   6   7
ENDBRANCH   1   6
BRANCH   1  19
ATOM     19  O   UNL     1       6.039   4.527  17.961  0.00  0.00    +0.000 OA
BRANCH  19  20
ATOM     20  C   UNL     1       6.651   5.752  17.920  0.00  0.00    +0.000 A 
ATOM     21  C   UNL     1       7.688   5.917  18.838  0.00  0.00    +0.000 A 
ATOM     22  C   UNL     1       8.326   7.157  18.978  0.00  0.00    +0.000 A 
ATOM     23  C   UNL     1       7.968   8.260  18.184  0.00  0.00    +0.000 A 
ATOM     24  C   UNL     1       6.979   8.041  17.213  0.00  0.00    +0.000 A 
ATOM     25  C   UNL     1       6.324   6.809  17.081  0.00  0.00    +0.000 A 
BRANCH  23  26
ATOM     26  C   UNL     1       8.577   9.598  18.372  0.00  0.00    +0.000 A 
ATOM     27  C   UNL     1       9.502   9.859  19.399  0.00  0.00    +0.000 A 
ATOM     28  C   UNL     1      10.058  11.130  19.576  0.00  0.00    +0.000 A 
ATOM     29  C   UNL     1       9.711  12.171  18.721  0.00  0.00    +0.000 A 
ATOM     30  C   UNL     1       8.801  11.945  17.695  0.00  0.00    +0.000 A 
ATOM     31  C   UNL     1       8.237  10.677  17.531  0.00  0.00    +0.000 A 
ENDBRANCH  23  26
ENDBRANCH  19  20
ENDBRANCH   1  19
TORSDOF 8
ENDMDL
MODEL 3
REMARK VINA RESULT:      -8.5      0.311      1.273
REMARK  Name = 
REMARK  8 active torsions:
REMARK  status: ('A' for Active; 'I' for Inactive)
REMARK    1  A    between atoms: C_2  and  O_3
REMARK    2  A    between atoms: C_2  and  C_4
REMARK    3  A    between atoms: C_4  and  C_5
REMARK    4  A    between atoms: C_4  and  O_18
REMARK    5  A    between atoms: C_5  and  C_6
REMARK    6  A    between atoms: C_9  and  C_10
REMARK    7  A    between atoms: O_18  and  C_19
REMARK    8  A    between atoms: C_22  and  C_23
REMARK                            x       y       z     vdW  Elec       q    Type
REMARK                         _______ _______ _______ _____ _____    ______ ____
ROOT
ATOM      1  C   UNL     1       4.907   5.143  18.393  0.00  0.00    +0.000 C 
ENDROOT
BRANCH   1   3
ATOM      2  O   UNL     1       4.363   3.092  19.590  0.00  0.00    +0.000 OA
ATOM      3  C   UNL     1       4.482   3.676  18.522  0.00  0.00    +0.000 C 
BRANCH   3   4
ATOM      4  O   UNL     1       4.197   3.074  17.342  0.00  0.00    +0.000 OA
ATOM      5  H   UNL     1       4.526   3.606  16.588  0.00  0.00    +0.000 HD
ENDBRANCH   3   4
ENDBRANCH   1   3
BRANCH   1   6
ATOM      6  C   UNL     1       3.802   5.860  17.606  0.00  0.00    +0.000 C 
BRANCH   6   7
ATOM      7  C   UNL     1       2.924   6.743  18.462  0.00  0.00    +0.000 A 
ATOM      8  C   UNL     1       2.577   6.342  19.753  0.00  0.00    +0.000 A 
ATOM      9  C   UNL     1       1.820   7.180  20.578  0.00  0.00    +0.000 A 
ATOM     10  C   UNL     1       1.392   8.449  20.152  0.00  0.00    +0.000 A 
ATOM     11  C   UNL     1       1.717   8.820  18.835  0.00  0.00    +0.000 A 
ATOM     12  C   UNL     1       2.464   7.978  17.997  0.00  0.00    +0.000 A 
BRANCH  10  13
ATOM     13  C   UNL     1       0.639   9.344  21.065  0.00  0.00    +0.000 A 
ATOM     14  C   UNL     1       0.169  10.598  20.629  0.00  0.00    +0.000 A 
ATOM     15  C   UNL     1      -0.498  11.474  21.491  0.00  0.00    +0.000 A 
ATOM     16  C   UNL     1      -0.730  11.106  22.811  0.00  0.00    +0.000 A 
ATOM     17  C   UNL     1      -0.303   9.863  23.264  0.00  0.00    +0.000 A 
ATOM     18  C   UNL     1       0.375   8.992  22.401  0.00  0.00    +0.000 A 
ENDBRANCH  10  13
ENDBRANCH   6   7
ENDBRANCH   1   6
BRANCH   1  19
ATOM     19  O   UNL     1       6.144   5.256  17.673  0.00  0.00    +0.000 OA
BRANCH  19  20
ATOM     20  C   UNL     1       6.871   6.408  17.809  0.00  0.00    +0.000 A 
ATOM     21  C   UNL     1       7.848   6.369  18.804  0.00  0.00    +0.000 A 
ATOM     22  C   UNL     1       8.588   7.516  19.123  0.00  0.00    +0.000 A 
ATOM     23  C   UNL     1       8.397   8.727  18.436  0.00  0.00    +0.000 A 
ATOM     24  C   UNL     1       7.467   8.714  17.384  0.00  0.00    +0.000 A 
ATOM     25  C   UNL     1       6.710   7.576  17.073  0.00  0.00    +0.000 A 
BRANCH  23  26
ATOM     26  C   UNL     1       9.114   9.968  18.811  0.00  0.00    +0.000 A 
ATOM     27  C   UNL     1       9.696  10.813  17.849  0.00  0.00    +0.000 A 
ATOM     28  C   UNL     1      10.385  11.974  18.217  0.00  0.00    +0.000 A 
ATOM     29  C   UNL     1      10.497  12.326  19.557  0.00  0.00    +0.000 A 
ATOM     30  C   UNL     1       9.930  11.513  20.532  0.00  0.00    +0.000 A 
ATOM     31  C   UNL     1       9.256  10.347  20.161  0.00  0.00    +0.000 A 
ENDBRANCH  23  26
ENDBRANCH  19  20
ENDBRANCH   1  19
TORSDOF 8
ENDMDL
MODEL 4
REMARK VINA RESULT:      -8.5      0.750      1.461
REMARK  Name = 
REMARK  8 active torsions:
REMARK  status: ('A' for Active; 'I' for Inactive)
REMARK    1  A    between atoms: C_2  and  O_3
REMARK    2  A    between atoms: C_2  and  C_4
REMARK    3  A    between atoms: C_4  and  C_5
REMARK    4  A    between atoms: C_4  and  O_18
REMARK    5  A    between atoms: C_5  and  C_6
REMARK    6  A    between atoms: C_9  and  C_10
REMARK    7  A    between atoms: O_18  and  C_19
REMARK    8  A    between atoms: C_22  and  C_23
REMARK                            x       y       z     vdW  Elec       q    Type
REMARK                         _______ _______ _______ _____ _____    ______ ____
ROOT
ATOM      1  C   UNL     1       4.953   5.671  18.225  0.00  0.00    +0.000 C 
ENDROOT
BRANCH   1   3
ATOM      2  O   UNL     1       3.909   3.494  18.555  0.00  0.00    +0.000 OA
ATOM      3  C   UNL     1       4.929   4.170  18.533  0.00  0.00    +0.000 C 
BRANCH   3   4
ATOM      4  O   UNL     1       6.153   3.624  18.738  0.00  0.00    +0.000 OA
ATOM      5  H   UNL     1       6.826   4.050  18.167  0.00  0.00    +0.000 HD
ENDBRANCH   3   4
ENDBRANCH   1   3
BRANCH   1   6
ATOM      6  C   UNL     1       3.597   6.019  17.597  0.00  0.00    +0.000 C 
BRANCH   6   7
ATOM      7  C   UNL     1       2.752   6.937  18.451  0.00  0.00    +0.000 A 
ATOM      8  C   UNL     1       2.416   6.567  19.754  0.00  0.00    +0.000 A 
ATOM      9  C   UNL     1       1.692   7.436  20.576  0.00  0.00    +0.000 A 
ATOM     10  C   UNL     1       1.287   8.707  20.133  0.00  0.00    +0.000 A 
ATOM     11  C   UNL     1       1.600   9.048  18.805  0.00  0.00    +0.000 A 
ATOM     12  C   UNL     1       2.314   8.174  17.971  0.00  0.00    +0.000 A 
BRANCH  10  13
ATOM     13  C   UNL     1       0.569   9.635  21.042  0.00  0.00    +0.000 A 
ATOM     14  C   UNL     1      -0.012   9.174  22.240  0.00  0.00    +0.000 A 
ATOM     15  C   UNL     1      -0.735  10.025  23.082  0.00  0.00    +0.000 A 
ATOM     16  C   UNL     1      -0.876  11.369  22.755  0.00  0.00    +0.000 A 
ATOM     17  C   UNL     1      -0.289  11.859  21.594  0.00  0.00    +0.000 A 
ATOM     18  C   UNL     1       0.424  11.002  20.747  0.00  0.00    +0.000 A 
ENDBRANCH  10  13
ENDBRANCH   6   7
ENDBRANCH   1   6
BRANCH   1  19
ATOM     19  O   UNL     1       5.997   5.984  17.289  0.00  0.00    +0.000 OA
BRANCH  19  20
ATOM     20  C   UNL     1       6.813   7.048  17.560  0.00  0.00    +0.000 A 
ATOM     21  C   UNL     1       7.821   6.789  18.490  0.00  0.00    +0.000 A 
ATOM     22  C   UNL     1       8.657   7.819  18.941  0.00  0.00    +0.000 A 
ATOM     23  C   UNL     1       8.534   9.132  18.453  0.00  0.00    +0.000 A 
ATOM     24  C   UNL     1       7.567   9.344  17.458  0.00  0.00    +0.000 A 
ATOM     25  C   UNL     1       6.715   8.323  17.016  0.00  0.00    +0.000 A 
BRANCH  23  26
ATOM     26  C   UNL     1       9.357  10.248  18.975  0.00  0.00    +0.000 A 
ATOM     27  C   UNL     1       9.345  10.611  20.333  0.00  0.00    +0.000 A 
ATOM     28  C   UNL     1      10.115  11.678  20.811  0.00  0.00    +0.000 A 
ATOM     29  C   UNL     1      10.926  12.401  19.943  0.00  0.00    +0.000 A 
ATOM     30  C   UNL     1      10.961  12.064  18.594  0.00  0.00    +0.000 A 
ATOM     31  C   UNL     1      10.180  11.007  18.119  0.00  0.00    +0.000 A 
ENDBRANCH  23  26
ENDBRANCH  19  20
ENDBRANCH   1  19
TORSDOF 8
ENDMDL
MODEL 5
REMARK VINA RESULT:      -8.3      0.743      1.892
REMARK  Name = 
REMARK  8 active torsions:
REMARK  status: ('A' for Active; 'I' for Inactive)
REMARK    1  A    between atoms: C_2  and  O_3
REMARK    2  A    between atoms: C_2  and  C_4
REMARK    3  A    between atoms: C_4  and  C_5
REMARK    4  A    between atoms: C_4  and  O_18
REMARK    5  A    between atoms: C_5  and  C_6
REMARK    6  A    between atoms: C_9  and  C_10
REMARK    7  A    between atoms: O_18  and  C_19
REMARK    8  A    between atoms: C_22  and  C_23
REMARK                            x       y       z     vdW  Elec       q    Type
REMARK                         _______ _______ _______ _____ _____    ______ ____
ROOT
ATOM      1  C   UNL     1       5.193   5.618  18.036  0.00  0.00    +0.000 C 
ENDROOT
BRANCH   1   3
ATOM      2  O   UNL     1       5.207   3.451  19.149  0.00  0.00    +0.000 OA
ATOM      3  C   UNL     1       5.243   4.088  18.105  0.00  0.00    +0.000 C 
BRANCH   3   4
ATOM      4  O   UNL     1       5.284   3.477  16.896  0.00  0.00    +0.000 OA
ATOM      5  H   UNL     1       5.267   2.502  16.996  0.00  0.00    +0.000 HD
ENDBRANCH   3   4
ENDBRANCH   1   3
BRANCH   1   6
ATOM      6  C   UNL     1       3.854   5.992  17.386  0.00  0.00    +0.000 C 
BRANCH   6   7
ATOM      7  C   UNL     1       2.977   6.858  18.261  0.00  0.00    +0.000 A 
ATOM      8  C   UNL     1       2.625   6.427  19.541  0.00  0.00    +0.000 A 
ATOM      9  C   UNL     1       1.870   7.248  20.384  0.00  0.00    +0.000 A 
ATOM     10  C   UNL     1       1.448   8.529  19.988  0.00  0.00    +0.000 A 
ATOM     11  C   UNL     1       1.779   8.931  18.681  0.00  0.00    +0.000 A 
ATOM     12  C   UNL     1       2.524   8.105  17.825  0.00  0.00    +0.000 A 
BRANCH  10  13
ATOM     13  C   UNL     1       0.697   9.404  20.921  0.00  0.00    +0.000 A 
ATOM     14  C   UNL     1       0.315   8.947  22.197  0.00  0.00    +0.000 A 
ATOM     15  C   UNL     1      -0.437   9.742  23.068  0.00  0.00    +0.000 A 
ATOM     16  C   UNL     1      -0.808  11.027  22.690  0.00  0.00    +0.000 A 
ATOM     17  C   UNL     1      -0.421  11.517  21.448  0.00  0.00    +0.000 A 
ATOM     18  C   UNL     1       0.322  10.714  20.573  0.00  0.00    +0.000 A 
ENDBRANCH  10  13
ENDBRANCH   6   7
ENDBRANCH   1   6
BRANCH   1  19
ATOM     19  O   UNL     1       6.265   6.128  17.227  0.00  0.00    +0.000 OA
BRANCH  19  20
ATOM     20  C   UNL     1       7.049   7.125  17.743  0.00  0.00    +0.000 A 
ATOM     21  C   UNL     1       6.793   8.396  17.226  0.00  0.00    +0.000 A 
ATOM     22  C   UNL     1       7.595   9.487  17.587  0.00  0.00    +0.000 A 
ATOM     23  C   UNL     1       8.657   9.349  18.497  0.00  0.00    +0.000 A 
ATOM     24  C   UNL     1       8.838   8.078  19.064  0.00  0.00    +0.000 A 
ATOM     25  C   UNL     1       8.052   6.978  18.694  0.00  0.00    +0.000 A 
BRANCH  23  26
ATOM     26  C   UNL     1       9.563  10.474  18.829  0.00  0.00    +0.000 A 
ATOM     27  C   UNL     1      10.280  11.170  17.840  0.00  0.00    +0.000 A 
ATOM     28  C   UNL     1      11.145  12.219  18.167  0.00  0.00    +0.000 A 
ATOM     29  C   UNL     1      11.305  12.608  19.493  0.00  0.00    +0.000 A 
ATOM     30  C   UNL     1      10.607  11.941  20.494  0.00  0.00    +0.000 A 
ATOM     31  C   UNL     1       9.755  10.883  20.164  0.00  0.00    +0.000 A 
ENDBRANCH  23  26
ENDBRANCH  19  20
ENDBRANCH   1  19
TORSDOF 8
ENDMDL
MODEL 6
REMARK VINA RESULT:      -8.3      1.239      7.451
REMARK  Name = 
REMARK  8 active torsions:
REMARK  status: ('A' for Active; 'I' for Inactive)
REMARK    1  A    between atoms: C_2  and  O_3
REMARK    2  A    between atoms: C_2  and  C_4
REMARK    3  A    between atoms: C_4  and  C_5
REMARK    4  A    between atoms: C_4  and  O_18
REMARK    5  A    between atoms: C_5  and  C_6
REMARK    6  A    between atoms: C_9  and  C_10
REMARK    7  A    between atoms: O_18  and  C_19
REMARK    8  A    between atoms: C_22  and  C_23
REMARK                            x       y       z     vdW  Elec       q    Type
REMARK                         _______ _______ _______ _____ _____    ______ ____
ROOT
ATOM      1  C   UNL     1       5.312   5.338  16.655  0.00  0.00    +0.000 C 
ENDROOT
BRANCH   1   3
ATOM      2  O   UNL     1       5.161   4.681  14.314  0.00  0.00    +0.000 OA
ATOM      3  C   UNL     1       5.458   4.386  15.464  0.00  0.00    +0.000 C 
BRANCH   3   4
ATOM      4  O   UNL     1       5.996   3.182  15.776  0.00  0.00    +0.000 OA
ATOM      5  H   UNL     1       5.434   2.704  16.421  0.00  0.00    +0.000 HD
ENDBRANCH   3   4
ENDBRANCH   1   3
BRANCH   1   6
ATOM      6  C   UNL     1       6.560   5.156  17.528  0.00  0.00    +0.000 C 
BRANCH   6   7
ATOM      7  C   UNL     1       7.268   6.452  17.851  0.00  0.00    +0.000 A 
ATOM      8  C   UNL     1       7.037   7.587  17.073  0.00  0.00    +0.000 A 
ATOM      9  C   UNL     1       7.635   8.808  17.401  0.00  0.00    +0.000 A 
ATOM     10  C   UNL     1       8.473   8.943  18.521  0.00  0.00    +0.000 A 
ATOM     11  C   UNL     1       8.726   7.781  19.271  0.00  0.00    +0.000 A 
ATOM     12  C   UNL     1       8.141   6.550  18.938  0.00  0.00    +0.000 A 
BRANCH  10  13
ATOM     13  C   UNL     1       9.050  10.262  18.883  0.00  0.00    +0.000 A 
ATOM     14  C   UNL     1       9.154  11.296  17.932  0.00  0.00    +0.000 A 
ATOM     15  C   UNL     1       9.741  12.526  18.243  0.00  0.00    +0.000 A 
ATOM     16  C   UNL     1      10.221  12.761  19.526  0.00  0.00    +0.000 A 
ATOM     17  C   UNL     1      10.106  11.771  20.495  0.00  0.00    +0.000 A 
ATOM     18  C   UNL     1       9.529  10.535  20.177  0.00  0.00    +0.000 A 
ENDBRANCH  10  13
ENDBRANCH   6   7
ENDBRANCH   1   6
BRANCH   1  19
ATOM     19  O   UNL     1       4.146   5.013  17.430  0.00  0.00    +0.000 OA
BRANCH  19  20
ATOM     20  C   UNL     1       3.511   6.024  18.100  0.00  0.00    +0.000 A 
ATOM     21  C   UNL     1       2.979   5.660  19.337  0.00  0.00    +0.000 A 
ATOM     22  C   UNL     1       2.209   6.567  20.077  0.00  0.00    +0.000 A 
ATOM     23  C   UNL     1       1.973   7.875  19.619  0.00  0.00    +0.000 A 
ATOM     24  C   UNL     1       2.590   8.239  18.411  0.00  0.00    +0.000 A 
ATOM     25  C   UNL     1       3.345   7.330  17.657  0.00  0.00    +0.000 A 
BRANCH  23  26
ATOM     26  C   UNL     1       1.098   8.821  20.349  0.00  0.00    +0.000 A 
ATOM     27  C   UNL     1       0.559   9.965  19.734  0.00  0.00    +0.000 A 
ATOM     28  C   UNL     1      -0.253  10.860  20.439  0.00  0.00    +0.000 A 
ATOM     29  C   UNL     1      -0.557  10.626  21.776  0.00  0.00    +0.000 A 
ATOM     30  C   UNL     1      -0.042   9.502  22.412  0.00  0.00    +0.000 A 
ATOM     31  C   UNL     1       0.781   8.619  21.708  0.00  0.00    +0.000 A 
ENDBRANCH  23  26
ENDBRANCH  19  20
ENDBRANCH   1  19
TORSDOF 8
ENDMDL
MODEL 7
REMARK VINA RESULT:      -8.3      4.109      8.235
REMARK  Name = 
REMARK  8 active torsions:
REMARK  status: ('A' for Active; 'I' for Inactive)
REMARK    1  A    between atoms: C_2  and  O_3
REMARK    2  A    between atoms: C_2  and  C_4
REMARK    3  A    between atoms: C_4  and  C_5
REMARK    4  A    between atoms: C_4  and  O_18
REMARK    5  A    between atoms: C_5  and  C_6
REMARK    6  A    between atoms: C_9  and  C_10
REMARK    7  A    between atoms: O_18  and  C_19
REMARK    8  A    between atoms: C_22  and  C_23
REMARK                            x       y       z     vdW  Elec       q    Type
REMARK                         _______ _______ _______ _____ _____    ______ ____
ROOT
ATOM      1  C   UNL     1       2.175   4.898  19.838  0.00  0.00    +0.000 C 
ENDROOT
BRANCH   1   3
ATOM      2  O   UNL     1       0.944   2.824  19.497  0.00  0.00    +0.000 OA
ATOM      3  C   UNL     1       1.523   3.579  20.266  0.00  0.00    +0.000 C 
BRANCH   3   4
ATOM      4  O   UNL     1       1.679   3.281  21.579  0.00  0.00    +0.000 OA
ATOM      5  H   UNL     1       2.615   3.380  21.852  0.00  0.00    +0.000 HD
ENDBRANCH   3   4
ENDBRANCH   1   3
BRANCH   1   6
ATOM      6  C   UNL     1       3.687   4.648  19.773  0.00  0.00    +0.000 C 
BRANCH   6   7
ATOM      7  C   UNL     1       4.229   4.575  18.364  0.00  0.00    +0.000 A 
ATOM      8  C   UNL     1       4.773   5.711  17.763  0.00  0.00    +0.000 A 
ATOM      9  C   UNL     1       5.336   5.640  16.486  0.00  0.00    +0.000 A 
ATOM     10  C   UNL     1       5.389   4.434  15.766  0.00  0.00    +0.000 A 
ATOM     11  C   UNL     1       4.802   3.307  16.370  0.00  0.00    +0.000 A 
ATOM     12  C   UNL     1       4.221   3.376  17.645  0.00  0.00    +0.000 A 
BRANCH  10  13
ATOM     13  C   UNL     1       6.044   4.370  14.436  0.00  0.00    +0.000 A 
ATOM     14  C   UNL     1       7.189   5.140  14.153  0.00  0.00    +0.000 A 
ATOM     15  C   UNL     1       7.788   5.130  12.890  0.00  0.00    +0.000 A 
ATOM     16  C   UNL     1       7.266   4.329  11.880  0.00  0.00    +0.000 A 
ATOM     17  C   UNL     1       6.154   3.536  12.138  0.00  0.00    +0.000 A 
ATOM     18  C   UNL     1       5.548   3.558  13.401  0.00  0.00    +0.000 A 
ENDBRANCH  10  13
ENDBRANCH   6   7
ENDBRANCH   1   6
BRANCH   1  19
ATOM     19  O   UNL     1       1.911   5.934  20.798  0.00  0.00    +0.000 OA
BRANCH  19  20
ATOM     20  C   UNL     1       1.724   7.210  20.340  0.00  0.00    +0.000 A 
ATOM     21  C   UNL     1       1.113   8.073  21.250  0.00  0.00    +0.000 A 
ATOM     22  C   UNL     1       0.762   9.376  20.872  0.00  0.00    +0.000 A 
ATOM     23  C   UNL     1       1.039   9.867  19.584  0.00  0.00    +0.000 A 
ATOM     24  C   UNL     1       1.729   9.005  18.718  0.00  0.00    +0.000 A 
ATOM     25  C   UNL     1       2.066   7.694  19.083  0.00  0.00    +0.000 A 
BRANCH  23  26
ATOM     26  C   UNL     1       0.607  11.214  19.143  0.00  0.00    +0.000 A 
ATOM     27  C   UNL     1      -0.702  11.466  18.693  0.00  0.00    +0.000 A 
ATOM     28  C   UNL     1      -1.094  12.738  18.263  0.00  0.00    +0.000 A 
ATOM     29  C   UNL     1      -0.189  13.795  18.285  0.00  0.00    +0.000 A 
ATOM     30  C   UNL     1       1.111  13.578  18.728  0.00  0.00    +0.000 A 
ATOM     31  C   UNL     1       1.503  12.302  19.142  0.00  0.00    +0.000 A 
ENDBRANCH  23  26
ENDBRANCH  19  20
ENDBRANCH   1  19
TORSDOF 8
ENDMDL
MODEL 8
REMARK VINA RESULT:      -8.2      1.348      7.453
REMARK  Name = 
REMARK  8 active torsions:
REMARK  status: ('A' for Active; 'I' for Inactive)
REMARK    1  A    between atoms: C_2  and  O_3
REMARK    2  A    between atoms: C_2  and  C_4
REMARK    3  A    between atoms: C_4  and  C_5
REMARK    4  A    between atoms: C_4  and  O_18
REMARK    5  A    between atoms: C_5  and  C_6
REMARK    6  A    between atoms: C_9  and  C_10
REMARK    7  A    between atoms: O_18  and  C_19
REMARK    8  A    between atoms: C_22  and  C_23
REMARK                            x       y       z     vdW  Elec       q    Type
REMARK                         _______ _______ _______ _____ _____    ______ ____
ROOT
ATOM      1  C   UNL     1       5.803   5.528  16.464  0.00  0.00    +0.000 C 
ENDROOT
BRANCH   1   3
ATOM      2  O   UNL     1       6.113   3.536  15.096  0.00  0.00    +0.000 OA
ATOM      3  C   UNL     1       6.480   4.665  15.394  0.00  0.00    +0.000 C 
BRANCH   3   4
ATOM      4  O   UNL     1       7.508   5.274  14.755  0.00  0.00    +0.000 OA
ATOM      5  H   UNL     1       7.180   5.979  14.158  0.00  0.00    +0.000 HD
ENDBRANCH   3   4
ENDBRANCH   1   3
BRANCH   1   6
ATOM      6  C   UNL     1       6.719   5.515  17.694  0.00  0.00    +0.000 C 
BRANCH   6   7
ATOM      7  C   UNL     1       7.417   6.833  17.943  0.00  0.00    +0.000 A 
ATOM      8  C   UNL     1       7.119   7.943  17.152  0.00  0.00    +0.000 A 
ATOM      9  C   UNL     1       7.709   9.183  17.415  0.00  0.00    +0.000 A 
ATOM     10  C   UNL     1       8.607   9.364  18.481  0.00  0.00    +0.000 A 
ATOM     11  C   UNL     1       8.926   8.227  19.244  0.00  0.00    +0.000 A 
ATOM     12  C   UNL     1       8.348   6.976  18.976  0.00  0.00    +0.000 A 
BRANCH  10  13
ATOM     13  C   UNL     1       9.175  10.702  18.776  0.00  0.00    +0.000 A 
ATOM     14  C   UNL     1       8.933  11.799  17.924  0.00  0.00    +0.000 A 
ATOM     15  C   UNL     1       9.503  13.053  18.161  0.00  0.00    +0.000 A 
ATOM     16  C   UNL     1      10.315  13.249  19.272  0.00  0.00    +0.000 A 
ATOM     17  C   UNL     1      10.549  12.194  20.146  0.00  0.00    +0.000 A 
ATOM     18  C   UNL     1       9.987  10.935  19.900  0.00  0.00    +0.000 A 
ENDBRANCH  10  13
ENDBRANCH   6   7
ENDBRANCH   1   6
BRANCH   1  19
ATOM     19  O   UNL     1       4.524   4.984  16.826  0.00  0.00    +0.000 OA
BRANCH  19  20
ATOM     20  C   UNL     1       3.698   5.738  17.615  0.00  0.00    +0.000 A 
ATOM     21  C   UNL     1       3.524   7.055  17.188  0.00  0.00    +0.000 A 
ATOM     22  C   UNL     1       2.793   7.966  17.962  0.00  0.00    +0.000 A 
ATOM     23  C   UNL     1       2.187   7.581  19.171  0.00  0.00    +0.000 A 
ATOM     24  C   UNL     1       2.308   6.231  19.533  0.00  0.00    +0.000 A 
ATOM     25  C   UNL     1       3.054   5.319  18.773  0.00  0.00    +0.000 A 
BRANCH  23  26
ATOM     26  C   UNL     1       1.477   8.549  20.041  0.00  0.00    +0.000 A 
ATOM     27  C   UNL     1       1.037   9.796  19.564  0.00  0.00    +0.000 A 
ATOM     28  C   UNL     1       0.382  10.708  20.399  0.00  0.00    +0.000 A 
ATOM     29  C   UNL     1       0.140  10.389  21.731  0.00  0.00    +0.000 A 
ATOM     30  C   UNL     1       0.561   9.162  22.231  0.00  0.00    +0.000 A 
ATOM     31  C   UNL     1       1.228   8.260  21.397  0.00  0.00    +0.000 A 
ENDBRANCH  23  26
ENDBRANCH  19  20
ENDBRANCH   1  19
TORSDOF 8
ENDMDL
MODEL 9
REMARK VINA RESULT:      -8.2      3.954      8.235
REMARK  Name = 
REMARK  8 active torsions:
REMARK  status: ('A' for Active; 'I' for Inactive)
REMARK    1  A    between atoms: C_2  and  O_3
REMARK    2  A    between atoms: C_2  and  C_4
REMARK    3  A    between atoms: C_4  and  C_5
REMARK    4  A    between atoms: C_4  and  O_18
REMARK    5  A    between atoms: C_5  and  C_6
REMARK    6  A    between atoms: C_9  and  C_10
REMARK    7  A    between atoms: O_18  and  C_19
REMARK    8  A    between atoms: C_22  and  C_23
REMARK                            x       y       z     vdW  Elec       q    Type
REMARK                         _______ _______ _______ _____ _____    ______ ____
ROOT
ATOM      1  C   UNL     1       2.167   5.214  19.636  0.00  0.00    +0.000 C 
ENDROOT
BRANCH   1   3
ATOM      2  O   UNL     1       1.123   3.460  20.966  0.00  0.00    +0.000 OA
ATOM      3  C   UNL     1       1.409   3.902  19.861  0.00  0.00    +0.000 C 
BRANCH   3   4
ATOM      4  O   UNL     1       1.028   3.276  18.721  0.00  0.00    +0.000 OA
ATOM      5  H   UNL     1       0.747   2.355  18.904  0.00  0.00    +0.000 HD
ENDBRANCH   3   4
ENDBRANCH   1   3
BRANCH   1   6
ATOM      6  C   UNL     1       3.663   4.892  19.752  0.00  0.00    +0.000 C 
BRANCH   6   7
ATOM      7  C   UNL     1       4.366   4.795  18.417  0.00  0.00    +0.000 A 
ATOM      8  C   UNL     1       4.417   3.575  17.741  0.00  0.00    +0.000 A 
ATOM      9  C   UNL     1       5.007   3.488  16.476  0.00  0.00    +0.000 A 
ATOM     10  C   UNL     1       5.557   4.612  15.837  0.00  0.00    +0.000 A 
ATOM     11  C   UNL     1       5.531   5.824  16.549  0.00  0.00    +0.000 A 
ATOM     12  C   UNL     1       4.954   5.915  17.824  0.00  0.00    +0.000 A 
BRANCH  10  13
ATOM     13  C   UNL     1       6.126   4.507  14.470  0.00  0.00    +0.000 A 
ATOM     14  C   UNL     1       5.576   3.623  13.521  0.00  0.00    +0.000 A 
ATOM     15  C   UNL     1       6.131   3.474  12.246  0.00  0.00    +0.000 A 
ATOM     16  C   UNL     1       7.242   4.226  11.881  0.00  0.00    +0.000 A 
ATOM     17  C   UNL     1       7.789   5.128  12.787  0.00  0.00    +0.000 A 
ATOM     18  C   UNL     1       7.239   5.266  14.067  0.00  0.00    +0.000 A 
ENDBRANCH  10  13
ENDBRANCH   6   7
ENDBRANCH   1   6
BRANCH   1  19
ATOM     19  O   UNL     1       1.818   6.184  20.636  0.00  0.00    +0.000 OA
BRANCH  19  20
ATOM     20  C   UNL     1       1.658   7.487  20.248  0.00  0.00    +0.000 A 
ATOM     21  C   UNL     1       1.161   8.335  21.238  0.00  0.00    +0.000 A 
ATOM     22  C   UNL     1       0.848   9.669  20.943  0.00  0.00    +0.000 A 
ATOM     23  C   UNL     1       1.050  10.204  19.660  0.00  0.00    +0.000 A 
ATOM     24  C   UNL     1       1.630   9.352  18.707  0.00  0.00    +0.000 A 
ATOM     25  C   UNL     1       1.928   8.012  18.990  0.00  0.00    +0.000 A 
BRANCH  23  26
ATOM     26  C   UNL     1       0.652  11.588  19.310  0.00  0.00    +0.000 A 
ATOM     27  C   UNL     1      -0.697  11.975  19.219  0.00  0.00    +0.000 A 
ATOM     28  C   UNL     1      -1.060  13.281  18.872  0.00  0.00    +0.000 A 
ATOM     29  C   UNL     1      -0.082  14.237  18.619  0.00  0.00    +0.000 A 
ATOM     30  C   UNL     1       1.261  13.886  18.704  0.00  0.00    +0.000 A 
ATOM     31  C   UNL     1       1.619  12.576  19.036  0.00  0.00    +0.000 A 
ENDBRANCH  23  26
ENDBRANCH  19  20
ENDBRANCH   1  19
TORSDOF 8
ENDMDL
