MODEL 1
REMARK VINA RESULT:      -7.2      0.000      0.000
REMARK  Name = 
REMARK  8 active torsions:
REMARK  status: ('A' for Active; 'I' for Inactive)
REMARK    1  A    between atoms: C_1  and  C_2
REMARK    2  A    between atoms: C_2  and  O_3
REMARK    3  A    between atoms: O_3  and  C_4
REMARK    4  A    between atoms: C_4  and  C_6
REMARK    5  A    between atoms: N_12  and  C_13
REMARK    6  A    between atoms: C_13  and  C_14
REMARK    7  A    between atoms: C_16  and  C_17
REMARK    8  A    between atoms: C_20  and  C_21
REMARK                            x       y       z     vdW  Elec       q    Type
REMARK                         _______ _______ _______ _____ _____    ______ ____
ROOT
ATOM      1  C   UNL     1      -5.498  11.975  18.967  0.00  0.00    +0.000 A 
ATOM      2  C   UNL     1      -4.642  11.617  17.919  0.00  0.00    +0.000 A 
ATOM      3  C   UNL     1      -3.256  11.689  18.097  0.00  0.00    +0.000 A 
ATOM      4  C   UNL     1      -2.739  12.157  19.312  0.00  0.00    +0.000 A 
ATOM      5  C   UNL     1      -3.576  12.541  20.348  0.00  0.00    +0.000 A 
ATOM      6  C   UNL     1      -4.952  12.389  20.190  0.00  0.00    +0.000 A 
ATOM      7  N   UNL     1      -3.076  13.111  21.536  0.00  0.00    +0.000 N 
ATOM      8  C   UNL     1      -2.437  12.340  22.497  0.00  0.00    +0.000 C 
ATOM      9  O   UNL     1      -2.628  12.500  23.702  0.00  0.00    +0.000 OA
ATOM     10  C   UNL     1      -1.405  11.322  22.147  0.00  0.00    +0.000 A 
ATOM     11  C   UNL     1      -1.048  10.455  23.204  0.00  0.00    +0.000 A 
ATOM     12  C   UNL     1       0.056   9.608  23.117  0.00  0.00    +0.000 A 
ATOM     13  C   UNL     1       0.826   9.601  21.963  0.00  0.00    +0.000 A 
ATOM     14  C   UNL     1       0.479  10.424  20.894  0.00  0.00    +0.000 A 
ATOM     15  C   UNL     1      -0.631  11.284  20.984  0.00  0.00    +0.000 A 
ATOM     16  S   UNL     1      -0.998  12.273  19.569  0.00  0.00    +0.000 S 
ATOM     17  O   UNL     1      -0.684  13.649  19.893  0.00  0.00    +0.000 OA
ATOM     18  O   UNL     1      -0.377  11.625  18.426  0.00  0.00    +0.000 OA
ENDROOT
BRANCH   1  19
ATOM     19  C   UNL     1      -6.978  11.939  18.860  0.00  0.00    +0.000 C 
ATOM     20  O   UNL     1      -7.619  12.708  18.165  0.00  0.00    +0.000 OA
BRANCH  19  21
ATOM     21  O   UNL     1      -7.483  10.995  19.688  0.00  0.00    +0.000 OA
BRANCH  21  23
ATOM     22  C   UNL     1      -7.584   8.756  20.490  0.00  0.00    +0.000 C 
ATOM     23  C   UNL     1      -7.119   9.650  19.354  0.00  0.00    +0.000 C 
ENDBRANCH  21  23
ENDBRANCH  19  21
ENDBRANCH   1  19
BRANCH   7  24
ATOM     24  C   UNL     1      -3.386  14.536  21.816  0.00  0.00    +0.000 C 
BRANCH  24  25
ATOM     25  C   UNL     1      -4.848  14.877  22.017  0.00  0.00    +0.000 A 
ATOM     26  C   UNL     1      -5.514  14.274  23.101  0.00  0.00    +0.000 A 
ATOM     27  C   UNL     1      -6.900  14.333  23.249  0.00  0.00    +0.000 A 
ATOM     28  C   UNL     1      -7.577  13.515  24.307  0.00  0.00    +0.000 C 
ATOM     29  C   UNL     1      -7.634  15.071  22.326  0.00  0.00    +0.000 A 
ATOM     30  C   UNL     1      -6.981  15.780  21.314  0.00  0.00    +0.000 A 
ATOM     31  C   UNL     1      -5.593  15.713  21.161  0.00  0.00    +0.000 A 
ATOM     32  C   UNL     1      -4.943  16.591  20.119  0.00  0.00    +0.000 C 
ENDBRANCH  24  25
ENDBRANCH   7  24
TORSDOF 5
ENDMDL
MODEL 2
REMARK VINA RESULT:      -7.2      0.942      1.372
REMARK  Name = 
REMARK  8 active torsions:
REMARK  status: ('A' for Active; 'I' for Inactive)
REMARK    1  A    between atoms: C_1  and  C_2
REMARK    2  A    between atoms: C_2  and  O_3
REMARK    3  A    between atoms: O_3  and  C_4
REMARK    4  A    between atoms: C_4  and  C_6
REMARK    5  A    between atoms: N_12  and  C_13
REMARK    6  A    between atoms: C_13  and  C_14
REMARK    7  A    between atoms: C_16  and  C_17
REMARK    8  A    between atoms: C_20  and  C_21
REMARK                            x       y       z     vdW  Elec       q    Type
REMARK                         _______ _______ _______ _____ _____    ______ ____
ROOT
ATOM      1  C   UNL     1      -5.078  11.806  18.512  0.00  0.00    +0.000 A 
ATOM      2  C   UNL     1      -4.161  11.339  17.564  0.00  0.00    +0.000 A 
ATOM      3  C   UNL     1      -2.791  11.374  17.846  0.00  0.00    +0.000 A 
ATOM      4  C   UNL     1      -2.349  11.912  19.061  0.00  0.00    +0.000 A 
ATOM      5  C   UNL     1      -3.245  12.402  19.997  0.00  0.00    +0.000 A 
ATOM      6  C   UNL     1      -4.610  12.290  19.742  0.00  0.00    +0.000 A 
ATOM      7  N   UNL     1      -2.813  13.041  21.178  0.00  0.00    +0.000 N 
ATOM      8  C   UNL     1      -2.283  12.320  22.239  0.00  0.00    +0.000 C 
ATOM      9  O   UNL     1      -2.558  12.577  23.410  0.00  0.00    +0.000 OA
ATOM     10  C   UNL     1      -1.272  11.242  22.045  0.00  0.00    +0.000 A 
ATOM     11  C   UNL     1      -1.033  10.444  23.187  0.00  0.00    +0.000 A 
ATOM     12  C   UNL     1       0.037   9.553  23.249  0.00  0.00    +0.000 A 
ATOM     13  C   UNL     1       0.892   9.431  22.162  0.00  0.00    +0.000 A 
ATOM     14  C   UNL     1       0.662  10.184  21.012  0.00  0.00    +0.000 A 
ATOM     15  C   UNL     1      -0.413  11.089  20.953  0.00  0.00    +0.000 A 
ATOM     16  S   UNL     1      -0.629  11.982  19.447  0.00  0.00    +0.000 S 
ATOM     17  O   UNL     1      -0.282  13.367  19.695  0.00  0.00    +0.000 OA
ATOM     18  O   UNL     1       0.049  11.229  18.405  0.00  0.00    +0.000 OA
ENDROOT
BRANCH   1  19
ATOM     19  C   UNL     1      -6.546  11.817  18.292  0.00  0.00    +0.000 C 
ATOM     20  O   UNL     1      -7.085  12.450  17.401  0.00  0.00    +0.000 OA
BRANCH  19  21
ATOM     21  O   UNL     1      -7.168  11.094  19.252  0.00  0.00    +0.000 OA
BRANCH  21  23
ATOM     22  C   UNL     1      -7.519   9.049  20.419  0.00  0.00    +0.000 C 
ATOM     23  C   UNL     1      -6.998   9.676  19.138  0.00  0.00    +0.000 C 
ENDBRANCH  21  23
ENDBRANCH  19  21
ENDBRANCH   1  19
BRANCH   7  24
ATOM     24  C   UNL     1      -3.083  14.493  21.329  0.00  0.00    +0.000 C 
BRANCH  24  25
ATOM     25  C   UNL     1      -4.099  14.880  22.384  0.00  0.00    +0.000 A 
ATOM     26  C   UNL     1      -5.420  14.423  22.215  0.00  0.00    +0.000 A 
ATOM     27  C   UNL     1      -6.477  14.900  22.990  0.00  0.00    +0.000 A 
ATOM     28  C   UNL     1      -7.888  14.530  22.644  0.00  0.00    +0.000 C 
ATOM     29  C   UNL     1      -6.197  15.808  24.005  0.00  0.00    +0.000 A 
ATOM     30  C   UNL     1      -4.876  16.181  24.271  0.00  0.00    +0.000 A 
ATOM     31  C   UNL     1      -3.818  15.709  23.489  0.00  0.00    +0.000 A 
ATOM     32  C   UNL     1      -2.409  16.062  23.900  0.00  0.00    +0.000 C 
ENDBRANCH  24  25
ENDBRANCH   7  24
TORSDOF 5
ENDMDL
MODEL 3
REMARK VINA RESULT:      -7.1      3.405      7.157
REMARK  Name = 
REMARK  8 active torsions:
REMARK  status: ('A' for Active; 'I' for Inactive)
REMARK    1  A    between atoms: C_1  and  C_2
REMARK    2  A    between atoms: C_2  and  O_3
REMARK    3  A    between atoms: O_3  and  C_4
REMARK    4  A    between atoms: C_4  and  C_6
REMARK    5  A    between atoms: N_12  and  C_13
REMARK    6  A    between atoms: C_13  and  C_14
REMARK    7  A    between atoms: C_16  and  C_17
REMARK    8  A    between atoms: C_20  and  C_21
REMARK                            x       y       z     vdW  Elec       q    Type
REMARK                         _______ _______ _______ _____ _____    ______ ____
ROOT
ATOM      1  C   UNL     1       1.217   8.663  20.623  0.00  0.00    +0.000 A 
ATOM      2  C   UNL     1       0.960   8.765  21.995  0.00  0.00    +0.000 A 
ATOM      3  C   UNL     1       0.274   9.878  22.494  0.00  0.00    +0.000 A 
ATOM      4  C   UNL     1      -0.114  10.899  21.618  0.00  0.00    +0.000 A 
ATOM      5  C   UNL     1       0.158  10.824  20.261  0.00  0.00    +0.000 A 
ATOM      6  C   UNL     1       0.769   9.675  19.763  0.00  0.00    +0.000 A 
ATOM      7  N   UNL     1      -0.133  11.888  19.384  0.00  0.00    +0.000 N 
ATOM      8  C   UNL     1      -1.433  12.165  18.986  0.00  0.00    +0.000 C 
ATOM      9  O   UNL     1      -1.715  12.475  17.829  0.00  0.00    +0.000 OA
ATOM     10  C   UNL     1      -2.573  12.194  19.947  0.00  0.00    +0.000 A 
ATOM     11  C   UNL     1      -3.852  12.234  19.346  0.00  0.00    +0.000 A 
ATOM     12  C   UNL     1      -5.003  12.498  20.087  0.00  0.00    +0.000 A 
ATOM     13  C   UNL     1      -4.903  12.721  21.453  0.00  0.00    +0.000 A 
ATOM     14  C   UNL     1      -3.658  12.658  22.076  0.00  0.00    +0.000 A 
ATOM     15  C   UNL     1      -2.496  12.399  21.328  0.00  0.00    +0.000 A 
ATOM     16  S   UNL     1      -0.971  12.323  22.212  0.00  0.00    +0.000 S 
ATOM     17  O   UNL     1      -0.192  13.492  21.861  0.00  0.00    +0.000 OA
ATOM     18  O   UNL     1      -1.299  12.046  23.600  0.00  0.00    +0.000 OA
ENDROOT
BRANCH   1  19
ATOM     19  C   UNL     1       1.946   7.525  20.012  0.00  0.00    +0.000 C 
ATOM     20  O   UNL     1       2.562   7.608  18.963  0.00  0.00    +0.000 OA
BRANCH  19  21
ATOM     21  O   UNL     1       1.760   6.402  20.744  0.00  0.00    +0.000 OA
BRANCH  21  23
ATOM     22  C   UNL     1       1.057   4.149  20.436  0.00  0.00    +0.000 C 
ATOM     23  C   UNL     1       2.105   5.185  20.072  0.00  0.00    +0.000 C 
ENDBRANCH  21  23
ENDBRANCH  19  21
ENDBRANCH   1  19
BRANCH   7  24
ATOM     24  C   UNL     1       1.003  12.617  18.764  0.00  0.00    +0.000 C 
BRANCH  24  25
ATOM     25  C   UNL     1       1.136  14.082  19.124  0.00  0.00    +0.000 A 
ATOM     26  C   UNL     1       0.162  14.967  18.624  0.00  0.00    +0.000 A 
ATOM     27  C   UNL     1       0.307  16.353  18.699  0.00  0.00    +0.000 A 
ATOM     28  C   UNL     1      -0.659  17.247  17.982  0.00  0.00    +0.000 C 
ATOM     29  C   UNL     1       1.422  16.868  19.350  0.00  0.00    +0.000 A 
ATOM     30  C   UNL     1       2.338  16.008  19.963  0.00  0.00    +0.000 A 
ATOM     31  C   UNL     1       2.197  14.620  19.880  0.00  0.00    +0.000 A 
ATOM     32  C   UNL     1       3.159  13.754  20.658  0.00  0.00    +0.000 C 
ENDBRANCH  24  25
ENDBRANCH   7  24
TORSDOF 5
ENDMDL
MODEL 4
REMARK VINA RESULT:      -7.1      1.443      2.110
REMARK  Name = 
REMARK  8 active torsions:
REMARK  status: ('A' for Active; 'I' for Inactive)
REMARK    1  A    between atoms: C_1  and  C_2
REMARK    2  A    between atoms: C_2  and  O_3
REMARK    3  A    between atoms: O_3  and  C_4
REMARK    4  A    between atoms: C_4  and  C_6
REMARK    5  A    between atoms: N_12  and  C_13
REMARK    6  A    between atoms: C_13  and  C_14
REMARK    7  A    between atoms: C_16  and  C_17
REMARK    8  A    between atoms: C_20  and  C_21
REMARK                            x       y       z     vdW  Elec       q    Type
REMARK                         _______ _______ _______ _____ _____    ______ ____
ROOT
ATOM      1  C   UNL     1      -4.599  11.816  18.188  0.00  0.00    +0.000 A 
ATOM      2  C   UNL     1      -3.586  11.399  17.316  0.00  0.00    +0.000 A 
ATOM      3  C   UNL     1      -2.251  11.442  17.730  0.00  0.00    +0.000 A 
ATOM      4  C   UNL     1      -1.937  11.939  19.002  0.00  0.00    +0.000 A 
ATOM      5  C   UNL     1      -2.927  12.380  19.865  0.00  0.00    +0.000 A 
ATOM      6  C   UNL     1      -4.260  12.258  19.474  0.00  0.00    +0.000 A 
ATOM      7  N   UNL     1      -2.623  12.978  21.104  0.00  0.00    +0.000 N 
ATOM      8  C   UNL     1      -2.184  12.224  22.184  0.00  0.00    +0.000 C 
ATOM      9  O   UNL     1      -2.576  12.431  23.333  0.00  0.00    +0.000 OA
ATOM     10  C   UNL     1      -1.140  11.168  22.049  0.00  0.00    +0.000 A 
ATOM     11  C   UNL     1      -0.999  10.330  23.178  0.00  0.00    +0.000 A 
ATOM     12  C   UNL     1       0.077   9.452  23.310  0.00  0.00    +0.000 A 
ATOM     13  C   UNL     1       1.034   9.385  22.308  0.00  0.00    +0.000 A 
ATOM     14  C   UNL     1       0.903  10.179  21.170  0.00  0.00    +0.000 A 
ATOM     15  C   UNL     1      -0.178  11.070  21.040  0.00  0.00    +0.000 A 
ATOM     16  S   UNL     1      -0.264  12.018  19.555  0.00  0.00    +0.000 S 
ATOM     17  O   UNL     1       0.033  13.396  19.887  0.00  0.00    +0.000 OA
ATOM     18  O   UNL     1       0.525  11.315  18.556  0.00  0.00    +0.000 OA
ENDROOT
BRANCH   1  19
ATOM     19  C   UNL     1      -6.038  11.814  17.827  0.00  0.00    +0.000 C 
ATOM     20  O   UNL     1      -6.811  10.931  18.156  0.00  0.00    +0.000 OA
BRANCH  19  21
ATOM     21  O   UNL     1      -6.324  12.877  17.039  0.00  0.00    +0.000 OA
BRANCH  21  23
ATOM     22  C   UNL     1      -6.870  14.755  18.396  0.00  0.00    +0.000 C 
ATOM     23  C   UNL     1      -7.427  13.674  17.487  0.00  0.00    +0.000 C 
ENDBRANCH  21  23
ENDBRANCH  19  21
ENDBRANCH   1  19
BRANCH   7  24
ATOM     24  C   UNL     1      -2.932  14.419  21.283  0.00  0.00    +0.000 C 
BRANCH  24  25
ATOM     25  C   UNL     1      -4.037  14.752  22.264  0.00  0.00    +0.000 A 
ATOM     26  C   UNL     1      -5.331  14.280  21.971  0.00  0.00    +0.000 A 
ATOM     27  C   UNL     1      -6.457  14.712  22.673  0.00  0.00    +0.000 A 
ATOM     28  C   UNL     1      -7.827  14.333  22.200  0.00  0.00    +0.000 C 
ATOM     29  C   UNL     1      -6.277  15.587  23.739  0.00  0.00    +0.000 A 
ATOM     30  C   UNL     1      -4.989  15.970  24.125  0.00  0.00    +0.000 A 
ATOM     31  C   UNL     1      -3.863  15.544  23.416  0.00  0.00    +0.000 A 
ATOM     32  C   UNL     1      -2.498  15.904  23.954  0.00  0.00    +0.000 C 
ENDBRANCH  24  25
ENDBRANCH   7  24
TORSDOF 5
ENDMDL
MODEL 5
REMARK VINA RESULT:      -6.8      2.476      6.352
REMARK  Name = 
REMARK  8 active torsions:
REMARK  status: ('A' for Active; 'I' for Inactive)
REMARK    1  A    between atoms: C_1  and  C_2
REMARK    2  A    between atoms: C_2  and  O_3
REMARK    3  A    between atoms: O_3  and  C_4
REMARK    4  A    between atoms: C_4  and  C_6
REMARK    5  A    between atoms: N_12  and  C_13
REMARK    6  A    between atoms: C_13  and  C_14
REMARK    7  A    between atoms: C_16  and  C_17
REMARK    8  A    between atoms: C_20  and  C_21
REMARK                            x       y       z     vdW  Elec       q    Type
REMARK                         _______ _______ _______ _____ _____    ______ ____
ROOT
ATOM      1  C   UNL     1      -3.534  12.071  19.183  0.00  0.00    +0.000 A 
ATOM      2  C   UNL     1      -4.906  11.986  19.447  0.00  0.00    +0.000 A 
ATOM      3  C   UNL     1      -5.391  12.322  20.716  0.00  0.00    +0.000 A 
ATOM      4  C   UNL     1      -4.494  12.702  21.721  0.00  0.00    +0.000 A 
ATOM      5  C   UNL     1      -3.130  12.765  21.480  0.00  0.00    +0.000 A 
ATOM      6  C   UNL     1      -2.665  12.507  20.192  0.00  0.00    +0.000 A 
ATOM      7  N   UNL     1      -2.205  13.044  22.506  0.00  0.00    +0.000 N 
ATOM      8  C   UNL     1      -2.052  14.326  23.015  0.00  0.00    +0.000 C 
ATOM      9  O   UNL     1      -0.948  14.801  23.282  0.00  0.00    +0.000 OA
ATOM     10  C   UNL     1      -3.216  15.192  23.359  0.00  0.00    +0.000 A 
ATOM     11  C   UNL     1      -2.892  16.544  23.616  0.00  0.00    +0.000 A 
ATOM     12  C   UNL     1      -3.815  17.427  24.175  0.00  0.00    +0.000 A 
ATOM     13  C   UNL     1      -5.092  16.979  24.483  0.00  0.00    +0.000 A 
ATOM     14  C   UNL     1      -5.448  15.659  24.212  0.00  0.00    +0.000 A 
ATOM     15  C   UNL     1      -4.515  14.767  23.656  0.00  0.00    +0.000 A 
ATOM     16  S   UNL     1      -5.068  13.122  23.335  0.00  0.00    +0.000 S 
ATOM     17  O   UNL     1      -4.420  12.240  24.284  0.00  0.00    +0.000 OA
ATOM     18  O   UNL     1      -6.518  13.171  23.247  0.00  0.00    +0.000 OA
ENDROOT
BRANCH   1  19
ATOM     19  C   UNL     1      -2.933  11.724  17.871  0.00  0.00    +0.000 C 
ATOM     20  O   UNL     1      -1.774  11.965  17.580  0.00  0.00    +0.000 OA
BRANCH  19  21
ATOM     21  O   UNL     1      -3.869  11.185  17.056  0.00  0.00    +0.000 OA
BRANCH  21  23
ATOM     22  C   UNL     1      -3.029   9.710  15.386  0.00  0.00    +0.000 C 
ATOM     23  C   UNL     1      -3.495  11.126  15.674  0.00  0.00    +0.000 C 
ENDBRANCH  21  23
ENDBRANCH  19  21
ENDBRANCH   1  19
BRANCH   7  24
ATOM     24  C   UNL     1      -1.278  11.964  22.929  0.00  0.00    +0.000 C 
BRANCH  24  25
ATOM     25  C   UNL     1      -0.328  11.443  21.869  0.00  0.00    +0.000 A 
ATOM     26  C   UNL     1       0.351  12.390  21.081  0.00  0.00    +0.000 A 
ATOM     27  C   UNL     1       1.067  12.032  19.938  0.00  0.00    +0.000 A 
ATOM     28  C   UNL     1       1.607  13.092  19.027  0.00  0.00    +0.000 C 
ATOM     29  C   UNL     1       1.161  10.683  19.612  0.00  0.00    +0.000 A 
ATOM     30  C   UNL     1       0.600   9.716  20.451  0.00  0.00    +0.000 A 
ATOM     31  C   UNL     1      -0.124  10.076  21.591  0.00  0.00    +0.000 A 
ATOM     32  C   UNL     1      -0.607   8.980  22.510  0.00  0.00    +0.000 C 
ENDBRANCH  24  25
ENDBRANCH   7  24
TORSDOF 5
ENDMDL
MODEL 6
REMARK VINA RESULT:      -6.8      3.225      7.154
REMARK  Name = 
REMARK  8 active torsions:
REMARK  status: ('A' for Active; 'I' for Inactive)
REMARK    1  A    between atoms: C_1  and  C_2
REMARK    2  A    between atoms: C_2  and  O_3
REMARK    3  A    between atoms: O_3  and  C_4
REMARK    4  A    between atoms: C_4  and  C_6
REMARK    5  A    between atoms: N_12  and  C_13
REMARK    6  A    between atoms: C_13  and  C_14
REMARK    7  A    between atoms: C_16  and  C_17
REMARK    8  A    between atoms: C_20  and  C_21
REMARK                            x       y       z     vdW  Elec       q    Type
REMARK                         _______ _______ _______ _____ _____    ______ ____
ROOT
ATOM      1  C   UNL     1       0.773   8.858  20.970  0.00  0.00    +0.000 A 
ATOM      2  C   UNL     1       0.458   9.110  22.311  0.00  0.00    +0.000 A 
ATOM      3  C   UNL     1      -0.284  10.247  22.649  0.00  0.00    +0.000 A 
ATOM      4  C   UNL     1      -0.670  11.144  21.645  0.00  0.00    +0.000 A 
ATOM      5  C   UNL     1      -0.342  10.921  20.317  0.00  0.00    +0.000 A 
ATOM      6  C   UNL     1       0.327   9.745  19.981  0.00  0.00    +0.000 A 
ATOM      7  N   UNL     1      -0.632  11.863  19.310  0.00  0.00    +0.000 N 
ATOM      8  C   UNL     1      -1.924  12.042  18.836  0.00  0.00    +0.000 C 
ATOM      9  O   UNL     1      -2.169  12.204  17.640  0.00  0.00    +0.000 OA
ATOM     10  C   UNL     1      -3.101  12.141  19.745  0.00  0.00    +0.000 A 
ATOM     11  C   UNL     1      -4.356  12.061  19.098  0.00  0.00    +0.000 A 
ATOM     12  C   UNL     1      -5.544  12.368  19.760  0.00  0.00    +0.000 A 
ATOM     13  C   UNL     1      -5.506  12.753  21.093  0.00  0.00    +0.000 A 
ATOM     14  C   UNL     1      -4.286  12.810  21.763  0.00  0.00    +0.000 A 
ATOM     15  C   UNL     1      -3.087  12.509  21.093  0.00  0.00    +0.000 A 
ATOM     16  S   UNL     1      -1.596  12.594  22.034  0.00  0.00    +0.000 S 
ATOM     17  O   UNL     1      -0.843  13.743  21.575  0.00  0.00    +0.000 OA
ATOM     18  O   UNL     1      -1.970  12.470  23.433  0.00  0.00    +0.000 OA
ENDROOT
BRANCH   1  19
ATOM     19  C   UNL     1       1.563   7.684  20.525  0.00  0.00    +0.000 C 
ATOM     20  O   UNL     1       1.608   6.633  21.141  0.00  0.00    +0.000 OA
BRANCH  19  21
ATOM     21  O   UNL     1       2.259   7.986  19.404  0.00  0.00    +0.000 OA
BRANCH  21  23
ATOM     22  C   UNL     1       3.655   7.275  17.612  0.00  0.00    +0.000 C 
ATOM     23  C   UNL     1       2.534   6.868  18.552  0.00  0.00    +0.000 C 
ENDBRANCH  21  23
ENDBRANCH  19  21
ENDBRANCH   1  19
BRANCH   7  24
ATOM     24  C   UNL     1       0.503  12.556  18.649  0.00  0.00    +0.000 C 
BRANCH  24  25
ATOM     25  C   UNL     1       0.748  13.991  19.068  0.00  0.00    +0.000 A 
ATOM     26  C   UNL     1      -0.115  14.977  18.553  0.00  0.00    +0.000 A 
ATOM     27  C   UNL     1       0.149  16.340  18.685  0.00  0.00    +0.000 A 
ATOM     28  C   UNL     1      -0.693  17.342  17.954  0.00  0.00    +0.000 C 
ATOM     29  C   UNL     1       1.270  16.730  19.409  0.00  0.00    +0.000 A 
ATOM     30  C   UNL     1       2.072  15.771  20.035  0.00  0.00    +0.000 A 
ATOM     31  C   UNL     1       1.811  14.405  19.895  0.00  0.00    +0.000 A 
ATOM     32  C   UNL     1       2.649  13.430  20.688  0.00  0.00    +0.000 C 
ENDBRANCH  24  25
ENDBRANCH   7  24
TORSDOF 5
ENDMDL
MODEL 7
REMARK VINA RESULT:      -6.8      2.497      6.229
REMARK  Name = 
REMARK  8 active torsions:
REMARK  status: ('A' for Active; 'I' for Inactive)
REMARK    1  A    between atoms: C_1  and  C_2
REMARK    2  A    between atoms: C_2  and  O_3
REMARK    3  A    between atoms: O_3  and  C_4
REMARK    4  A    between atoms: C_4  and  C_6
REMARK    5  A    between atoms: N_12  and  C_13
REMARK    6  A    between atoms: C_13  and  C_14
REMARK    7  A    between atoms: C_16  and  C_17
REMARK    8  A    between atoms: C_20  and  C_21
REMARK                            x       y       z     vdW  Elec       q    Type
REMARK                         _______ _______ _______ _____ _____    ______ ____
ROOT
ATOM      1  C   UNL     1      -4.342  12.151  19.187  0.00  0.00    +0.000 A 
ATOM      2  C   UNL     1      -5.614  12.245  19.765  0.00  0.00    +0.000 A 
ATOM      3  C   UNL     1      -5.740  12.581  21.117  0.00  0.00    +0.000 A 
ATOM      4  C   UNL     1      -4.590  12.782  21.890  0.00  0.00    +0.000 A 
ATOM      5  C   UNL     1      -3.324  12.666  21.337  0.00  0.00    +0.000 A 
ATOM      6  C   UNL     1      -3.210  12.411  19.972  0.00  0.00    +0.000 A 
ATOM      7  N   UNL     1      -2.157  12.763  22.122  0.00  0.00    +0.000 N 
ATOM      8  C   UNL     1      -1.705  13.984  22.601  0.00  0.00    +0.000 C 
ATOM      9  O   UNL     1      -0.512  14.286  22.609  0.00  0.00    +0.000 OA
ATOM     10  C   UNL     1      -2.618  14.984  23.223  0.00  0.00    +0.000 A 
ATOM     11  C   UNL     1      -2.049  16.263  23.418  0.00  0.00    +0.000 A 
ATOM     12  C   UNL     1      -2.679  17.237  24.192  0.00  0.00    +0.000 A 
ATOM     13  C   UNL     1      -3.902  16.957  24.784  0.00  0.00    +0.000 A 
ATOM     14  C   UNL     1      -4.501  15.715  24.583  0.00  0.00    +0.000 A 
ATOM     15  C   UNL     1      -3.862  14.730  23.809  0.00  0.00    +0.000 A 
ATOM     16  S   UNL     1      -4.709  13.196  23.600  0.00  0.00    +0.000 S 
ATOM     17  O   UNL     1      -3.997  12.186  24.356  0.00  0.00    +0.000 OA
ATOM     18  O   UNL     1      -6.117  13.451  23.856  0.00  0.00    +0.000 OA
ENDROOT
BRANCH   1  19
ATOM     19  C   UNL     1      -4.117  11.790  17.766  0.00  0.00    +0.000 C 
ATOM     20  O   UNL     1      -5.002  11.398  17.025  0.00  0.00    +0.000 OA
BRANCH  19  21
ATOM     21  O   UNL     1      -2.803  11.893  17.460  0.00  0.00    +0.000 OA
BRANCH  21  23
ATOM     22  C   UNL     1      -2.078   9.659  17.070  0.00  0.00    +0.000 C 
ATOM     23  C   UNL     1      -2.358  11.006  16.427  0.00  0.00    +0.000 C 
ENDBRANCH  21  23
ENDBRANCH  19  21
ENDBRANCH   1  19
BRANCH   7  24
ATOM     24  C   UNL     1      -1.326  11.544  22.297  0.00  0.00    +0.000 C 
BRANCH  24  25
ATOM     25  C   UNL     1      -0.381  11.208  21.163  0.00  0.00    +0.000 A 
ATOM     26  C   UNL     1       0.176  12.280  20.440  0.00  0.00    +0.000 A 
ATOM     27  C   UNL     1       0.871  12.090  19.245  0.00  0.00    +0.000 A 
ATOM     28  C   UNL     1       1.274  13.272  18.416  0.00  0.00    +0.000 C 
ATOM     29  C   UNL     1       1.073  10.790  18.796  0.00  0.00    +0.000 A 
ATOM     30  C   UNL     1       0.637   9.705  19.562  0.00  0.00    +0.000 A 
ATOM     31  C   UNL     1      -0.067   9.896  20.754  0.00  0.00    +0.000 A 
ATOM     32  C   UNL     1      -0.410   8.684  21.586  0.00  0.00    +0.000 C 
ENDBRANCH  24  25
ENDBRANCH   7  24
TORSDOF 5
ENDMDL
MODEL 8
REMARK VINA RESULT:      -6.8      2.760      7.039
REMARK  Name = 
REMARK  8 active torsions:
REMARK  status: ('A' for Active; 'I' for Inactive)
REMARK    1  A    between atoms: C_1  and  C_2
REMARK    2  A    between atoms: C_2  and  O_3
REMARK    3  A    between atoms: O_3  and  C_4
REMARK    4  A    between atoms: C_4  and  C_6
REMARK    5  A    between atoms: N_12  and  C_13
REMARK    6  A    between atoms: C_13  and  C_14
REMARK    7  A    between atoms: C_16  and  C_17
REMARK    8  A    between atoms: C_20  and  C_21
REMARK                            x       y       z     vdW  Elec       q    Type
REMARK                         _______ _______ _______ _____ _____    ______ ____
ROOT
ATOM      1  C   UNL     1      -0.133  10.426  21.756  0.00  0.00    +0.000 A 
ATOM      2  C   UNL     1      -0.811  10.938  22.869  0.00  0.00    +0.000 A 
ATOM      3  C   UNL     1      -1.881  11.820  22.685  0.00  0.00    +0.000 A 
ATOM      4  C   UNL     1      -2.239  12.213  21.389  0.00  0.00    +0.000 A 
ATOM      5  C   UNL     1      -1.559  11.735  20.280  0.00  0.00    +0.000 A 
ATOM      6  C   UNL     1      -0.547  10.794  20.469  0.00  0.00    +0.000 A 
ATOM      7  N   UNL     1      -1.836  12.198  18.979  0.00  0.00    +0.000 N 
ATOM      8  C   UNL     1      -2.980  11.804  18.298  0.00  0.00    +0.000 C 
ATOM      9  O   UNL     1      -2.968  11.526  17.099  0.00  0.00    +0.000 OA
ATOM     10  C   UNL     1      -4.323  11.776  18.944  0.00  0.00    +0.000 A 
ATOM     11  C   UNL     1      -5.324  11.112  18.198  0.00  0.00    +0.000 A 
ATOM     12  C   UNL     1      -6.672  11.195  18.542  0.00  0.00    +0.000 A 
ATOM     13  C   UNL     1      -7.053  11.939  19.650  0.00  0.00    +0.000 A 
ATOM     14  C   UNL     1      -6.084  12.579  20.420  0.00  0.00    +0.000 A 
ATOM     15  C   UNL     1      -4.725  12.502  20.069  0.00  0.00    +0.000 A 
ATOM     16  S   UNL     1      -3.575  13.333  21.119  0.00  0.00    +0.000 S 
ATOM     17  O   UNL     1      -3.060  14.479  20.398  0.00  0.00    +0.000 OA
ATOM     18  O   UNL     1      -4.224  13.504  22.408  0.00  0.00    +0.000 OA
ENDROOT
BRANCH   1  19
ATOM     19  C   UNL     1       1.017   9.495  21.860  0.00  0.00    +0.000 C 
ATOM     20  O   UNL     1       1.708   9.390  22.860  0.00  0.00    +0.000 OA
BRANCH  19  21
ATOM     21  O   UNL     1       1.213   8.859  20.682  0.00  0.00    +0.000 OA
BRANCH  21  23
ATOM     22  C   UNL     1       2.372   7.094  19.582  0.00  0.00    +0.000 C 
ATOM     23  C   UNL     1       1.546   7.471  20.800  0.00  0.00    +0.000 C 
ENDBRANCH  21  23
ENDBRANCH  19  21
ENDBRANCH   1  19
BRANCH   7  24
ATOM     24  C   UNL     1      -0.798  12.999  18.282  0.00  0.00    +0.000 C 
BRANCH  24  25
ATOM     25  C   UNL     1       0.325  13.536  19.145  0.00  0.00    +0.000 A 
ATOM     26  C   UNL     1       0.021  14.589  20.029  0.00  0.00    +0.000 A 
ATOM     27  C   UNL     1       1.012  15.308  20.698  0.00  0.00    +0.000 A 
ATOM     28  C   UNL     1       0.651  16.539  21.473  0.00  0.00    +0.000 C 
ATOM     29  C   UNL     1       2.337  14.921  20.532  0.00  0.00    +0.000 A 
ATOM     30  C   UNL     1       2.651  13.801  19.758  0.00  0.00    +0.000 A 
ATOM     31  C   UNL     1       1.659  13.086  19.081  0.00  0.00    +0.000 A 
ATOM     32  C   UNL     1       2.055  11.823  18.355  0.00  0.00    +0.000 C 
ENDBRANCH  24  25
ENDBRANCH   7  24
TORSDOF 5
ENDMDL
MODEL 9
REMARK VINA RESULT:      -6.8      3.401      7.272
REMARK  Name = 
REMARK  8 active torsions:
REMARK  status: ('A' for Active; 'I' for Inactive)
REMARK    1  A    between atoms: C_1  and  C_2
REMARK    2  A    between atoms: C_2  and  O_3
REMARK    3  A    between atoms: O_3  and  C_4
REMARK    4  A    between atoms: C_4  and  C_6
REMARK    5  A    between atoms: N_12  and  C_13
REMARK    6  A    between atoms: C_13  and  C_14
REMARK    7  A    between atoms: C_16  and  C_17
REMARK    8  A    between atoms: C_20  and  C_21
REMARK                            x       y       z     vdW  Elec       q    Type
REMARK                         _______ _______ _______ _____ _____    ______ ____
ROOT
ATOM      1  C   UNL     1       1.281   8.567  20.595  0.00  0.00    +0.000 A 
ATOM      2  C   UNL     1       1.008   8.670  21.964  0.00  0.00    +0.000 A 
ATOM      3  C   UNL     1       0.337   9.795  22.456  0.00  0.00    +0.000 A 
ATOM      4  C   UNL     1      -0.019  10.826  21.578  0.00  0.00    +0.000 A 
ATOM      5  C   UNL     1       0.269  10.750  20.225  0.00  0.00    +0.000 A 
ATOM      6  C   UNL     1       0.865   9.590  19.732  0.00  0.00    +0.000 A 
ATOM      7  N   UNL     1       0.011  11.821  19.346  0.00  0.00    +0.000 N 
ATOM      8  C   UNL     1      -1.278  12.125  18.932  0.00  0.00    +0.000 C 
ATOM      9  O   UNL     1      -1.538  12.444  17.772  0.00  0.00    +0.000 OA
ATOM     10  C   UNL     1      -2.429  12.174  19.878  0.00  0.00    +0.000 A 
ATOM     11  C   UNL     1      -3.699  12.240  19.261  0.00  0.00    +0.000 A 
ATOM     12  C   UNL     1      -4.854  12.526  19.987  0.00  0.00    +0.000 A 
ATOM     13  C   UNL     1      -4.768  12.743  21.355  0.00  0.00    +0.000 A 
ATOM     14  C   UNL     1      -3.533  12.654  21.994  0.00  0.00    +0.000 A 
ATOM     15  C   UNL     1      -2.367  12.373  21.260  0.00  0.00    +0.000 A 
ATOM     16  S   UNL     1      -0.855  12.265  22.164  0.00  0.00    +0.000 S 
ATOM     17  O   UNL     1      -0.049  13.420  21.827  0.00  0.00    +0.000 OA
ATOM     18  O   UNL     1      -1.207  11.991  23.548  0.00  0.00    +0.000 OA
ENDROOT
BRANCH   1  19
ATOM     19  C   UNL     1       1.996   7.416  19.990  0.00  0.00    +0.000 C 
ATOM     20  O   UNL     1       2.608   7.484  18.937  0.00  0.00    +0.000 OA
BRANCH  19  21
ATOM     21  O   UNL     1       1.801   6.302  20.732  0.00  0.00    +0.000 OA
BRANCH  21  23
ATOM     22  C   UNL     1       0.940   4.119  20.332  0.00  0.00    +0.000 C 
ATOM     23  C   UNL     1       2.088   5.073  20.054  0.00  0.00    +0.000 C 
ENDBRANCH  21  23
ENDBRANCH  19  21
ENDBRANCH   1  19
BRANCH   7  24
ATOM     24  C   UNL     1       1.170  12.529  18.744  0.00  0.00    +0.000 C 
BRANCH  24  25
ATOM     25  C   UNL     1       1.688  13.733  19.502  0.00  0.00    +0.000 A 
ATOM     26  C   UNL     1       2.844  13.561  20.288  0.00  0.00    +0.000 A 
ATOM     27  C   UNL     1       3.275  14.526  21.199  0.00  0.00    +0.000 A 
ATOM     28  C   UNL     1       4.393  14.215  22.147  0.00  0.00    +0.000 C 
ATOM     29  C   UNL     1       2.572  15.723  21.278  0.00  0.00    +0.000 A 
ATOM     30  C   UNL     1       1.496  15.965  20.419  0.00  0.00    +0.000 A 
ATOM     31  C   UNL     1       1.059  14.995  19.513  0.00  0.00    +0.000 A 
ATOM     32  C   UNL     1      -0.035  15.363  18.540  0.00  0.00    +0.000 C 
ENDBRANCH  24  25
ENDBRANCH   7  24
TORSDOF 5
ENDMDL
