MODEL 1
REMARK VINA RESULT:      -9.0      0.000      0.000
REMARK  Name = 
REMARK  6 active torsions:
REMARK  status: ('A' for Active; 'I' for Inactive)
REMARK    1  A    between atoms: C_1  and  N_2
REMARK    2  A    between atoms: C_7  and  C_8
REMARK    3  A    between atoms: C_10  and  C_11
REMARK    4  A    between atoms: C_11  and  S_12
REMARK    5  A    between atoms: S_12  and  C_13
REMARK    6  A    between atoms: C_17  and  N_18
REMARK                            x       y       z     vdW  Elec       q    Type
REMARK                         _______ _______ _______ _____ _____    ______ ____
ROOT
ATOM      1  C   UNL     1       2.861   6.593  18.235  0.00  0.00    +0.000 A 
ATOM      2  N   UNL     1       3.830   6.711  17.301  0.00  0.00    +0.000 NA
ATOM      3  C   UNL     1       4.459   5.584  16.928  0.00  0.00    +0.000 A 
ATOM      4  C   UNL     1       4.111   4.358  17.462  0.00  0.00    +0.000 A 
ATOM      5  C   UNL     1       3.118   4.319  18.435  0.00  0.00    +0.000 A 
ATOM      6  N   UNL     1       2.486   5.437  18.818  0.00  0.00    +0.000 NA
ENDROOT
BRANCH   1  13
ATOM      7  C   UNL     1       0.229  12.616  19.634  0.00  0.00    +0.000 C 
ATOM      8  N   UNL     1       0.466  11.305  20.192  0.00  0.00    +0.000 N 
ATOM      9  C   UNL     1       0.161  10.932  21.475  0.00  0.00    +0.000 A 
ATOM     10  C   UNL     1       0.553   9.623  21.638  0.00  0.00    +0.000 A 
ATOM     11  C   UNL     1       1.120   9.184  20.410  0.00  0.00    +0.000 A 
ATOM     12  C   UNL     1       1.694   7.969  19.979  0.00  0.00    +0.000 A 
ATOM     13  C   UNL     1       2.211   7.839  18.675  0.00  0.00    +0.000 A 
ATOM     14  C   UNL     1       2.114   8.946  17.813  0.00  0.00    +0.000 A 
ATOM     15  C   UNL     1       1.534  10.158  18.207  0.00  0.00    +0.000 A 
ATOM     16  C   UNL     1       1.054  10.254  19.517  0.00  0.00    +0.000 A 
ENDBRANCH   1  13
BRANCH   5  17
ATOM     17  N   UNL     1       2.773   3.095  19.001  0.00  0.00    +0.000 N 
ATOM     18  C   UNL     1       1.358   2.683  18.994  0.00  0.00    +0.000 C 
ATOM     19  C   UNL     1       0.679   2.839  20.362  0.00  0.00    +0.000 C 
ATOM     20  O   UNL     1       1.452   2.239  21.413  0.00  0.00    +0.000 OA
ATOM     21  C   UNL     1       2.736   2.871  21.486  0.00  0.00    +0.000 C 
ATOM     22  C   UNL     1       3.536   2.669  20.190  0.00  0.00    +0.000 C 
ENDBRANCH   5  17
BRANCH   3  23
ATOM     23  C   UNL     1       5.643   5.738  16.022  0.00  0.00    +0.000 C 
BRANCH  23  24
ATOM     24  S   UNL     1       7.161   5.781  16.936  0.00  0.00    +0.000 S 
ATOM     25  C   UNL     1       6.707   5.677  18.654  0.00  0.00    +0.000 C 
ATOM     26  O   UNL     1       7.878   4.558  16.617  0.00  0.00    +0.000 OA
ATOM     27  O   UNL     1       7.806   7.066  16.714  0.00  0.00    +0.000 OA
ENDBRANCH  23  24
ENDBRANCH   3  23
TORSDOF 4
ENDMDL
MODEL 2
REMARK VINA RESULT:      -8.8      1.709      4.308
REMARK  Name = 
REMARK  6 active torsions:
REMARK  status: ('A' for Active; 'I' for Inactive)
REMARK    1  A    between atoms: C_1  and  N_2
REMARK    2  A    between atoms: C_7  and  C_8
REMARK    3  A    between atoms: C_10  and  C_11
REMARK    4  A    between atoms: C_11  and  S_12
REMARK    5  A    between atoms: S_12  and  C_13
REMARK    6  A    between atoms: C_17  and  N_18
REMARK                            x       y       z     vdW  Elec       q    Type
REMARK                         _______ _______ _______ _____ _____    ______ ____
ROOT
ATOM      1  C   UNL     1       2.658   7.016  18.341  0.00  0.00    +0.000 A 
ATOM      2  N   UNL     1       1.990   5.844  18.409  0.00  0.00    +0.000 NA
ATOM      3  C   UNL     1       2.595   4.765  17.886  0.00  0.00    +0.000 A 
ATOM      4  C   UNL     1       3.856   4.850  17.325  0.00  0.00    +0.000 A 
ATOM      5  C   UNL     1       4.472   6.095  17.272  0.00  0.00    +0.000 A 
ATOM      6  N   UNL     1       3.876   7.180  17.786  0.00  0.00    +0.000 NA
ENDROOT
BRANCH   1  13
ATOM      7  C   UNL     1      -0.188  12.824  20.161  0.00  0.00    +0.000 C 
ATOM      8  N   UNL     1       0.118  11.494  20.634  0.00  0.00    +0.000 N 
ATOM      9  C   UNL     1      -0.138  11.033  21.898  0.00  0.00    +0.000 A 
ATOM     10  C   UNL     1       0.313   9.735  21.973  0.00  0.00    +0.000 A 
ATOM     11  C   UNL     1       0.866   9.395  20.708  0.00  0.00    +0.000 A 
ATOM     12  C   UNL     1       1.479   8.234  20.192  0.00  0.00    +0.000 A 
ATOM     13  C   UNL     1       1.968   8.203  18.871  0.00  0.00    +0.000 A 
ATOM     14  C   UNL     1       1.802   9.355  18.079  0.00  0.00    +0.000 A 
ATOM     15  C   UNL     1       1.182  10.515  18.559  0.00  0.00    +0.000 A 
ATOM     16  C   UNL     1       0.732  10.512  19.883  0.00  0.00    +0.000 A 
ENDBRANCH   1  13
BRANCH   5  17
ATOM     17  N   UNL     1       5.730   6.203  16.687  0.00  0.00    +0.000 N 
ATOM     18  C   UNL     1       5.951   5.599  15.361  0.00  0.00    +0.000 C 
ATOM     19  C   UNL     1       6.741   4.284  15.423  0.00  0.00    +0.000 C 
ATOM     20  O   UNL     1       7.938   4.416  16.205  0.00  0.00    +0.000 OA
ATOM     21  C   UNL     1       7.596   4.785  17.546  0.00  0.00    +0.000 C 
ATOM     22  C   UNL     1       6.895   6.152  17.591  0.00  0.00    +0.000 C 
ENDBRANCH   5  17
BRANCH   3  23
ATOM     23  C   UNL     1       1.786   3.505  17.810  0.00  0.00    +0.000 C 
BRANCH  23  24
ATOM     24  S   UNL     1       2.380   2.280  18.945  0.00  0.00    +0.000 S 
ATOM     25  C   UNL     1       3.088   3.174  20.311  0.00  0.00    +0.000 C 
ATOM     26  O   UNL     1       1.213   1.584  19.459  0.00  0.00    +0.000 OA
ATOM     27  O   UNL     1       3.440   1.519  18.302  0.00  0.00    +0.000 OA
ENDBRANCH  23  24
ENDBRANCH   3  23
TORSDOF 4
ENDMDL
MODEL 3
REMARK VINA RESULT:      -8.7      1.010      1.201
REMARK  Name = 
REMARK  6 active torsions:
REMARK  status: ('A' for Active; 'I' for Inactive)
REMARK    1  A    between atoms: C_1  and  N_2
REMARK    2  A    between atoms: C_7  and  C_8
REMARK    3  A    between atoms: C_10  and  C_11
REMARK    4  A    between atoms: C_11  and  S_12
REMARK    5  A    between atoms: S_12  and  C_13
REMARK    6  A    between atoms: C_17  and  N_18
REMARK                            x       y       z     vdW  Elec       q    Type
REMARK                         _______ _______ _______ _____ _____    ______ ____
ROOT
ATOM      1  C   UNL     1       2.554   7.046  18.550  0.00  0.00    +0.000 A 
ATOM      2  N   UNL     1       3.508   7.218  17.609  0.00  0.00    +0.000 NA
ATOM      3  C   UNL     1       4.159   6.119  17.193  0.00  0.00    +0.000 A 
ATOM      4  C   UNL     1       3.848   4.868  17.691  0.00  0.00    +0.000 A 
ATOM      5  C   UNL     1       2.869   4.773  18.674  0.00  0.00    +0.000 A 
ATOM      6  N   UNL     1       2.215   5.863  19.101  0.00  0.00    +0.000 NA
ENDROOT
BRANCH   1  13
ATOM      7  C   UNL     1      -0.215  12.951  20.169  0.00  0.00    +0.000 C 
ATOM      8  N   UNL     1       0.073  11.633  20.687  0.00  0.00    +0.000 N 
ATOM      9  C   UNL     1      -0.191  11.219  21.966  0.00  0.00    +0.000 A 
ATOM     10  C   UNL     1       0.242   9.918  22.085  0.00  0.00    +0.000 A 
ATOM     11  C   UNL     1       0.792   9.527  20.834  0.00  0.00    +0.000 A 
ATOM     12  C   UNL     1       1.390   8.342  20.357  0.00  0.00    +0.000 A 
ATOM     13  C   UNL     1       1.879   8.260  19.039  0.00  0.00    +0.000 A 
ATOM     14  C   UNL     1       1.730   9.386  18.209  0.00  0.00    +0.000 A 
ATOM     15  C   UNL     1       1.125  10.570  18.648  0.00  0.00    +0.000 A 
ATOM     16  C   UNL     1       0.674  10.618  19.971  0.00  0.00    +0.000 A 
ENDBRANCH   1  13
BRANCH   5  17
ATOM     17  N   UNL     1       2.562   3.524  19.204  0.00  0.00    +0.000 N 
ATOM     18  C   UNL     1       1.593   3.441  20.312  0.00  0.00    +0.000 C 
ATOM     19  C   UNL     1       2.257   3.203  21.675  0.00  0.00    +0.000 C 
ATOM     20  O   UNL     1       3.184   2.107  21.634  0.00  0.00    +0.000 OA
ATOM     21  C   UNL     1       4.220   2.390  20.686  0.00  0.00    +0.000 C 
ATOM     22  C   UNL     1       3.655   2.535  19.264  0.00  0.00    +0.000 C 
ENDBRANCH   5  17
BRANCH   3  23
ATOM     23  C   UNL     1       5.328   6.331  16.278  0.00  0.00    +0.000 C 
BRANCH  23  24
ATOM     24  S   UNL     1       6.868   6.119  17.129  0.00  0.00    +0.000 S 
ATOM     25  C   UNL     1       7.416   4.468  16.757  0.00  0.00    +0.000 C 
ATOM     26  O   UNL     1       7.818   7.027  16.508  0.00  0.00    +0.000 OA
ATOM     27  O   UNL     1       6.629   6.207  18.561  0.00  0.00    +0.000 OA
ENDBRANCH  23  24
ENDBRANCH   3  23
TORSDOF 4
ENDMDL
MODEL 4
REMARK VINA RESULT:      -8.7      1.993      4.544
REMARK  Name = 
REMARK  6 active torsions:
REMARK  status: ('A' for Active; 'I' for Inactive)
REMARK    1  A    between atoms: C_1  and  N_2
REMARK    2  A    between atoms: C_7  and  C_8
REMARK    3  A    between atoms: C_10  and  C_11
REMARK    4  A    between atoms: C_11  and  S_12
REMARK    5  A    between atoms: S_12  and  C_13
REMARK    6  A    between atoms: C_17  and  N_18
REMARK                            x       y       z     vdW  Elec       q    Type
REMARK                         _______ _______ _______ _____ _____    ______ ____
ROOT
ATOM      1  C   UNL     1       2.461   7.211  19.400  0.00  0.00    +0.000 A 
ATOM      2  N   UNL     1       2.334   5.985  19.955  0.00  0.00    +0.000 NA
ATOM      3  C   UNL     1       3.110   5.008  19.459  0.00  0.00    +0.000 A 
ATOM      4  C   UNL     1       4.014   5.255  18.443  0.00  0.00    +0.000 A 
ATOM      5  C   UNL     1       4.073   6.537  17.908  0.00  0.00    +0.000 A 
ATOM      6  N   UNL     1       3.300   7.520  18.391  0.00  0.00    +0.000 NA
ENDROOT
BRANCH   1  13
ATOM      7  C   UNL     1      -1.385  12.443  21.128  0.00  0.00    +0.000 C 
ATOM      8  N   UNL     1      -0.826  11.210  21.630  0.00  0.00    +0.000 N 
ATOM      9  C   UNL     1      -0.965  10.751  22.914  0.00  0.00    +0.000 A 
ATOM     10  C   UNL     1      -0.278   9.563  23.013  0.00  0.00    +0.000 A 
ATOM     11  C   UNL     1       0.304   9.290  21.745  0.00  0.00    +0.000 A 
ATOM     12  C   UNL     1       1.113   8.248  21.246  0.00  0.00    +0.000 A 
ATOM     13  C   UNL     1       1.571   8.266  19.914  0.00  0.00    +0.000 A 
ATOM     14  C   UNL     1       1.177   9.339  19.095  0.00  0.00    +0.000 A 
ATOM     15  C   UNL     1       0.360  10.378  19.557  0.00  0.00    +0.000 A 
ATOM     16  C   UNL     1      -0.055  10.335  20.892  0.00  0.00    +0.000 A 
ENDBRANCH   1  13
BRANCH   5  17
ATOM     17  N   UNL     1       4.960   6.796  16.868  0.00  0.00    +0.000 N 
ATOM     18  C   UNL     1       5.095   5.803  15.787  0.00  0.00    +0.000 C 
ATOM     19  C   UNL     1       6.381   4.971  15.891  0.00  0.00    +0.000 C 
ATOM     20  O   UNL     1       7.541   5.799  16.064  0.00  0.00    +0.000 OA
ATOM     21  C   UNL     1       7.411   6.559  17.272  0.00  0.00    +0.000 C 
ATOM     22  C   UNL     1       6.205   7.509  17.211  0.00  0.00    +0.000 C 
ENDBRANCH   5  17
BRANCH   3  23
ATOM     23  C   UNL     1       2.849   3.618  19.956  0.00  0.00    +0.000 C 
BRANCH  23  24
ATOM     24  S   UNL     1       2.066   2.620  18.718  0.00  0.00    +0.000 S 
ATOM     25  C   UNL     1       3.374   1.743  17.890  0.00  0.00    +0.000 C 
ATOM     26  O   UNL     1       1.273   1.626  19.421  0.00  0.00    +0.000 OA
ATOM     27  O   UNL     1       1.422   3.494  17.750  0.00  0.00    +0.000 OA
ENDBRANCH  23  24
ENDBRANCH   3  23
TORSDOF 4
ENDMDL
MODEL 5
REMARK VINA RESULT:      -8.6      1.884      4.385
REMARK  Name = 
REMARK  6 active torsions:
REMARK  status: ('A' for Active; 'I' for Inactive)
REMARK    1  A    between atoms: C_1  and  N_2
REMARK    2  A    between atoms: C_7  and  C_8
REMARK    3  A    between atoms: C_10  and  C_11
REMARK    4  A    between atoms: C_11  and  S_12
REMARK    5  A    between atoms: S_12  and  C_13
REMARK    6  A    between atoms: C_17  and  N_18
REMARK                            x       y       z     vdW  Elec       q    Type
REMARK                         _______ _______ _______ _____ _____    ______ ____
ROOT
ATOM      1  C   UNL     1       2.662   7.233  18.845  0.00  0.00    +0.000 A 
ATOM      2  N   UNL     1       2.389   6.091  19.513  0.00  0.00    +0.000 NA
ATOM      3  C   UNL     1       3.191   5.040  19.277  0.00  0.00    +0.000 A 
ATOM      4  C   UNL     1       4.261   5.134  18.407  0.00  0.00    +0.000 A 
ATOM      5  C   UNL     1       4.466   6.336  17.740  0.00  0.00    +0.000 A 
ATOM      6  N   UNL     1       3.669   7.391  17.963  0.00  0.00    +0.000 NA
ENDROOT
BRANCH   1  13
ATOM      7  C   UNL     1      -1.267  12.674  19.184  0.00  0.00    +0.000 C 
ATOM      8  N   UNL     1      -0.726  11.593  19.975  0.00  0.00    +0.000 N 
ATOM      9  C   UNL     1      -0.918  11.436  21.322  0.00  0.00    +0.000 A 
ATOM     10  C   UNL     1      -0.232  10.309  21.717  0.00  0.00    +0.000 A 
ATOM     11  C   UNL     1       0.403   9.764  20.568  0.00  0.00    +0.000 A 
ATOM     12  C   UNL     1       1.235   8.645  20.351  0.00  0.00    +0.000 A 
ATOM     13  C   UNL     1       1.749   8.366  19.069  0.00  0.00    +0.000 A 
ATOM     14  C   UNL     1       1.386   9.221  18.013  0.00  0.00    +0.000 A 
ATOM     15  C   UNL     1       0.548  10.328  18.194  0.00  0.00    +0.000 A 
ATOM     16  C   UNL     1       0.078  10.584  19.486  0.00  0.00    +0.000 A 
ENDBRANCH   1  13
BRANCH   5  17
ATOM     17  N   UNL     1       5.523   6.439  16.841  0.00  0.00    +0.000 N 
ATOM     18  C   UNL     1       5.351   5.907  15.478  0.00  0.00    +0.000 C 
ATOM     19  C   UNL     1       6.069   4.567  15.260  0.00  0.00    +0.000 C 
ATOM     20  O   UNL     1       7.437   4.618  15.693  0.00  0.00    +0.000 OA
ATOM     21  C   UNL     1       7.486   4.919  17.093  0.00  0.00    +0.000 C 
ATOM     22  C   UNL     1       6.886   6.301  17.392  0.00  0.00    +0.000 C 
ENDBRANCH   5  17
BRANCH   3  23
ATOM     23  C   UNL     1       2.788   3.731  19.886  0.00  0.00    +0.000 C 
BRANCH  23  24
ATOM     24  S   UNL     1       2.103   2.632  18.674  0.00  0.00    +0.000 S 
ATOM     25  C   UNL     1       3.457   1.637  18.089  0.00  0.00    +0.000 C 
ATOM     26  O   UNL     1       1.201   1.739  19.381  0.00  0.00    +0.000 OA
ATOM     27  O   UNL     1       1.602   3.419  17.558  0.00  0.00    +0.000 OA
ENDBRANCH  23  24
ENDBRANCH   3  23
TORSDOF 4
ENDMDL
MODEL 6
REMARK VINA RESULT:      -8.6      1.091      1.320
REMARK  Name = 
REMARK  6 active torsions:
REMARK  status: ('A' for Active; 'I' for Inactive)
REMARK    1  A    between atoms: C_1  and  N_2
REMARK    2  A    between atoms: C_7  and  C_8
REMARK    3  A    between atoms: C_10  and  C_11
REMARK    4  A    between atoms: C_11  and  S_12
REMARK    5  A    between atoms: S_12  and  C_13
REMARK    6  A    between atoms: C_17  and  N_18
REMARK                            x       y       z     vdW  Elec       q    Type
REMARK                         _______ _______ _______ _____ _____    ______ ____
ROOT
ATOM      1  C   UNL     1       3.243   6.465  18.456  0.00  0.00    +0.000 A 
ATOM      2  N   UNL     1       4.403   6.603  17.777  0.00  0.00    +0.000 NA
ATOM      3  C   UNL     1       5.143   5.495  17.603  0.00  0.00    +0.000 A 
ATOM      4  C   UNL     1       4.721   4.268  18.077  0.00  0.00    +0.000 A 
ATOM      5  C   UNL     1       3.525   4.209  18.785  0.00  0.00    +0.000 A 
ATOM      6  N   UNL     1       2.780   5.308  18.970  0.00  0.00    +0.000 NA
ENDROOT
BRANCH   1  13
ATOM      7  C   UNL     1       0.047  12.360  18.900  0.00  0.00    +0.000 C 
ATOM      8  N   UNL     1       0.324  11.142  19.626  0.00  0.00    +0.000 N 
ATOM      9  C   UNL     1      -0.079  10.887  20.911  0.00  0.00    +0.000 A 
ATOM     10  C   UNL     1       0.391   9.642  21.260  0.00  0.00    +0.000 A 
ATOM     11  C   UNL     1       1.108   9.121  20.149  0.00  0.00    +0.000 A 
ATOM     12  C   UNL     1       1.810   7.920  19.916  0.00  0.00    +0.000 A 
ATOM     13  C   UNL     1       2.462   7.692  18.688  0.00  0.00    +0.000 A 
ATOM     14  C   UNL     1       2.370   8.687  17.697  0.00  0.00    +0.000 A 
ATOM     15  C   UNL     1       1.665   9.881  17.893  0.00  0.00    +0.000 A 
ATOM     16  C   UNL     1       1.051  10.078  19.134  0.00  0.00    +0.000 A 
ENDBRANCH   1  13
BRANCH   5  17
ATOM     17  N   UNL     1       3.099   2.985  19.291  0.00  0.00    +0.000 N 
ATOM     18  C   UNL     1       1.738   2.519  18.969  0.00  0.00    +0.000 C 
ATOM     19  C   UNL     1       0.756   2.677  20.138  0.00  0.00    +0.000 C 
ATOM     20  O   UNL     1       1.282   2.129  21.357  0.00  0.00    +0.000 OA
ATOM     21  C   UNL     1       2.493   2.812  21.706  0.00  0.00    +0.000 C 
ATOM     22  C   UNL     1       3.578   2.613  20.636  0.00  0.00    +0.000 C 
ENDBRANCH   5  17
BRANCH   3  23
ATOM     23  C   UNL     1       6.504   5.679  17.001  0.00  0.00    +0.000 C 
BRANCH  23  24
ATOM     24  S   UNL     1       6.485   5.397  15.251  0.00  0.00    +0.000 S 
ATOM     25  C   UNL     1       6.108   3.672  15.032  0.00  0.00    +0.000 C 
ATOM     26  O   UNL     1       5.358   6.145  14.719  0.00  0.00    +0.000 OA
ATOM     27  O   UNL     1       7.818   5.641  14.722  0.00  0.00    +0.000 OA
ENDBRANCH  23  24
ENDBRANCH   3  23
TORSDOF 4
ENDMDL
MODEL 7
REMARK VINA RESULT:      -8.6      0.972      1.719
REMARK  Name = 
REMARK  6 active torsions:
REMARK  status: ('A' for Active; 'I' for Inactive)
REMARK    1  A    between atoms: C_1  and  N_2
REMARK    2  A    between atoms: C_7  and  C_8
REMARK    3  A    between atoms: C_10  and  C_11
REMARK    4  A    between atoms: C_11  and  S_12
REMARK    5  A    between atoms: S_12  and  C_13
REMARK    6  A    between atoms: C_17  and  N_18
REMARK                            x       y       z     vdW  Elec       q    Type
REMARK                         _______ _______ _______ _____ _____    ______ ____
ROOT
ATOM      1  C   UNL     1       2.523   7.025  18.697  0.00  0.00    +0.000 A 
ATOM      2  N   UNL     1       3.473   7.296  17.776  0.00  0.00    +0.000 NA
ATOM      3  C   UNL     1       4.101   6.245  17.221  0.00  0.00    +0.000 A 
ATOM      4  C   UNL     1       3.770   4.948  17.563  0.00  0.00    +0.000 A 
ATOM      5  C   UNL     1       2.796   4.749  18.535  0.00  0.00    +0.000 A 
ATOM      6  N   UNL     1       2.166   5.789  19.100  0.00  0.00    +0.000 NA
ENDROOT
BRANCH   1  13
ATOM      7  C   UNL     1      -0.610  11.822  22.209  0.00  0.00    +0.000 C 
ATOM      8  N   UNL     1      -0.093  11.506  20.897  0.00  0.00    +0.000 N 
ATOM      9  C   UNL     1      -0.199  12.316  19.797  0.00  0.00    +0.000 A 
ATOM     10  C   UNL     1       0.393  11.667  18.738  0.00  0.00    +0.000 A 
ATOM     11  C   UNL     1       0.873  10.415  19.209  0.00  0.00    +0.000 A 
ATOM     12  C   UNL     1       1.542   9.333  18.599  0.00  0.00    +0.000 A 
ATOM     13  C   UNL     1       1.874   8.181  19.339  0.00  0.00    +0.000 A 
ATOM     14  C   UNL     1       1.540   8.155  20.705  0.00  0.00    +0.000 A 
ATOM     15  C   UNL     1       0.893   9.220  21.342  0.00  0.00    +0.000 A 
ATOM     16  C   UNL     1       0.559  10.336  20.567  0.00  0.00    +0.000 A 
ENDBRANCH   1  13
BRANCH   5  17
ATOM     17  N   UNL     1       2.470   3.449  18.909  0.00  0.00    +0.000 N 
ATOM     18  C   UNL     1       1.093   3.162  19.350  0.00  0.00    +0.000 C 
ATOM     19  C   UNL     1       0.969   3.003  20.872  0.00  0.00    +0.000 C 
ATOM     20  O   UNL     1       1.947   2.089  21.395  0.00  0.00    +0.000 OA
ATOM     21  C   UNL     1       3.262   2.582  21.111  0.00  0.00    +0.000 C 
ATOM     22  C   UNL     1       3.515   2.668  19.598  0.00  0.00    +0.000 C 
ENDBRANCH   5  17
BRANCH   3  23
ATOM     23  C   UNL     1       5.267   6.549  16.328  0.00  0.00    +0.000 C 
BRANCH  23  24
ATOM     24  S   UNL     1       6.807   6.162  17.116  0.00  0.00    +0.000 S 
ATOM     25  C   UNL     1       7.239   4.521  16.579  0.00  0.00    +0.000 C 
ATOM     26  O   UNL     1       7.802   7.062  16.556  0.00  0.00    +0.000 OA
ATOM     27  O   UNL     1       6.603   6.130  18.556  0.00  0.00    +0.000 OA
ENDBRANCH  23  24
ENDBRANCH   3  23
TORSDOF 4
ENDMDL
MODEL 8
REMARK VINA RESULT:      -8.5      1.765      4.540
REMARK  Name = 
REMARK  6 active torsions:
REMARK  status: ('A' for Active; 'I' for Inactive)
REMARK    1  A    between atoms: C_1  and  N_2
REMARK    2  A    between atoms: C_7  and  C_8
REMARK    3  A    between atoms: C_10  and  C_11
REMARK    4  A    between atoms: C_11  and  S_12
REMARK    5  A    between atoms: S_12  and  C_13
REMARK    6  A    between atoms: C_17  and  N_18
REMARK                            x       y       z     vdW  Elec       q    Type
REMARK                         _______ _______ _______ _____ _____    ______ ____
ROOT
ATOM      1  C   UNL     1       2.641   6.911  18.566  0.00  0.00    +0.000 A 
ATOM      2  N   UNL     1       1.988   5.729  18.599  0.00  0.00    +0.000 NA
ATOM      3  C   UNL     1       2.567   4.694  17.968  0.00  0.00    +0.000 A 
ATOM      4  C   UNL     1       3.788   4.831  17.336  0.00  0.00    +0.000 A 
ATOM      5  C   UNL     1       4.390   6.085  17.326  0.00  0.00    +0.000 A 
ATOM      6  N   UNL     1       3.819   7.126  17.947  0.00  0.00    +0.000 NA
ENDROOT
BRANCH   1  13
ATOM      7  C   UNL     1      -0.573  11.635  22.103  0.00  0.00    +0.000 C 
ATOM      8  N   UNL     1      -0.030  11.344  20.796  0.00  0.00    +0.000 N 
ATOM      9  C   UNL     1      -0.119  12.173  19.709  0.00  0.00    +0.000 A 
ATOM     10  C   UNL     1       0.495  11.545  18.649  0.00  0.00    +0.000 A 
ATOM     11  C   UNL     1       0.970  10.286  19.107  0.00  0.00    +0.000 A 
ATOM     12  C   UNL     1       1.654   9.218  18.491  0.00  0.00    +0.000 A 
ATOM     13  C   UNL     1       1.977   8.053  19.215  0.00  0.00    +0.000 A 
ATOM     14  C   UNL     1       1.617   8.002  20.575  0.00  0.00    +0.000 A 
ATOM     15  C   UNL     1       0.954   9.054  21.219  0.00  0.00    +0.000 A 
ATOM     16  C   UNL     1       0.632  10.182  20.458  0.00  0.00    +0.000 A 
ENDBRANCH   1  13
BRANCH   5  17
ATOM     17  N   UNL     1       5.607   6.245  16.671  0.00  0.00    +0.000 N 
ATOM     18  C   UNL     1       5.774   5.659  15.329  0.00  0.00    +0.000 C 
ATOM     19  C   UNL     1       6.617   4.376  15.333  0.00  0.00    +0.000 C 
ATOM     20  O   UNL     1       7.851   4.550  16.047  0.00  0.00    +0.000 OA
ATOM     21  C   UNL     1       7.573   4.896  17.409  0.00  0.00    +0.000 C 
ATOM     22  C   UNL     1       6.824   6.234  17.507  0.00  0.00    +0.000 C 
ENDBRANCH   5  17
BRANCH   3  23
ATOM     23  C   UNL     1       1.765   3.432  17.861  0.00  0.00    +0.000 C 
BRANCH  23  24
ATOM     24  S   UNL     1       2.380   2.175  18.949  0.00  0.00    +0.000 S 
ATOM     25  C   UNL     1       3.129   3.030  20.319  0.00  0.00    +0.000 C 
ATOM     26  O   UNL     1       1.221   1.473  19.476  0.00  0.00    +0.000 OA
ATOM     27  O   UNL     1       3.417   1.424  18.260  0.00  0.00    +0.000 OA
ENDBRANCH  23  24
ENDBRANCH   3  23
TORSDOF 4
ENDMDL
MODEL 9
REMARK VINA RESULT:      -8.4      1.429      1.923
REMARK  Name = 
REMARK  6 active torsions:
REMARK  status: ('A' for Active; 'I' for Inactive)
REMARK    1  A    between atoms: C_1  and  N_2
REMARK    2  A    between atoms: C_7  and  C_8
REMARK    3  A    between atoms: C_10  and  C_11
REMARK    4  A    between atoms: C_11  and  S_12
REMARK    5  A    between atoms: S_12  and  C_13
REMARK    6  A    between atoms: C_17  and  N_18
REMARK                            x       y       z     vdW  Elec       q    Type
REMARK                         _______ _______ _______ _____ _____    ______ ____
ROOT
ATOM      1  C   UNL     1       2.408   7.056  18.918  0.00  0.00    +0.000 A 
ATOM      2  N   UNL     1       3.335   7.372  17.987  0.00  0.00    +0.000 NA
ATOM      3  C   UNL     1       4.024   6.355  17.444  0.00  0.00    +0.000 A 
ATOM      4  C   UNL     1       3.775   5.045  17.806  0.00  0.00    +0.000 A 
ATOM      5  C   UNL     1       2.821   4.800  18.787  0.00  0.00    +0.000 A 
ATOM      6  N   UNL     1       2.130   5.806  19.341  0.00  0.00    +0.000 NA
ENDROOT
BRANCH   1  13
ATOM      7  C   UNL     1      -0.554  12.627  21.233  0.00  0.00    +0.000 C 
ATOM      8  N   UNL     1      -0.232  11.263  21.584  0.00  0.00    +0.000 N 
ATOM      9  C   UNL     1      -0.494  10.683  22.797  0.00  0.00    +0.000 A 
ATOM     10  C   UNL     1      -0.024   9.390  22.757  0.00  0.00    +0.000 A 
ATOM     11  C   UNL     1       0.550   9.177  21.473  0.00  0.00    +0.000 A 
ATOM     12  C   UNL     1       1.188   8.079  20.859  0.00  0.00    +0.000 A 
ATOM     13  C   UNL     1       1.692   8.179  19.547  0.00  0.00    +0.000 A 
ATOM     14  C   UNL     1       1.516   9.396  18.864  0.00  0.00    +0.000 A 
ATOM     15  C   UNL     1       0.871  10.497  19.441  0.00  0.00    +0.000 A 
ATOM     16  C   UNL     1       0.407  10.364  20.754  0.00  0.00    +0.000 A 
ENDBRANCH   1  13
BRANCH   5  17
ATOM     17  N   UNL     1       2.577   3.488  19.181  0.00  0.00    +0.000 N 
ATOM     18  C   UNL     1       3.281   2.960  20.364  0.00  0.00    +0.000 C 
ATOM     19  C   UNL     1       4.436   2.015  20.004  0.00  0.00    +0.000 C 
ATOM     20  O   UNL     1       4.027   1.001  19.073  0.00  0.00    +0.000 OA
ATOM     21  C   UNL     1       3.572   1.617  17.862  0.00  0.00    +0.000 C 
ATOM     22  C   UNL     1       2.339   2.500  18.111  0.00  0.00    +0.000 C 
ENDBRANCH   5  17
BRANCH   3  23
ATOM     23  C   UNL     1       5.164   6.717  16.540  0.00  0.00    +0.000 C 
BRANCH  23  24
ATOM     24  S   UNL     1       6.719   6.198  17.214  0.00  0.00    +0.000 S 
ATOM     25  C   UNL     1       7.055   4.600  16.508  0.00  0.00    +0.000 C 
ATOM     26  O   UNL     1       7.726   7.107  16.693  0.00  0.00    +0.000 OA
ATOM     27  O   UNL     1       6.577   6.039  18.653  0.00  0.00    +0.000 OA
ENDBRANCH  23  24
ENDBRANCH   3  23
TORSDOF 4
ENDMDL
