MODEL 1
REMARK VINA RESULT:      -8.6      0.000      0.000
REMARK  Name = 
REMARK  3 active torsions:
REMARK  status: ('A' for Active; 'I' for Inactive)
REMARK    1  A    between atoms: C_2  and  C_19
REMARK    2  A    between atoms: N_3  and  C_4
REMARK    3  A    between atoms: C_8  and  C_9
REMARK                            x       y       z     vdW  Elec       q    Type
REMARK                         _______ _______ _______ _____ _____    ______ ____
ROOT
ATOM      1  C   UNL     1       6.914   6.458  16.592  0.00  0.00    +0.000 A 
ATOM      2  C   UNL     1       7.306   5.673  15.503  0.00  0.00    +0.000 A 
ATOM      3  C   UNL     1       6.680   4.454  15.248  0.00  0.00    +0.000 A 
ATOM      4  C   UNL     1       5.657   4.001  16.076  0.00  0.00    +0.000 A 
ATOM      5  C   UNL     1       5.270   4.760  17.187  0.00  0.00    +0.000 A 
ATOM      6  C   UNL     1       5.919   5.981  17.439  0.00  0.00    +0.000 A 
ENDROOT
BRANCH   5   7
ATOM      7  C   UNL     1       4.238   4.348  18.144  0.00  0.00    +0.000 A 
ATOM      8  N   UNL     1       4.507   3.569  19.168  0.00  0.00    +0.000 NA
ATOM      9  C   UNL     1       3.374   3.352  19.918  0.00  0.00    +0.000 A 
ATOM     10  C   UNL     1       3.299   2.541  21.065  0.00  0.00    +0.000 A 
ATOM     11  C   UNL     1       2.080   2.401  21.731  0.00  0.00    +0.000 A 
ATOM     12  C   UNL     1       0.949   3.068  21.272  0.00  0.00    +0.000 A 
ATOM     13  C   UNL     1       1.002   3.888  20.140  0.00  0.00    +0.000 A 
ATOM     14  C   UNL     1       2.229   4.010  19.471  0.00  0.00    +0.000 A 
ATOM     15  S   UNL     1       2.621   4.912  18.056  0.00  0.00    +0.000 S 
ENDBRANCH   5   7
BRANCH   1  18
ATOM     16  O   UNL     1       8.437   7.207  18.938  0.00  0.00    +0.000 OA
ATOM     17  C   UNL     1       8.147   8.005  18.055  0.00  0.00    +0.000 C 
ATOM     18  N   UNL     1       7.467   7.717  16.898  0.00  0.00    +0.000 N 
ATOM     19  H   UNL     1       7.485   8.397  16.148  0.00  0.00    +0.000 HD
BRANCH  17  20
ATOM     20  C   UNL     1       8.582   9.413  18.244  0.00  0.00    +0.000 A 
ATOM     21  C   UNL     1       8.129  10.472  17.422  0.00  0.00    +0.000 A 
ATOM     22  C   UNL     1       8.316  11.800  17.826  0.00  0.00    +0.000 A 
ATOM     23  C   UNL     1       8.902  12.010  19.056  0.00  0.00    +0.000 A 
ATOM     24  C   UNL     1       9.397  10.975  19.818  0.00  0.00    +0.000 A 
ATOM     25  C   UNL     1       9.294   9.670  19.422  0.00  0.00    +0.000 A 
ATOM     26  O   UNL     1       9.853  11.393  21.030  0.00  0.00    +0.000 OA
ATOM     27  C   UNL     1       9.257  12.703  21.054  0.00  0.00    +0.000 C 
ATOM     28  O   UNL     1       8.968  13.197  19.725  0.00  0.00    +0.000 OA
ENDBRANCH  17  20
ENDBRANCH   1  18
TORSDOF 3
ENDMDL
MODEL 2
REMARK VINA RESULT:      -8.4      7.332      9.749
REMARK  Name = 
REMARK  3 active torsions:
REMARK  status: ('A' for Active; 'I' for Inactive)
REMARK    1  A    between atoms: C_2  and  C_19
REMARK    2  A    between atoms: N_3  and  C_4
REMARK    3  A    between atoms: C_8  and  C_9
REMARK                            x       y       z     vdW  Elec       q    Type
REMARK                         _______ _______ _______ _____ _____    ______ ____
ROOT
ATOM      1  C   UNL     1       1.211   9.947  18.109  0.00  0.00    +0.000 A 
ATOM      2  C   UNL     1       2.044  11.029  18.407  0.00  0.00    +0.000 A 
ATOM      3  C   UNL     1       1.503  12.251  18.805  0.00  0.00    +0.000 A 
ATOM      4  C   UNL     1       0.123  12.409  18.906  0.00  0.00    +0.000 A 
ATOM      5  C   UNL     1      -0.728  11.345  18.584  0.00  0.00    +0.000 A 
ATOM      6  C   UNL     1      -0.167  10.124  18.174  0.00  0.00    +0.000 A 
ENDROOT
BRANCH   5   7
ATOM      7  C   UNL     1      -2.192  11.427  18.615  0.00  0.00    +0.000 A 
ATOM      8  N   UNL     1      -2.831  12.164  19.495  0.00  0.00    +0.000 NA
ATOM      9  C   UNL     1      -4.189  12.083  19.295  0.00  0.00    +0.000 A 
ATOM     10  C   UNL     1      -5.167  12.723  20.077  0.00  0.00    +0.000 A 
ATOM     11  C   UNL     1      -6.518  12.551  19.767  0.00  0.00    +0.000 A 
ATOM     12  C   UNL     1      -6.895  11.762  18.685  0.00  0.00    +0.000 A 
ATOM     13  C   UNL     1      -5.939  11.125  17.886  0.00  0.00    +0.000 A 
ATOM     14  C   UNL     1      -4.586  11.294  18.215  0.00  0.00    +0.000 A 
ATOM     15  S   UNL     1      -3.184  10.640  17.458  0.00  0.00    +0.000 S 
ENDBRANCH   5   7
BRANCH   1  18
ATOM     16  O   UNL     1       2.184   7.837  19.838  0.00  0.00    +0.000 OA
ATOM     17  C   UNL     1       2.159   7.733  18.618  0.00  0.00    +0.000 C 
ATOM     18  N   UNL     1       1.676   8.670  17.738  0.00  0.00    +0.000 N 
ATOM     19  H   UNL     1       1.498   8.384  16.782  0.00  0.00    +0.000 HD
BRANCH  17  20
ATOM     20  C   UNL     1       2.689   6.475  18.034  0.00  0.00    +0.000 A 
ATOM     21  C   UNL     1       4.069   6.258  17.802  0.00  0.00    +0.000 A 
ATOM     22  C   UNL     1       4.541   4.964  17.548  0.00  0.00    +0.000 A 
ATOM     23  C   UNL     1       3.622   3.937  17.586  0.00  0.00    +0.000 A 
ATOM     24  C   UNL     1       2.273   4.167  17.748  0.00  0.00    +0.000 A 
ATOM     25  C   UNL     1       1.769   5.425  17.929  0.00  0.00    +0.000 A 
ATOM     26  O   UNL     1       1.557   3.014  17.844  0.00  0.00    +0.000 OA
ATOM     27  C   UNL     1       2.640   2.096  18.083  0.00  0.00    +0.000 C 
ATOM     28  O   UNL     1       3.903   2.603  17.592  0.00  0.00    +0.000 OA
ENDBRANCH  17  20
ENDBRANCH   1  18
TORSDOF 3
ENDMDL
MODEL 3
REMARK VINA RESULT:      -8.3      7.653     10.020
REMARK  Name = 
REMARK  3 active torsions:
REMARK  status: ('A' for Active; 'I' for Inactive)
REMARK    1  A    between atoms: C_2  and  C_19
REMARK    2  A    between atoms: N_3  and  C_4
REMARK    3  A    between atoms: C_8  and  C_9
REMARK                            x       y       z     vdW  Elec       q    Type
REMARK                         _______ _______ _______ _____ _____    ______ ____
ROOT
ATOM      1  C   UNL     1       0.829  10.441  19.007  0.00  0.00    +0.000 A 
ATOM      2  C   UNL     1       1.605  11.573  18.740  0.00  0.00    +0.000 A 
ATOM      3  C   UNL     1       1.001  12.810  18.517  0.00  0.00    +0.000 A 
ATOM      4  C   UNL     1      -0.385  12.932  18.556  0.00  0.00    +0.000 A 
ATOM      5  C   UNL     1      -1.180  11.804  18.794  0.00  0.00    +0.000 A 
ATOM      6  C   UNL     1      -0.556  10.563  19.005  0.00  0.00    +0.000 A 
ENDROOT
BRANCH   5   7
ATOM      7  C   UNL     1      -2.646  11.821  18.809  0.00  0.00    +0.000 A 
ATOM      8  N   UNL     1      -3.328  12.431  19.753  0.00  0.00    +0.000 NA
ATOM      9  C   UNL     1      -4.678  12.316  19.521  0.00  0.00    +0.000 A 
ATOM     10  C   UNL     1      -5.693  12.825  20.352  0.00  0.00    +0.000 A 
ATOM     11  C   UNL     1      -7.032  12.632  20.002  0.00  0.00    +0.000 A 
ATOM     12  C   UNL     1      -7.360  11.952  18.833  0.00  0.00    +0.000 A 
ATOM     13  C   UNL     1      -6.368  11.446  17.987  0.00  0.00    +0.000 A 
ATOM     14  C   UNL     1      -5.027  11.634  18.356  0.00  0.00    +0.000 A 
ATOM     15  S   UNL     1      -3.589  11.125  17.556  0.00  0.00    +0.000 S 
ENDBRANCH   5   7
BRANCH   1  18
ATOM     16  O   UNL     1       2.399   8.756  17.252  0.00  0.00    +0.000 OA
ATOM     17  C   UNL     1       2.066   8.409  18.378  0.00  0.00    +0.000 C 
ATOM     18  N   UNL     1       1.360   9.165  19.281  0.00  0.00    +0.000 N 
ATOM     19  H   UNL     1       1.342   8.866  20.248  0.00  0.00    +0.000 HD
BRANCH  17  20
ATOM     20  C   UNL     1       2.472   7.049  18.816  0.00  0.00    +0.000 A 
ATOM     21  C   UNL     1       2.143   6.523  20.089  0.00  0.00    +0.000 A 
ATOM     22  C   UNL     1       2.273   5.150  20.333  0.00  0.00    +0.000 A 
ATOM     23  C   UNL     1       2.678   4.356  19.281  0.00  0.00    +0.000 A 
ATOM     24  C   UNL     1       3.057   4.886  18.067  0.00  0.00    +0.000 A 
ATOM     25  C   UNL     1       3.009   6.229  17.816  0.00  0.00    +0.000 A 
ATOM     26  O   UNL     1       3.336   3.925  17.145  0.00  0.00    +0.000 OA
ATOM     27  C   UNL     1       2.745   2.795  17.812  0.00  0.00    +0.000 C 
ATOM     28  O   UNL     1       2.651   2.993  19.242  0.00  0.00    +0.000 OA
ENDBRANCH  17  20
ENDBRANCH   1  18
TORSDOF 3
ENDMDL
MODEL 4
REMARK VINA RESULT:      -8.3      1.071      1.552
REMARK  Name = 
REMARK  3 active torsions:
REMARK  status: ('A' for Active; 'I' for Inactive)
REMARK    1  A    between atoms: C_2  and  C_19
REMARK    2  A    between atoms: N_3  and  C_4
REMARK    3  A    between atoms: C_8  and  C_9
REMARK                            x       y       z     vdW  Elec       q    Type
REMARK                         _______ _______ _______ _____ _____    ______ ____
ROOT
ATOM      1  C   UNL     1       6.924   6.882  16.849  0.00  0.00    +0.000 A 
ATOM      2  C   UNL     1       7.307   6.215  15.681  0.00  0.00    +0.000 A 
ATOM      3  C   UNL     1       6.673   5.034  15.300  0.00  0.00    +0.000 A 
ATOM      4  C   UNL     1       5.650   4.501  16.081  0.00  0.00    +0.000 A 
ATOM      5  C   UNL     1       5.273   5.140  17.269  0.00  0.00    +0.000 A 
ATOM      6  C   UNL     1       5.930   6.324  17.645  0.00  0.00    +0.000 A 
ENDROOT
BRANCH   5   7
ATOM      7  C   UNL     1       4.242   4.634  18.181  0.00  0.00    +0.000 A 
ATOM      8  N   UNL     1       4.524   3.803  19.160  0.00  0.00    +0.000 NA
ATOM      9  C   UNL     1       3.389   3.502  19.876  0.00  0.00    +0.000 A 
ATOM     10  C   UNL     1       3.327   2.620  20.970  0.00  0.00    +0.000 A 
ATOM     11  C   UNL     1       2.104   2.397  21.607  0.00  0.00    +0.000 A 
ATOM     12  C   UNL     1       0.956   3.052  21.171  0.00  0.00    +0.000 A 
ATOM     13  C   UNL     1       0.997   3.941  20.092  0.00  0.00    +0.000 A 
ATOM     14  C   UNL     1       2.228   4.147  19.451  0.00  0.00    +0.000 A 
ATOM     15  S   UNL     1       2.607   5.146  18.101  0.00  0.00    +0.000 S 
ENDBRANCH   5   7
BRANCH   1  18
ATOM     16  O   UNL     1       8.698   7.317  19.096  0.00  0.00    +0.000 OA
ATOM     17  C   UNL     1       8.292   8.230  18.388  0.00  0.00    +0.000 C 
ATOM     18  N   UNL     1       7.486   8.099  17.285  0.00  0.00    +0.000 N 
ATOM     19  H   UNL     1       7.404   8.886  16.653  0.00  0.00    +0.000 HD
BRANCH  17  20
ATOM     20  C   UNL     1       8.720   9.607  18.745  0.00  0.00    +0.000 A 
ATOM     21  C   UNL     1       9.009   9.999  20.075  0.00  0.00    +0.000 A 
ATOM     22  C   UNL     1       9.698  11.194  20.317  0.00  0.00    +0.000 A 
ATOM     23  C   UNL     1      10.109  11.921  19.220  0.00  0.00    +0.000 A 
ATOM     24  C   UNL     1       9.767  11.564  17.935  0.00  0.00    +0.000 A 
ATOM     25  C   UNL     1       9.036  10.439  17.665  0.00  0.00    +0.000 A 
ATOM     26  O   UNL     1      10.348  12.363  17.000  0.00  0.00    +0.000 OA
ATOM     27  C   UNL     1      11.340  12.994  17.830  0.00  0.00    +0.000 C 
ATOM     28  O   UNL     1      10.974  12.975  19.230  0.00  0.00    +0.000 OA
ENDBRANCH  17  20
ENDBRANCH   1  18
TORSDOF 3
ENDMDL
MODEL 5
REMARK VINA RESULT:      -8.3      7.245      9.706
REMARK  Name = 
REMARK  3 active torsions:
REMARK  status: ('A' for Active; 'I' for Inactive)
REMARK    1  A    between atoms: C_2  and  C_19
REMARK    2  A    between atoms: N_3  and  C_4
REMARK    3  A    between atoms: C_8  and  C_9
REMARK                            x       y       z     vdW  Elec       q    Type
REMARK                         _______ _______ _______ _____ _____    ______ ____
ROOT
ATOM      1  C   UNL     1       1.408  10.039  18.050  0.00  0.00    +0.000 A 
ATOM      2  C   UNL     1       2.306  11.093  18.243  0.00  0.00    +0.000 A 
ATOM      3  C   UNL     1       1.848  12.349  18.637  0.00  0.00    +0.000 A 
ATOM      4  C   UNL     1       0.489  12.571  18.841  0.00  0.00    +0.000 A 
ATOM      5  C   UNL     1      -0.428  11.534  18.625  0.00  0.00    +0.000 A 
ATOM      6  C   UNL     1       0.048  10.278  18.216  0.00  0.00    +0.000 A 
ENDROOT
BRANCH   5   7
ATOM      7  C   UNL     1      -1.880  11.681  18.767  0.00  0.00    +0.000 A 
ATOM      8  N   UNL     1      -2.723  11.125  17.926  0.00  0.00    +0.000 NA
ATOM      9  C   UNL     1      -4.020  11.397  18.294  0.00  0.00    +0.000 A 
ATOM     10  C   UNL     1      -5.169  10.982  17.597  0.00  0.00    +0.000 A 
ATOM     11  C   UNL     1      -6.432  11.333  18.079  0.00  0.00    +0.000 A 
ATOM     12  C   UNL     1      -6.555  12.079  19.247  0.00  0.00    +0.000 A 
ATOM     13  C   UNL     1      -5.426  12.494  19.963  0.00  0.00    +0.000 A 
ATOM     14  C   UNL     1      -4.163  12.147  19.461  0.00  0.00    +0.000 A 
ATOM     15  S   UNL     1      -2.599  12.514  20.083  0.00  0.00    +0.000 S 
ENDBRANCH   5   7
BRANCH   1  18
ATOM     16  O   UNL     1       2.159   7.859  19.804  0.00  0.00    +0.000 OA
ATOM     17  C   UNL     1       2.170   7.760  18.583  0.00  0.00    +0.000 C 
ATOM     18  N   UNL     1       1.790   8.731  17.690  0.00  0.00    +0.000 N 
ATOM     19  H   UNL     1       1.625   8.461  16.728  0.00  0.00    +0.000 HD
BRANCH  17  20
ATOM     20  C   UNL     1       2.625   6.466  18.012  0.00  0.00    +0.000 A 
ATOM     21  C   UNL     1       3.985   6.187  17.734  0.00  0.00    +0.000 A 
ATOM     22  C   UNL     1       4.394   4.868  17.497  0.00  0.00    +0.000 A 
ATOM     23  C   UNL     1       3.435   3.882  17.596  0.00  0.00    +0.000 A 
ATOM     24  C   UNL     1       2.105   4.172  17.803  0.00  0.00    +0.000 A 
ATOM     25  C   UNL     1       1.660   5.454  17.970  0.00  0.00    +0.000 A 
ATOM     26  O   UNL     1       1.346   3.052  17.956  0.00  0.00    +0.000 OA
ATOM     27  C   UNL     1       2.399   2.096  18.177  0.00  0.00    +0.000 C 
ATOM     28  O   UNL     1       3.662   2.537  17.626  0.00  0.00    +0.000 OA
ENDBRANCH  17  20
ENDBRANCH   1  18
TORSDOF 3
ENDMDL
MODEL 6
REMARK VINA RESULT:      -8.3      7.658     10.003
REMARK  Name = 
REMARK  3 active torsions:
REMARK  status: ('A' for Active; 'I' for Inactive)
REMARK    1  A    between atoms: C_2  and  C_19
REMARK    2  A    between atoms: N_3  and  C_4
REMARK    3  A    between atoms: C_8  and  C_9
REMARK                            x       y       z     vdW  Elec       q    Type
REMARK                         _______ _______ _______ _____ _____    ______ ____
ROOT
ATOM      1  C   UNL     1       0.896  10.642  19.083  0.00  0.00    +0.000 A 
ATOM      2  C   UNL     1       1.674  11.751  18.737  0.00  0.00    +0.000 A 
ATOM      3  C   UNL     1       1.081  12.996  18.530  0.00  0.00    +0.000 A 
ATOM      4  C   UNL     1      -0.296  13.149  18.663  0.00  0.00    +0.000 A 
ATOM      5  C   UNL     1      -1.095  12.044  18.981  0.00  0.00    +0.000 A 
ATOM      6  C   UNL     1      -0.484  10.794  19.174  0.00  0.00    +0.000 A 
ENDROOT
BRANCH   5   7
ATOM      7  C   UNL     1      -2.556  12.094  19.096  0.00  0.00    +0.000 A 
ATOM      8  N   UNL     1      -3.346  11.534  18.207  0.00  0.00    +0.000 NA
ATOM      9  C   UNL     1      -4.664  11.706  18.559  0.00  0.00    +0.000 A 
ATOM     10  C   UNL     1      -5.771  11.260  17.814  0.00  0.00    +0.000 A 
ATOM     11  C   UNL     1      -7.063  11.507  18.284  0.00  0.00    +0.000 A 
ATOM     12  C   UNL     1      -7.255  12.179  19.487  0.00  0.00    +0.000 A 
ATOM     13  C   UNL     1      -6.169  12.622  20.250  0.00  0.00    +0.000 A 
ATOM     14  C   UNL     1      -4.877  12.381  19.761  0.00  0.00    +0.000 A 
ATOM     15  S   UNL     1      -3.352  12.808  20.437  0.00  0.00    +0.000 S 
ENDBRANCH   5   7
BRANCH   1  18
ATOM     16  O   UNL     1       2.258   8.866  17.245  0.00  0.00    +0.000 OA
ATOM     17  C   UNL     1       2.020   8.560  18.408  0.00  0.00    +0.000 C 
ATOM     18  N   UNL     1       1.418   9.361  19.346  0.00  0.00    +0.000 N 
ATOM     19  H   UNL     1       1.481   9.090  20.320  0.00  0.00    +0.000 HD
BRANCH  17  20
ATOM     20  C   UNL     1       2.431   7.203  18.849  0.00  0.00    +0.000 A 
ATOM     21  C   UNL     1       2.042   6.650  20.092  0.00  0.00    +0.000 A 
ATOM     22  C   UNL     1       2.189   5.276  20.324  0.00  0.00    +0.000 A 
ATOM     23  C   UNL     1       2.673   4.508  19.286  0.00  0.00    +0.000 A 
ATOM     24  C   UNL     1       3.109   5.065  18.104  0.00  0.00    +0.000 A 
ATOM     25  C   UNL     1       3.044   6.411  17.870  0.00  0.00    +0.000 A 
ATOM     26  O   UNL     1       3.463   4.126  17.185  0.00  0.00    +0.000 OA
ATOM     27  C   UNL     1       2.860   2.973  17.801  0.00  0.00    +0.000 C 
ATOM     28  O   UNL     1       2.679   3.146  19.226  0.00  0.00    +0.000 OA
ENDBRANCH  17  20
ENDBRANCH   1  18
TORSDOF 3
ENDMDL
MODEL 7
REMARK VINA RESULT:      -8.3      4.735      7.339
REMARK  Name = 
REMARK  3 active torsions:
REMARK  status: ('A' for Active; 'I' for Inactive)
REMARK    1  A    between atoms: C_2  and  C_19
REMARK    2  A    between atoms: N_3  and  C_4
REMARK    3  A    between atoms: C_8  and  C_9
REMARK                            x       y       z     vdW  Elec       q    Type
REMARK                         _______ _______ _______ _____ _____    ______ ____
ROOT
ATOM      1  C   UNL     1       2.148   5.085  20.706  0.00  0.00    +0.000 A 
ATOM      2  C   UNL     1       2.054   3.892  21.428  0.00  0.00    +0.000 A 
ATOM      3  C   UNL     1       2.832   2.789  21.078  0.00  0.00    +0.000 A 
ATOM      4  C   UNL     1       3.711   2.862  20.001  0.00  0.00    +0.000 A 
ATOM      5  C   UNL     1       3.798   4.040  19.248  0.00  0.00    +0.000 A 
ATOM      6  C   UNL     1       2.998   5.138  19.606  0.00  0.00    +0.000 A 
ENDROOT
BRANCH   5   7
ATOM      7  C   UNL     1       4.657   4.199  18.071  0.00  0.00    +0.000 A 
ATOM      8  N   UNL     1       4.264   3.844  16.867  0.00  0.00    +0.000 NA
ATOM      9  C   UNL     1       5.244   4.117  15.942  0.00  0.00    +0.000 A 
ATOM     10  C   UNL     1       5.167   3.835  14.566  0.00  0.00    +0.000 A 
ATOM     11  C   UNL     1       6.240   4.160  13.734  0.00  0.00    +0.000 A 
ATOM     12  C   UNL     1       7.375   4.771  14.259  0.00  0.00    +0.000 A 
ATOM     13  C   UNL     1       7.470   5.071  15.623  0.00  0.00    +0.000 A 
ATOM     14  C   UNL     1       6.391   4.727  16.451  0.00  0.00    +0.000 A 
ATOM     15  S   UNL     1       6.203   4.938  18.150  0.00  0.00    +0.000 S 
ENDBRANCH   5   7
BRANCH   1  18
ATOM     16  O   UNL     1       2.359   7.687  19.452  0.00  0.00    +0.000 OA
ATOM     17  C   UNL     1       1.613   7.467  20.398  0.00  0.00    +0.000 C 
ATOM     18  N   UNL     1       1.428   6.256  21.016  0.00  0.00    +0.000 N 
ATOM     19  H   UNL     1       0.628   6.145  21.627  0.00  0.00    +0.000 HD
BRANCH  17  20
ATOM     20  C   UNL     1       0.823   8.613  20.919  0.00  0.00    +0.000 A 
ATOM     21  C   UNL     1       0.349   8.674  22.251  0.00  0.00    +0.000 A 
ATOM     22  C   UNL     1      -0.110   9.890  22.775  0.00  0.00    +0.000 A 
ATOM     23  C   UNL     1      -0.030  11.000  21.960  0.00  0.00    +0.000 A 
ATOM     24  C   UNL     1       0.372  10.916  20.646  0.00  0.00    +0.000 A 
ATOM     25  C   UNL     1       0.762   9.733  20.081  0.00  0.00    +0.000 A 
ATOM     26  O   UNL     1       0.464  12.136  20.051  0.00  0.00    +0.000 OA
ATOM     27  C   UNL     1       0.427  12.963  21.228  0.00  0.00    +0.000 C 
ATOM     28  O   UNL     1      -0.208  12.296  22.345  0.00  0.00    +0.000 OA
ENDBRANCH  17  20
ENDBRANCH   1  18
TORSDOF 3
ENDMDL
MODEL 8
REMARK VINA RESULT:      -8.2      5.321      7.591
REMARK  Name = 
REMARK  3 active torsions:
REMARK  status: ('A' for Active; 'I' for Inactive)
REMARK    1  A    between atoms: C_2  and  C_19
REMARK    2  A    between atoms: N_3  and  C_4
REMARK    3  A    between atoms: C_8  and  C_9
REMARK                            x       y       z     vdW  Elec       q    Type
REMARK                         _______ _______ _______ _____ _____    ______ ____
ROOT
ATOM      1  C   UNL     1       3.203   5.877  19.293  0.00  0.00    +0.000 A 
ATOM      2  C   UNL     1       3.013   4.716  20.049  0.00  0.00    +0.000 A 
ATOM      3  C   UNL     1       3.588   3.510  19.652  0.00  0.00    +0.000 A 
ATOM      4  C   UNL     1       4.356   3.445  18.493  0.00  0.00    +0.000 A 
ATOM      5  C   UNL     1       4.533   4.590  17.707  0.00  0.00    +0.000 A 
ATOM      6  C   UNL     1       3.937   5.796  18.114  0.00  0.00    +0.000 A 
ENDROOT
BRANCH   5   7
ATOM      7  C   UNL     1       5.283   4.613  16.447  0.00  0.00    +0.000 A 
ATOM      8  N   UNL     1       4.896   3.932  15.391  0.00  0.00    +0.000 NA
ATOM      9  C   UNL     1       5.758   4.142  14.341  0.00  0.00    +0.000 A 
ATOM     10  C   UNL     1       5.657   3.543  13.072  0.00  0.00    +0.000 A 
ATOM     11  C   UNL     1       6.607   3.839  12.093  0.00  0.00    +0.000 A 
ATOM     12  C   UNL     1       7.642   4.729  12.365  0.00  0.00    +0.000 A 
ATOM     13  C   UNL     1       7.756   5.345  13.616  0.00  0.00    +0.000 A 
ATOM     14  C   UNL     1       6.803   5.029  14.596  0.00  0.00    +0.000 A 
ATOM     15  S   UNL     1       6.674   5.590  16.220  0.00  0.00    +0.000 S 
ENDBRANCH   5   7
BRANCH   1  18
ATOM     16  O   UNL     1       1.128   6.483  21.220  0.00  0.00    +0.000 OA
ATOM     17  C   UNL     1       1.675   7.345  20.544  0.00  0.00    +0.000 C 
ATOM     18  N   UNL     1       2.691   7.141  19.643  0.00  0.00    +0.000 N 
ATOM     19  H   UNL     1       3.212   7.946  19.316  0.00  0.00    +0.000 HD
BRANCH  17  20
ATOM     20  C   UNL     1       1.206   8.744  20.720  0.00  0.00    +0.000 A 
ATOM     21  C   UNL     1       0.870   9.583  19.631  0.00  0.00    +0.000 A 
ATOM     22  C   UNL     1       0.148  10.762  19.854  0.00  0.00    +0.000 A 
ATOM     23  C   UNL     1      -0.248  11.027  21.149  0.00  0.00    +0.000 A 
ATOM     24  C   UNL     1       0.141  10.237  22.209  0.00  0.00    +0.000 A 
ATOM     25  C   UNL     1       0.903   9.116  22.036  0.00  0.00    +0.000 A 
ATOM     26  O   UNL     1      -0.431  10.624  23.382  0.00  0.00    +0.000 OA
ATOM     27  C   UNL     1      -1.461  11.481  22.858  0.00  0.00    +0.000 C 
ATOM     28  O   UNL     1      -1.135  11.985  21.541  0.00  0.00    +0.000 OA
ENDBRANCH  17  20
ENDBRANCH   1  18
TORSDOF 3
ENDMDL
MODEL 9
REMARK VINA RESULT:      -8.2      5.064      7.470
REMARK  Name = 
REMARK  3 active torsions:
REMARK  status: ('A' for Active; 'I' for Inactive)
REMARK    1  A    between atoms: C_2  and  C_19
REMARK    2  A    between atoms: N_3  and  C_4
REMARK    3  A    between atoms: C_8  and  C_9
REMARK                            x       y       z     vdW  Elec       q    Type
REMARK                         _______ _______ _______ _____ _____    ______ ____
ROOT
ATOM      1  C   UNL     1       2.202   5.718  20.453  0.00  0.00    +0.000 A 
ATOM      2  C   UNL     1       1.901   4.536  21.135  0.00  0.00    +0.000 A 
ATOM      3  C   UNL     1       2.491   3.330  20.757  0.00  0.00    +0.000 A 
ATOM      4  C   UNL     1       3.385   3.289  19.691  0.00  0.00    +0.000 A 
ATOM      5  C   UNL     1       3.677   4.459  18.978  0.00  0.00    +0.000 A 
ATOM      6  C   UNL     1       3.066   5.663  19.364  0.00  0.00    +0.000 A 
ENDROOT
BRANCH   5   7
ATOM      7  C   UNL     1       4.568   4.509  17.814  0.00  0.00    +0.000 A 
ATOM      8  N   UNL     1       4.210   4.039  16.640  0.00  0.00    +0.000 NA
ATOM      9  C   UNL     1       5.214   4.228  15.720  0.00  0.00    +0.000 A 
ATOM     10  C   UNL     1       5.176   3.816  14.376  0.00  0.00    +0.000 A 
ATOM     11  C   UNL     1       6.271   4.065  13.546  0.00  0.00    +0.000 A 
ATOM     12  C   UNL     1       7.390   4.728  14.042  0.00  0.00    +0.000 A 
ATOM     13  C   UNL     1       7.447   5.156  15.373  0.00  0.00    +0.000 A 
ATOM     14  C   UNL     1       6.346   4.888  16.200  0.00  0.00    +0.000 A 
ATOM     15  S   UNL     1       6.111   5.258  17.865  0.00  0.00    +0.000 S 
ENDBRANCH   5   7
BRANCH   1  18
ATOM     16  O   UNL     1       2.040   8.083  18.788  0.00  0.00    +0.000 OA
ATOM     17  C   UNL     1       1.674   8.070  19.957  0.00  0.00    +0.000 C 
ATOM     18  N   UNL     1       1.681   6.982  20.794  0.00  0.00    +0.000 N 
ATOM     19  H   UNL     1       1.150   7.035  21.655  0.00  0.00    +0.000 HD
BRANCH  17  20
ATOM     20  C   UNL     1       1.164   9.346  20.521  0.00  0.00    +0.000 A 
ATOM     21  C   UNL     1       0.891  10.483  19.722  0.00  0.00    +0.000 A 
ATOM     22  C   UNL     1       0.130  11.537  20.242  0.00  0.00    +0.000 A 
ATOM     23  C   UNL     1      -0.366  11.388  21.520  0.00  0.00    +0.000 A 
ATOM     24  C   UNL     1      -0.041  10.308  22.311  0.00  0.00    +0.000 A 
ATOM     25  C   UNL     1       0.756   9.293  21.859  0.00  0.00    +0.000 A 
ATOM     26  O   UNL     1      -0.706  10.314  23.498  0.00  0.00    +0.000 OA
ATOM     27  C   UNL     1      -1.713  11.294  23.187  0.00  0.00    +0.000 C 
ATOM     28  O   UNL     1      -1.301  12.180  22.119  0.00  0.00    +0.000 OA
ENDBRANCH  17  20
ENDBRANCH   1  18
TORSDOF 3
ENDMDL
