MODEL 1
REMARK VINA RESULT:      -9.1      0.000      0.000
REMARK  Name = 
REMARK  10 active torsions:
REMARK  status: ('A' for Active; 'I' for Inactive)
REMARK    1  A    between atoms: C_1  and  C_2
REMARK    2  A    between atoms: C_5  and  C_6
REMARK    3  A    between atoms: C_6  and  N_7
REMARK    4  A    between atoms: N_7  and  C_8
REMARK    5  A    between atoms: C_10  and  O_11
REMARK    6  A    between atoms: O_11  and  C_12
REMARK    7  A    between atoms: C_12  and  C_13
REMARK    8  A    between atoms: C_15  and  C_16
REMARK    9  A    between atoms: N_18  and  C_19
REMARK   10  A    between atoms: N_27  and  C_28
REMARK                            x       y       z     vdW  Elec       q    Type
REMARK                         _______ _______ _______ _____ _____    ______ ____
ROOT
ATOM      1  C   UNL     1       3.982   4.246  19.262  0.00  0.00    +0.000 A 
ATOM      2  C   UNL     1       3.540   5.506  19.322  0.00  0.00    +0.000 A 
ATOM      3  C   UNL     1       2.406   5.774  20.205  0.00  0.00    +0.000 A 
ATOM      4  N   UNL     1       1.755   4.907  20.910  0.00  0.00    +0.000 NA
ATOM      5  N   UNL     1       2.168   3.595  20.804  0.00  0.00    +0.000 N 
ATOM      6  C   UNL     1       1.438   2.608  21.575  0.00  0.00    +0.000 C 
ATOM      7  C   UNL     1       3.250   3.175  20.038  0.00  0.00    +0.000 A 
ATOM      8  O   UNL     1       3.642   2.012  19.960  0.00  0.00    +0.000 OA
ENDROOT
BRANCH   1   9
ATOM      9  N   UNL     1       5.072   3.836  18.477  0.00  0.00    +0.000 N 
ATOM     10  H   UNL     1       5.563   3.113  19.020  0.00  0.00    +0.000 HD
BRANCH   9  11
ATOM     11  C   UNL     1       6.110   4.816  18.111  0.00  0.00    +0.000 C 
BRANCH  11  16
ATOM     12  C   UNL     1       6.491   3.843  12.891  0.00  0.00    +0.000 C 
ATOM     13  C   UNL     1       6.611   4.392  14.270  0.00  0.00    +0.000 A 
ATOM     14  N   UNL     1       7.359   5.424  14.590  0.00  0.00    +0.000 NA
ATOM     15  C   UNL     1       7.247   5.675  15.943  0.00  0.00    +0.000 A 
ATOM     16  C   UNL     1       6.416   4.829  16.649  0.00  0.00    +0.000 A 
ATOM     17  S   UNL     1       5.745   3.673  15.570  0.00  0.00    +0.000 S 
ENDBRANCH  11  16
ENDBRANCH   9  11
ENDBRANCH   1   9
BRANCH   3  18
ATOM     18  O   UNL     1       2.137   7.107  20.202  0.00  0.00    +0.000 OA
BRANCH  18  19
ATOM     19  C   UNL     1       2.221   7.750  18.917  0.00  0.00    +0.000 C 
BRANCH  19  20
ATOM     20  C   UNL     1       1.588   9.110  18.910  0.00  0.00    +0.000 C 
ATOM     21  C   UNL     1       1.980  10.159  17.919  0.00  0.00    +0.000 C 
ATOM     22  C   UNL     1       0.586   9.561  17.855  0.00  0.00    +0.000 C 
BRANCH  22  23
ATOM     23  C   UNL     1      -0.606  10.405  18.313  0.00  0.00    +0.000 A 
ATOM     24  N   UNL     1      -0.637  11.096  19.458  0.00  0.00    +0.000 NA
ATOM     25  N   UNL     1      -1.864  11.657  19.455  0.00  0.00    +0.000 N 
ATOM     26  C   UNL     1      -2.257  12.534  20.532  0.00  0.00    +0.000 C 
ATOM     27  C   UNL     1      -2.635  11.316  18.370  0.00  0.00    +0.000 A 
ATOM     28  C   UNL     1      -3.954  11.634  18.012  0.00  0.00    +0.000 A 
ATOM     29  C   UNL     1      -4.437  11.112  16.807  0.00  0.00    +0.000 A 
ATOM     30  C   UNL     1      -3.631  10.321  15.990  0.00  0.00    +0.000 A 
ATOM     31  C   UNL     1      -2.318  10.014  16.363  0.00  0.00    +0.000 A 
ATOM     32  C   UNL     1      -1.816  10.513  17.580  0.00  0.00    +0.000 A 
ENDBRANCH  22  23
ENDBRANCH  19  20
ENDBRANCH  18  19
ENDBRANCH   3  18
TORSDOF 7
ENDMDL
MODEL 2
REMARK VINA RESULT:      -8.7      1.553      1.856
REMARK  Name = 
REMARK  10 active torsions:
REMARK  status: ('A' for Active; 'I' for Inactive)
REMARK    1  A    between atoms: C_1  and  C_2
REMARK    2  A    between atoms: C_5  and  C_6
REMARK    3  A    between atoms: C_6  and  N_7
REMARK    4  A    between atoms: N_7  and  C_8
REMARK    5  A    between atoms: C_10  and  O_11
REMARK    6  A    between atoms: O_11  and  C_12
REMARK    7  A    between atoms: C_12  and  C_13
REMARK    8  A    between atoms: C_15  and  C_16
REMARK    9  A    between atoms: N_18  and  C_19
REMARK   10  A    between atoms: N_27  and  C_28
REMARK                            x       y       z     vdW  Elec       q    Type
REMARK                         _______ _______ _______ _____ _____    ______ ____
ROOT
ATOM      1  C   UNL     1       2.781   4.172  18.413  0.00  0.00    +0.000 A 
ATOM      2  C   UNL     1       2.501   5.447  18.704  0.00  0.00    +0.000 A 
ATOM      3  C   UNL     1       1.930   5.722  20.020  0.00  0.00    +0.000 A 
ATOM      4  N   UNL     1       1.627   4.852  20.928  0.00  0.00    +0.000 NA
ATOM      5  N   UNL     1       1.857   3.528  20.611  0.00  0.00    +0.000 N 
ATOM      6  C   UNL     1       1.508   2.539  21.611  0.00  0.00    +0.000 C 
ATOM      7  C   UNL     1       2.427   3.098  19.417  0.00  0.00    +0.000 A 
ATOM      8  O   UNL     1       2.661   1.923  19.138  0.00  0.00    +0.000 OA
ENDROOT
BRANCH   1   9
ATOM      9  N   UNL     1       3.350   3.751  17.200  0.00  0.00    +0.000 N 
ATOM     10  H   UNL     1       2.868   2.880  16.942  0.00  0.00    +0.000 HD
BRANCH   9  11
ATOM     11  C   UNL     1       4.787   3.428  17.149  0.00  0.00    +0.000 C 
BRANCH  11  16
ATOM     12  C   UNL     1       7.676   7.890  17.458  0.00  0.00    +0.000 C 
ATOM     13  C   UNL     1       6.993   6.591  17.712  0.00  0.00    +0.000 A 
ATOM     14  N   UNL     1       7.113   5.900  18.824  0.00  0.00    +0.000 NA
ATOM     15  C   UNL     1       6.354   4.750  18.739  0.00  0.00    +0.000 A 
ATOM     16  C   UNL     1       5.660   4.569  17.560  0.00  0.00    +0.000 A 
ATOM     17  S   UNL     1       5.972   5.896  16.515  0.00  0.00    +0.000 S 
ENDBRANCH  11  16
ENDBRANCH   9  11
ENDBRANCH   1   9
BRANCH   3  18
ATOM     18  O   UNL     1       1.778   7.064  20.174  0.00  0.00    +0.000 OA
BRANCH  18  19
ATOM     19  C   UNL     1       2.250   7.868  19.078  0.00  0.00    +0.000 C 
BRANCH  19  20
ATOM     20  C   UNL     1       1.584   9.211  19.019  0.00  0.00    +0.000 C 
ATOM     21  C   UNL     1       1.936  10.222  17.975  0.00  0.00    +0.000 C 
ATOM     22  C   UNL     1       0.555   9.590  17.959  0.00  0.00    +0.000 C 
BRANCH  22  23
ATOM     23  C   UNL     1      -0.650  10.425  18.397  0.00  0.00    +0.000 A 
ATOM     24  N   UNL     1      -0.720  11.086  19.558  0.00  0.00    +0.000 NA
ATOM     25  N   UNL     1      -1.945  11.651  19.526  0.00  0.00    +0.000 N 
ATOM     26  C   UNL     1      -2.373  12.500  20.612  0.00  0.00    +0.000 C 
ATOM     27  C   UNL     1      -2.677  11.341  18.406  0.00  0.00    +0.000 A 
ATOM     28  C   UNL     1      -3.982  11.673  18.010  0.00  0.00    +0.000 A 
ATOM     29  C   UNL     1      -4.423  11.184  16.775  0.00  0.00    +0.000 A 
ATOM     30  C   UNL     1      -3.590  10.412  15.967  0.00  0.00    +0.000 A 
ATOM     31  C   UNL     1      -2.292  10.091  16.378  0.00  0.00    +0.000 A 
ATOM     32  C   UNL     1      -1.832  10.556  17.625  0.00  0.00    +0.000 A 
ENDBRANCH  22  23
ENDBRANCH  19  20
ENDBRANCH  18  19
ENDBRANCH   3  18
TORSDOF 7
ENDMDL
MODEL 3
REMARK VINA RESULT:      -8.7      1.709      2.168
REMARK  Name = 
REMARK  10 active torsions:
REMARK  status: ('A' for Active; 'I' for Inactive)
REMARK    1  A    between atoms: C_1  and  C_2
REMARK    2  A    between atoms: C_5  and  C_6
REMARK    3  A    between atoms: C_6  and  N_7
REMARK    4  A    between atoms: N_7  and  C_8
REMARK    5  A    between atoms: C_10  and  O_11
REMARK    6  A    between atoms: O_11  and  C_12
REMARK    7  A    between atoms: C_12  and  C_13
REMARK    8  A    between atoms: C_15  and  C_16
REMARK    9  A    between atoms: N_18  and  C_19
REMARK   10  A    between atoms: N_27  and  C_28
REMARK                            x       y       z     vdW  Elec       q    Type
REMARK                         _______ _______ _______ _____ _____    ______ ____
ROOT
ATOM      1  C   UNL     1       4.190   3.992  18.975  0.00  0.00    +0.000 A 
ATOM      2  C   UNL     1       3.785   5.251  19.174  0.00  0.00    +0.000 A 
ATOM      3  C   UNL     1       2.371   5.458  19.479  0.00  0.00    +0.000 A 
ATOM      4  N   UNL     1       1.453   4.548  19.539  0.00  0.00    +0.000 NA
ATOM      5  N   UNL     1       1.853   3.254  19.275  0.00  0.00    +0.000 N 
ATOM      6  C   UNL     1       0.833   2.225  19.322  0.00  0.00    +0.000 C 
ATOM      7  C   UNL     1       3.165   2.881  19.003  0.00  0.00    +0.000 A 
ATOM      8  O   UNL     1       3.534   1.727  18.793  0.00  0.00    +0.000 OA
ENDROOT
BRANCH   1   9
ATOM      9  N   UNL     1       5.517   3.632  18.693  0.00  0.00    +0.000 N 
ATOM     10  H   UNL     1       6.072   3.908  19.514  0.00  0.00    +0.000 HD
BRANCH   9  11
ATOM     11  C   UNL     1       6.203   4.241  17.540  0.00  0.00    +0.000 C 
BRANCH  11  16
ATOM     12  C   UNL     1       8.138   9.195  17.773  0.00  0.00    +0.000 C 
ATOM     13  C   UNL     1       7.819   7.758  17.995  0.00  0.00    +0.000 A 
ATOM     14  N   UNL     1       8.374   7.015  18.926  0.00  0.00    +0.000 NA
ATOM     15  C   UNL     1       7.860   5.735  18.865  0.00  0.00    +0.000 A 
ATOM     16  C   UNL     1       6.917   5.508  17.883  0.00  0.00    +0.000 A 
ATOM     17  S   UNL     1       6.663   6.960  17.002  0.00  0.00    +0.000 S 
ENDBRANCH  11  16
ENDBRANCH   9  11
ENDBRANCH   1   9
BRANCH   3  18
ATOM     18  O   UNL     1       2.150   6.777  19.723  0.00  0.00    +0.000 OA
BRANCH  18  19
ATOM     19  C   UNL     1       2.416   7.661  18.619  0.00  0.00    +0.000 C 
BRANCH  19  20
ATOM     20  C   UNL     1       1.786   9.011  18.796  0.00  0.00    +0.000 C 
ATOM     21  C   UNL     1       2.147  10.172  17.925  0.00  0.00    +0.000 C 
ATOM     22  C   UNL     1       0.750   9.583  17.835  0.00  0.00    +0.000 C 
BRANCH  22  23
ATOM     23  C   UNL     1      -0.425  10.363  18.430  0.00  0.00    +0.000 A 
ATOM     24  N   UNL     1      -0.404  10.942  19.635  0.00  0.00    +0.000 NA
ATOM     25  N   UNL     1      -1.635  11.484  19.746  0.00  0.00    +0.000 N 
ATOM     26  C   UNL     1      -1.981  12.249  20.920  0.00  0.00    +0.000 C 
ATOM     27  C   UNL     1      -2.456  11.237  18.672  0.00  0.00    +0.000 A 
ATOM     28  C   UNL     1      -3.794  11.569  18.411  0.00  0.00    +0.000 A 
ATOM     29  C   UNL     1      -4.332  11.158  17.187  0.00  0.00    +0.000 A 
ATOM     30  C   UNL     1      -3.561  10.459  16.260  0.00  0.00    +0.000 A 
ATOM     31  C   UNL     1      -2.228  10.136  16.537  0.00  0.00    +0.000 A 
ATOM     32  C   UNL     1      -1.670  10.524  17.770  0.00  0.00    +0.000 A 
ENDBRANCH  22  23
ENDBRANCH  19  20
ENDBRANCH  18  19
ENDBRANCH   3  18
TORSDOF 7
ENDMDL
MODEL 4
REMARK VINA RESULT:      -8.6      2.989      3.353
REMARK  Name = 
REMARK  10 active torsions:
REMARK  status: ('A' for Active; 'I' for Inactive)
REMARK    1  A    between atoms: C_1  and  C_2
REMARK    2  A    between atoms: C_5  and  C_6
REMARK    3  A    between atoms: C_6  and  N_7
REMARK    4  A    between atoms: N_7  and  C_8
REMARK    5  A    between atoms: C_10  and  O_11
REMARK    6  A    between atoms: O_11  and  C_12
REMARK    7  A    between atoms: C_12  and  C_13
REMARK    8  A    between atoms: C_15  and  C_16
REMARK    9  A    between atoms: N_18  and  C_19
REMARK   10  A    between atoms: N_27  and  C_28
REMARK                            x       y       z     vdW  Elec       q    Type
REMARK                         _______ _______ _______ _____ _____    ______ ____
ROOT
ATOM      1  C   UNL     1       3.768   3.936  19.512  0.00  0.00    +0.000 A 
ATOM      2  C   UNL     1       3.254   5.011  20.118  0.00  0.00    +0.000 A 
ATOM      3  C   UNL     1       1.805   5.042  20.309  0.00  0.00    +0.000 A 
ATOM      4  N   UNL     1       0.956   4.150  19.915  0.00  0.00    +0.000 NA
ATOM      5  N   UNL     1       1.474   3.066  19.235  0.00  0.00    +0.000 N 
ATOM      6  C   UNL     1       0.533   2.065  18.772  0.00  0.00    +0.000 C 
ATOM      7  C   UNL     1       2.830   2.866  19.000  0.00  0.00    +0.000 A 
ATOM      8  O   UNL     1       3.302   1.890  18.419  0.00  0.00    +0.000 OA
ENDROOT
BRANCH   1   9
ATOM      9  N   UNL     1       5.140   3.751  19.275  0.00  0.00    +0.000 N 
ATOM     10  H   UNL     1       5.559   3.509  20.183  0.00  0.00    +0.000 HD
BRANCH   9  11
ATOM     11  C   UNL     1       5.944   4.876  18.765  0.00  0.00    +0.000 C 
BRANCH  11  16
ATOM     12  C   UNL     1       6.028   3.890  13.534  0.00  0.00    +0.000 C 
ATOM     13  C   UNL     1       6.343   4.290  14.933  0.00  0.00    +0.000 A 
ATOM     14  N   UNL     1       7.493   4.801  15.313  0.00  0.00    +0.000 NA
ATOM     15  C   UNL     1       7.460   5.062  16.668  0.00  0.00    +0.000 A 
ATOM     16  C   UNL     1       6.283   4.746  17.316  0.00  0.00    +0.000 A 
ATOM     17  S   UNL     1       5.173   4.096  16.178  0.00  0.00    +0.000 S 
ENDBRANCH  11  16
ENDBRANCH   9  11
ENDBRANCH   1   9
BRANCH   3  18
ATOM     18  O   UNL     1       1.465   6.162  21.001  0.00  0.00    +0.000 OA
BRANCH  18  19
ATOM     19  C   UNL     1       1.911   7.402  20.423  0.00  0.00    +0.000 C 
BRANCH  19  20
ATOM     20  C   UNL     1       0.923   8.515  20.612  0.00  0.00    +0.000 C 
ATOM     21  C   UNL     1      -0.218   8.403  21.573  0.00  0.00    +0.000 C 
ATOM     22  C   UNL     1       0.890   9.404  21.849  0.00  0.00    +0.000 C 
BRANCH  22  23
ATOM     23  C   UNL     1       0.610  10.896  21.651  0.00  0.00    +0.000 A 
ATOM     24  N   UNL     1       1.396  11.717  20.946  0.00  0.00    +0.000 NA
ATOM     25  N   UNL     1       0.784  12.914  21.059  0.00  0.00    +0.000 N 
ATOM     26  C   UNL     1       1.326  14.065  20.377  0.00  0.00    +0.000 C 
ATOM     27  C   UNL     1      -0.342  12.897  21.845  0.00  0.00    +0.000 A 
ATOM     28  C   UNL     1      -1.226  13.909  22.251  0.00  0.00    +0.000 A 
ATOM     29  C   UNL     1      -2.300  13.537  23.066  0.00  0.00    +0.000 A 
ATOM     30  C   UNL     1      -2.490  12.209  23.444  0.00  0.00    +0.000 A 
ATOM     31  C   UNL     1      -1.600  11.213  23.030  0.00  0.00    +0.000 A 
ATOM     32  C   UNL     1      -0.500  11.566  22.225  0.00  0.00    +0.000 A 
ENDBRANCH  22  23
ENDBRANCH  19  20
ENDBRANCH  18  19
ENDBRANCH   3  18
TORSDOF 7
ENDMDL
MODEL 5
REMARK VINA RESULT:      -8.3      1.291      1.484
REMARK  Name = 
REMARK  10 active torsions:
REMARK  status: ('A' for Active; 'I' for Inactive)
REMARK    1  A    between atoms: C_1  and  C_2
REMARK    2  A    between atoms: C_5  and  C_6
REMARK    3  A    between atoms: C_6  and  N_7
REMARK    4  A    between atoms: N_7  and  C_8
REMARK    5  A    between atoms: C_10  and  O_11
REMARK    6  A    between atoms: O_11  and  C_12
REMARK    7  A    between atoms: C_12  and  C_13
REMARK    8  A    between atoms: C_15  and  C_16
REMARK    9  A    between atoms: N_18  and  C_19
REMARK   10  A    between atoms: N_27  and  C_28
REMARK                            x       y       z     vdW  Elec       q    Type
REMARK                         _______ _______ _______ _____ _____    ______ ____
ROOT
ATOM      1  C   UNL     1       3.121   5.371  18.685  0.00  0.00    +0.000 A 
ATOM      2  C   UNL     1       2.501   6.368  19.326  0.00  0.00    +0.000 A 
ATOM      3  C   UNL     1       1.880   6.051  20.611  0.00  0.00    +0.000 A 
ATOM      4  N   UNL     1       1.832   4.891  21.180  0.00  0.00    +0.000 NA
ATOM      5  N   UNL     1       2.418   3.846  20.494  0.00  0.00    +0.000 N 
ATOM      6  C   UNL     1       2.358   2.536  21.111  0.00  0.00    +0.000 C 
ATOM      7  C   UNL     1       3.081   3.982  19.280  0.00  0.00    +0.000 A 
ATOM      8  O   UNL     1       3.629   3.061  18.676  0.00  0.00    +0.000 OA
ENDROOT
BRANCH   1   9
ATOM      9  N   UNL     1       3.780   5.523  17.455  0.00  0.00    +0.000 N 
ATOM     10  H   UNL     1       3.730   4.608  16.986  0.00  0.00    +0.000 HD
BRANCH   9  11
ATOM     11  C   UNL     1       5.208   5.887  17.439  0.00  0.00    +0.000 C 
BRANCH  11  16
ATOM     12  C   UNL     1       6.635   3.775  12.764  0.00  0.00    +0.000 C 
ATOM     13  C   UNL     1       6.581   4.490  14.070  0.00  0.00    +0.000 A 
ATOM     14  N   UNL     1       7.599   5.126  14.604  0.00  0.00    +0.000 NA
ATOM     15  C   UNL     1       7.218   5.678  15.811  0.00  0.00    +0.000 A 
ATOM     16  C   UNL     1       5.910   5.457  16.192  0.00  0.00    +0.000 A 
ATOM     17  S   UNL     1       5.126   4.518  14.986  0.00  0.00    +0.000 S 
ENDBRANCH  11  16
ENDBRANCH   9  11
ENDBRANCH   1   9
BRANCH   3  18
ATOM     18  O   UNL     1       1.363   7.186  21.154  0.00  0.00    +0.000 OA
BRANCH  18  19
ATOM     19  C   UNL     1       1.364   8.337  20.291  0.00  0.00    +0.000 C 
BRANCH  19  20
ATOM     20  C   UNL     1       0.276   9.313  20.632  0.00  0.00    +0.000 C 
ATOM     21  C   UNL     1       0.524  10.499  21.508  0.00  0.00    +0.000 C 
ATOM     22  C   UNL     1       0.195  10.716  20.042  0.00  0.00    +0.000 C 
BRANCH  22  23
ATOM     23  C   UNL     1      -1.186  11.255  19.662  0.00  0.00    +0.000 A 
ATOM     24  N   UNL     1      -1.903  12.082  20.429  0.00  0.00    +0.000 NA
ATOM     25  N   UNL     1      -3.034  12.270  19.719  0.00  0.00    +0.000 N 
ATOM     26  C   UNL     1      -4.056  13.162  20.216  0.00  0.00    +0.000 C 
ATOM     27  C   UNL     1      -3.084  11.561  18.544  0.00  0.00    +0.000 A 
ATOM     28  C   UNL     1      -4.075  11.438  17.557  0.00  0.00    +0.000 A 
ATOM     29  C   UNL     1      -3.790  10.619  16.459  0.00  0.00    +0.000 A 
ATOM     30  C   UNL     1      -2.564   9.965  16.346  0.00  0.00    +0.000 A 
ATOM     31  C   UNL     1      -1.589  10.100  17.340  0.00  0.00    +0.000 A 
ATOM     32  C   UNL     1      -1.859  10.905  18.463  0.00  0.00    +0.000 A 
ENDBRANCH  22  23
ENDBRANCH  19  20
ENDBRANCH  18  19
ENDBRANCH   3  18
TORSDOF 7
ENDMDL
MODEL 6
REMARK VINA RESULT:      -8.3      1.440      1.948
REMARK  Name = 
REMARK  10 active torsions:
REMARK  status: ('A' for Active; 'I' for Inactive)
REMARK    1  A    between atoms: C_1  and  C_2
REMARK    2  A    between atoms: C_5  and  C_6
REMARK    3  A    between atoms: C_6  and  N_7
REMARK    4  A    between atoms: N_7  and  C_8
REMARK    5  A    between atoms: C_10  and  O_11
REMARK    6  A    between atoms: O_11  and  C_12
REMARK    7  A    between atoms: C_12  and  C_13
REMARK    8  A    between atoms: C_15  and  C_16
REMARK    9  A    between atoms: N_18  and  C_19
REMARK   10  A    between atoms: N_27  and  C_28
REMARK                            x       y       z     vdW  Elec       q    Type
REMARK                         _______ _______ _______ _____ _____    ______ ____
ROOT
ATOM      1  C   UNL     1       3.913   3.523  18.149  0.00  0.00    +0.000 A 
ATOM      2  C   UNL     1       3.153   4.588  17.874  0.00  0.00    +0.000 A 
ATOM      3  C   UNL     1       2.215   5.024  18.907  0.00  0.00    +0.000 A 
ATOM      4  N   UNL     1       2.012   4.460  20.053  0.00  0.00    +0.000 NA
ATOM      5  N   UNL     1       2.750   3.324  20.317  0.00  0.00    +0.000 N 
ATOM      6  C   UNL     1       2.522   2.670  21.590  0.00  0.00    +0.000 C 
ATOM      7  C   UNL     1       3.709   2.797  19.459  0.00  0.00    +0.000 A 
ATOM      8  O   UNL     1       4.390   1.801  19.699  0.00  0.00    +0.000 OA
ENDROOT
BRANCH   1   9
ATOM      9  N   UNL     1       4.873   2.997  17.268  0.00  0.00    +0.000 N 
ATOM     10  H   UNL     1       5.710   2.806  17.834  0.00  0.00    +0.000 HD
BRANCH   9  11
ATOM     11  C   UNL     1       5.347   3.819  16.141  0.00  0.00    +0.000 C 
BRANCH  11  16
ATOM     12  C   UNL     1       8.295   7.610  18.439  0.00  0.00    +0.000 C 
ATOM     13  C   UNL     1       7.320   6.836  17.623  0.00  0.00    +0.000 A 
ATOM     14  N   UNL     1       6.455   7.379  16.796  0.00  0.00    +0.000 NA
ATOM     15  C   UNL     1       5.702   6.389  16.198  0.00  0.00    +0.000 A 
ATOM     16  C   UNL     1       5.994   5.094  16.575  0.00  0.00    +0.000 A 
ATOM     17  S   UNL     1       7.268   5.119  17.727  0.00  0.00    +0.000 S 
ENDBRANCH  11  16
ENDBRANCH   9  11
ENDBRANCH   1   9
BRANCH   3  18
ATOM     18  O   UNL     1       1.583   6.155  18.494  0.00  0.00    +0.000 OA
BRANCH  18  19
ATOM     19  C   UNL     1       2.447   7.237  18.105  0.00  0.00    +0.000 C 
BRANCH  19  20
ATOM     20  C   UNL     1       1.927   8.575  18.541  0.00  0.00    +0.000 C 
ATOM     21  C   UNL     1       2.454   9.853  17.969  0.00  0.00    +0.000 C 
ATOM     22  C   UNL     1       1.021   9.444  17.677  0.00  0.00    +0.000 C 
BRANCH  22  23
ATOM     23  C   UNL     1      -0.122  10.194  18.366  0.00  0.00    +0.000 A 
ATOM     24  N   UNL     1      -0.025  10.757  19.576  0.00  0.00    +0.000 NA
ATOM     25  N   UNL     1      -1.253  11.275  19.782  0.00  0.00    +0.000 N 
ATOM     26  C   UNL     1      -1.527  12.017  20.990  0.00  0.00    +0.000 C 
ATOM     27  C   UNL     1      -2.144  11.029  18.766  0.00  0.00    +0.000 A 
ATOM     28  C   UNL     1      -3.503  11.341  18.606  0.00  0.00    +0.000 A 
ATOM     29  C   UNL     1      -4.120  10.938  17.417  0.00  0.00    +0.000 A 
ATOM     30  C   UNL     1      -3.406  10.266  16.427  0.00  0.00    +0.000 A 
ATOM     31  C   UNL     1      -2.051   9.963  16.603  0.00  0.00    +0.000 A 
ATOM     32  C   UNL     1      -1.413  10.343  17.799  0.00  0.00    +0.000 A 
ENDBRANCH  22  23
ENDBRANCH  19  20
ENDBRANCH  18  19
ENDBRANCH   3  18
TORSDOF 7
ENDMDL
MODEL 7
REMARK VINA RESULT:      -8.2      3.352      3.859
REMARK  Name = 
REMARK  10 active torsions:
REMARK  status: ('A' for Active; 'I' for Inactive)
REMARK    1  A    between atoms: C_1  and  C_2
REMARK    2  A    between atoms: C_5  and  C_6
REMARK    3  A    between atoms: C_6  and  N_7
REMARK    4  A    between atoms: N_7  and  C_8
REMARK    5  A    between atoms: C_10  and  O_11
REMARK    6  A    between atoms: O_11  and  C_12
REMARK    7  A    between atoms: C_12  and  C_13
REMARK    8  A    between atoms: C_15  and  C_16
REMARK    9  A    between atoms: N_18  and  C_19
REMARK   10  A    between atoms: N_27  and  C_28
REMARK                            x       y       z     vdW  Elec       q    Type
REMARK                         _______ _______ _______ _____ _____    ______ ____
ROOT
ATOM      1  C   UNL     1       3.848   3.975  19.408  0.00  0.00    +0.000 A 
ATOM      2  C   UNL     1       3.365   5.067  20.010  0.00  0.00    +0.000 A 
ATOM      3  C   UNL     1       1.929   5.099  20.284  0.00  0.00    +0.000 A 
ATOM      4  N   UNL     1       1.063   4.193  19.967  0.00  0.00    +0.000 NA
ATOM      5  N   UNL     1       1.546   3.091  19.291  0.00  0.00    +0.000 N 
ATOM      6  C   UNL     1       0.585   2.073  18.915  0.00  0.00    +0.000 C 
ATOM      7  C   UNL     1       2.887   2.888  18.984  0.00  0.00    +0.000 A 
ATOM      8  O   UNL     1       3.330   1.896  18.406  0.00  0.00    +0.000 OA
ENDROOT
BRANCH   1   9
ATOM      9  N   UNL     1       5.205   3.788  19.097  0.00  0.00    +0.000 N 
ATOM     10  H   UNL     1       5.739   4.254  19.843  0.00  0.00    +0.000 HD
BRANCH   9  11
ATOM     11  C   UNL     1       5.741   4.336  17.839  0.00  0.00    +0.000 C 
BRANCH  11  16
ATOM     12  C   UNL     1       8.110   9.099  17.622  0.00  0.00    +0.000 C 
ATOM     13  C   UNL     1       7.695   7.706  17.946  0.00  0.00    +0.000 A 
ATOM     14  N   UNL     1       8.286   6.951  18.845  0.00  0.00    +0.000 NA
ATOM     15  C   UNL     1       7.660   5.722  18.901  0.00  0.00    +0.000 A 
ATOM     16  C   UNL     1       6.595   5.545  18.041  0.00  0.00    +0.000 A 
ATOM     17  S   UNL     1       6.369   6.980  17.125  0.00  0.00    +0.000 S 
ENDBRANCH  11  16
ENDBRANCH   9  11
ENDBRANCH   1   9
BRANCH   3  18
ATOM     18  O   UNL     1       1.624   6.239  20.960  0.00  0.00    +0.000 OA
BRANCH  18  19
ATOM     19  C   UNL     1       1.957   7.464  20.284  0.00  0.00    +0.000 C 
BRANCH  19  20
ATOM     20  C   UNL     1       0.955   8.552  20.537  0.00  0.00    +0.000 C 
ATOM     21  C   UNL     1      -0.136   8.402  21.549  0.00  0.00    +0.000 C 
ATOM     22  C   UNL     1       0.963   9.422  21.789  0.00  0.00    +0.000 C 
BRANCH  22  23
ATOM     23  C   UNL     1       0.644  10.910  21.630  0.00  0.00    +0.000 A 
ATOM     24  N   UNL     1       1.415  11.773  20.959  0.00  0.00    +0.000 NA
ATOM     25  N   UNL     1       0.768  12.948  21.097  0.00  0.00    +0.000 N 
ATOM     26  C   UNL     1       1.285  14.133  20.455  0.00  0.00    +0.000 C 
ATOM     27  C   UNL     1      -0.368  12.877  21.866  0.00  0.00    +0.000 A 
ATOM     28  C   UNL     1      -1.285  13.852  22.288  0.00  0.00    +0.000 A 
ATOM     29  C   UNL     1      -2.359  13.427  23.077  0.00  0.00    +0.000 A 
ATOM     30  C   UNL     1      -2.517  12.084  23.415  0.00  0.00    +0.000 A 
ATOM     31  C   UNL     1      -1.592  11.125  22.986  0.00  0.00    +0.000 A 
ATOM     32  C   UNL     1      -0.493  11.532  22.206  0.00  0.00    +0.000 A 
ENDBRANCH  22  23
ENDBRANCH  19  20
ENDBRANCH  18  19
ENDBRANCH   3  18
TORSDOF 7
ENDMDL
MODEL 8
REMARK VINA RESULT:      -8.2      2.207      3.318
REMARK  Name = 
REMARK  10 active torsions:
REMARK  status: ('A' for Active; 'I' for Inactive)
REMARK    1  A    between atoms: C_1  and  C_2
REMARK    2  A    between atoms: C_5  and  C_6
REMARK    3  A    between atoms: C_6  and  N_7
REMARK    4  A    between atoms: N_7  and  C_8
REMARK    5  A    between atoms: C_10  and  O_11
REMARK    6  A    between atoms: O_11  and  C_12
REMARK    7  A    between atoms: C_12  and  C_13
REMARK    8  A    between atoms: C_15  and  C_16
REMARK    9  A    between atoms: N_18  and  C_19
REMARK   10  A    between atoms: N_27  and  C_28
REMARK                            x       y       z     vdW  Elec       q    Type
REMARK                         _______ _______ _______ _____ _____    ______ ____
ROOT
ATOM      1  C   UNL     1       4.315   4.404  19.343  0.00  0.00    +0.000 A 
ATOM      2  C   UNL     1       3.967   5.695  19.318  0.00  0.00    +0.000 A 
ATOM      3  C   UNL     1       2.688   6.054  19.927  0.00  0.00    +0.000 A 
ATOM      4  N   UNL     1       1.830   5.243  20.455  0.00  0.00    +0.000 NA
ATOM      5  N   UNL     1       2.156   3.902  20.429  0.00  0.00    +0.000 N 
ATOM      6  C   UNL     1       1.198   2.978  21.003  0.00  0.00    +0.000 C 
ATOM      7  C   UNL     1       3.348   3.397  19.921  0.00  0.00    +0.000 A 
ATOM      8  O   UNL     1       3.658   2.206  19.918  0.00  0.00    +0.000 OA
ENDROOT
BRANCH   1   9
ATOM      9  N   UNL     1       5.520   3.908  18.818  0.00  0.00    +0.000 N 
ATOM     10  H   UNL     1       6.001   3.436  19.596  0.00  0.00    +0.000 HD
BRANCH   9  11
ATOM     11  C   UNL     1       6.510   4.848  18.265  0.00  0.00    +0.000 C 
BRANCH  11  16
ATOM     12  C   UNL     1       6.047   3.705  13.085  0.00  0.00    +0.000 C 
ATOM     13  C   UNL     1       6.416   4.273  14.411  0.00  0.00    +0.000 A 
ATOM     14  N   UNL     1       7.303   5.227  14.583  0.00  0.00    +0.000 NA
ATOM     15  C   UNL     1       7.410   5.524  15.927  0.00  0.00    +0.000 A 
ATOM     16  C   UNL     1       6.605   4.791  16.775  0.00  0.00    +0.000 A 
ATOM     17  S   UNL     1       5.674   3.685  15.847  0.00  0.00    +0.000 S 
ENDBRANCH  11  16
ENDBRANCH   9  11
ENDBRANCH   1   9
BRANCH   3  18
ATOM     18  O   UNL     1       2.529   7.404  19.880  0.00  0.00    +0.000 OA
BRANCH  18  19
ATOM     19  C   UNL     1       1.445   7.924  20.671  0.00  0.00    +0.000 C 
BRANCH  19  20
ATOM     20  C   UNL     1       1.138   9.358  20.355  0.00  0.00    +0.000 C 
ATOM     21  C   UNL     1       0.087   9.741  19.363  0.00  0.00    +0.000 C 
ATOM     22  C   UNL     1      -0.124  10.068  20.830  0.00  0.00    +0.000 C 
BRANCH  22  23
ATOM     23  C   UNL     1       0.003  11.521  21.294  0.00  0.00    +0.000 A 
ATOM     24  N   UNL     1       1.015  12.328  20.957  0.00  0.00    +0.000 NA
ATOM     25  N   UNL     1       0.726  13.480  21.597  0.00  0.00    +0.000 N 
ATOM     26  C   UNL     1       1.586  14.628  21.434  0.00  0.00    +0.000 C 
ATOM     27  C   UNL     1      -0.412  13.427  22.363  0.00  0.00    +0.000 A 
ATOM     28  C   UNL     1      -1.029  14.366  23.206  0.00  0.00    +0.000 A 
ATOM     29  C   UNL     1      -2.210  13.978  23.846  0.00  0.00    +0.000 A 
ATOM     30  C   UNL     1      -2.759  12.713  23.641  0.00  0.00    +0.000 A 
ATOM     31  C   UNL     1      -2.131  11.790  22.798  0.00  0.00    +0.000 A 
ATOM     32  C   UNL     1      -0.931  12.151  22.156  0.00  0.00    +0.000 A 
ENDBRANCH  22  23
ENDBRANCH  19  20
ENDBRANCH  18  19
ENDBRANCH   3  18
TORSDOF 7
ENDMDL
MODEL 9
REMARK VINA RESULT:      -8.2      2.447      3.058
REMARK  Name = 
REMARK  10 active torsions:
REMARK  status: ('A' for Active; 'I' for Inactive)
REMARK    1  A    between atoms: C_1  and  C_2
REMARK    2  A    between atoms: C_5  and  C_6
REMARK    3  A    between atoms: C_6  and  N_7
REMARK    4  A    between atoms: N_7  and  C_8
REMARK    5  A    between atoms: C_10  and  O_11
REMARK    6  A    between atoms: O_11  and  C_12
REMARK    7  A    between atoms: C_12  and  C_13
REMARK    8  A    between atoms: C_15  and  C_16
REMARK    9  A    between atoms: N_18  and  C_19
REMARK   10  A    between atoms: N_27  and  C_28
REMARK                            x       y       z     vdW  Elec       q    Type
REMARK                         _______ _______ _______ _____ _____    ______ ____
ROOT
ATOM      1  C   UNL     1       3.845   4.265  18.909  0.00  0.00    +0.000 A 
ATOM      2  C   UNL     1       3.389   5.522  18.930  0.00  0.00    +0.000 A 
ATOM      3  C   UNL     1       2.404   5.859  19.956  0.00  0.00    +0.000 A 
ATOM      4  N   UNL     1       1.893   5.053  20.828  0.00  0.00    +0.000 NA
ATOM      5  N   UNL     1       2.315   3.740  20.773  0.00  0.00    +0.000 N 
ATOM      6  C   UNL     1       1.739   2.820  21.734  0.00  0.00    +0.000 C 
ATOM      7  C   UNL     1       3.271   3.263  19.883  0.00  0.00    +0.000 A 
ATOM      8  O   UNL     1       3.672   2.100  19.846  0.00  0.00    +0.000 OA
ENDROOT
BRANCH   1   9
ATOM      9  N   UNL     1       4.806   3.796  17.999  0.00  0.00    +0.000 N 
ATOM     10  H   UNL     1       5.639   4.387  18.127  0.00  0.00    +0.000 HD
BRANCH   9  11
ATOM     11  C   UNL     1       4.518   3.842  16.554  0.00  0.00    +0.000 C 
BRANCH  11  16
ATOM     12  C   UNL     1       8.004   5.217  12.773  0.00  0.00    +0.000 C 
ATOM     13  C   UNL     1       7.244   5.041  14.041  0.00  0.00    +0.000 A 
ATOM     14  N   UNL     1       7.596   5.573  15.190  0.00  0.00    +0.000 NA
ATOM     15  C   UNL     1       6.682   5.219  16.163  0.00  0.00    +0.000 A 
ATOM     16  C   UNL     1       5.639   4.416  15.750  0.00  0.00    +0.000 A 
ATOM     17  S   UNL     1       5.810   4.092  14.072  0.00  0.00    +0.000 S 
ENDBRANCH  11  16
ENDBRANCH   9  11
ENDBRANCH   1   9
BRANCH   3  18
ATOM     18  O   UNL     1       2.107   7.183  19.879  0.00  0.00    +0.000 OA
BRANCH  18  19
ATOM     19  C   UNL     1       1.828   7.826  21.136  0.00  0.00    +0.000 C 
BRANCH  19  20
ATOM     20  C   UNL     1       0.613   8.705  21.076  0.00  0.00    +0.000 C 
ATOM     21  C   UNL     1      -0.430   8.684  22.147  0.00  0.00    +0.000 C 
ATOM     22  C   UNL     1       0.421   9.928  21.964  0.00  0.00    +0.000 C 
BRANCH  22  23
ATOM     23  C   UNL     1      -0.210  11.175  21.339  0.00  0.00    +0.000 A 
ATOM     24  N   UNL     1       0.230  11.752  20.215  0.00  0.00    +0.000 NA
ATOM     25  N   UNL     1      -0.595  12.807  20.058  0.00  0.00    +0.000 N 
ATOM     26  C   UNL     1      -0.458  13.663  18.904  0.00  0.00    +0.000 C 
ATOM     27  C   UNL     1      -1.521  12.950  21.063  0.00  0.00    +0.000 A 
ATOM     28  C   UNL     1      -2.511  13.916  21.305  0.00  0.00    +0.000 A 
ATOM     29  C   UNL     1      -3.304  13.753  22.446  0.00  0.00    +0.000 A 
ATOM     30  C   UNL     1      -3.124  12.665  23.298  0.00  0.00    +0.000 A 
ATOM     31  C   UNL     1      -2.133  11.712  23.042  0.00  0.00    +0.000 A 
ATOM     32  C   UNL     1      -1.310  11.864  21.909  0.00  0.00    +0.000 A 
ENDBRANCH  22  23
ENDBRANCH  19  20
ENDBRANCH  18  19
ENDBRANCH   3  18
TORSDOF 7
ENDMDL
