MODEL 1
REMARK VINA RESULT:      -8.7      0.000      0.000
REMARK  Name = 
REMARK  7 active torsions:
REMARK  status: ('A' for Active; 'I' for Inactive)
REMARK    1  A    between atoms: C_1  and  N_2
REMARK    2  A    between atoms: N_2  and  C_3
REMARK    3  A    between atoms: N_2  and  C_4
REMARK    4  A    between atoms: C_7  and  C_8
REMARK    5  A    between atoms: C_9  and  C_10
REMARK    6  A    between atoms: N_13  and  C_14
REMARK    7  A    between atoms: C_14  and  C_15
REMARK                            x       y       z     vdW  Elec       q    Type
REMARK                         _______ _______ _______ _____ _____    ______ ____
ROOT
ATOM      1  C   UNL     1       7.138   7.319  17.592  0.00  0.00    +0.000 A 
ATOM      2  C   UNL     1       6.034   7.160  16.756  0.00  0.00    +0.000 A 
ATOM      3  C   UNL     1       5.435   5.911  16.629  0.00  0.00    +0.000 A 
ATOM      4  N   UNL     1       5.916   4.840  17.300  0.00  0.00    +0.000 N 
ATOM      5  C   UNL     1       7.032   4.955  18.057  0.00  0.00    +0.000 A 
ATOM      6  C   UNL     1       7.659   6.187  18.215  0.00  0.00    +0.000 A 
ENDROOT
BRANCH   1   8
ATOM      7  C   UNL     1       8.685   8.868  18.774  0.00  0.00    +0.000 C 
ATOM      8  C   UNL     1       7.790   8.618  17.803  0.00  0.00    +0.000 C 
BRANCH   7  12
ATOM      9  C   UNL     1      10.561  12.738  19.322  0.00  0.00    +0.000 A 
ATOM     10  C   UNL     1      10.265  12.210  18.055  0.00  0.00    +0.000 A 
ATOM     11  C   UNL     1       9.657  10.957  17.888  0.00  0.00    +0.000 A 
ATOM     12  C   UNL     1       9.317  10.178  18.994  0.00  0.00    +0.000 A 
ATOM     13  C   UNL     1       9.548  10.705  20.264  0.00  0.00    +0.000 A 
ATOM     14  C   UNL     1      10.163  11.957  20.418  0.00  0.00    +0.000 A 
BRANCH   9  16
ATOM     15  C   UNL     1      10.882  14.809  20.647  0.00  0.00    +0.000 C 
ATOM     16  N   UNL     1      11.184  13.974  19.487  0.00  0.00    +0.000 N 
ATOM     17  C   UNL     1      11.765  14.645  18.326  0.00  0.00    +0.000 C 
ENDBRANCH   9  16
ENDBRANCH   7  12
ENDBRANCH   1   8
BRANCH   4  18
ATOM     18  C   UNL     1       5.151   3.572  17.302  0.00  0.00    +0.000 C 
BRANCH  18  19
ATOM     19  C   UNL     1       3.877   3.653  18.102  0.00  0.00    +0.000 A 
ATOM     20  C   UNL     1       3.920   3.715  19.506  0.00  0.00    +0.000 A 
ATOM     21  C   UNL     1       2.745   3.891  20.242  0.00  0.00    +0.000 A 
ATOM     22  C   UNL     1       1.527   3.997  19.581  0.00  0.00    +0.000 A 
ATOM     23  F   UNL     1       0.408   4.195  20.286  0.00  0.00    +0.000 F 
ATOM     24  C   UNL     1       1.460   3.913  18.197  0.00  0.00    +0.000 A 
ATOM     25  C   UNL     1       2.631   3.738  17.456  0.00  0.00    +0.000 A 
ENDBRANCH  18  19
ENDBRANCH   4  18
TORSDOF 5
ENDMDL
MODEL 2
REMARK VINA RESULT:      -8.7      0.580      1.458
REMARK  Name = 
REMARK  7 active torsions:
REMARK  status: ('A' for Active; 'I' for Inactive)
REMARK    1  A    between atoms: C_1  and  N_2
REMARK    2  A    between atoms: N_2  and  C_3
REMARK    3  A    between atoms: N_2  and  C_4
REMARK    4  A    between atoms: C_7  and  C_8
REMARK    5  A    between atoms: C_9  and  C_10
REMARK    6  A    between atoms: N_13  and  C_14
REMARK    7  A    between atoms: C_14  and  C_15
REMARK                            x       y       z     vdW  Elec       q    Type
REMARK                         _______ _______ _______ _____ _____    ______ ____
ROOT
ATOM      1  C   UNL     1       7.467   7.700  17.849  0.00  0.00    +0.000 A 
ATOM      2  C   UNL     1       7.889   6.542  18.498  0.00  0.00    +0.000 A 
ATOM      3  C   UNL     1       7.131   5.380  18.408  0.00  0.00    +0.000 A 
ATOM      4  N   UNL     1       5.977   5.359  17.703  0.00  0.00    +0.000 N 
ATOM      5  C   UNL     1       5.509   6.490  17.128  0.00  0.00    +0.000 A 
ATOM      6  C   UNL     1       6.239   7.673  17.190  0.00  0.00    +0.000 A 
ENDROOT
BRANCH   1   8
ATOM      7  C   UNL     1       8.854   9.440  18.959  0.00  0.00    +0.000 C 
ATOM      8  C   UNL     1       8.243   8.947  17.869  0.00  0.00    +0.000 C 
BRANCH   7  12
ATOM      9  C   UNL     1      11.063  13.169  19.113  0.00  0.00    +0.000 A 
ATOM     10  C   UNL     1      10.524  12.557  20.257  0.00  0.00    +0.000 A 
ATOM     11  C   UNL     1       9.812  11.350  20.196  0.00  0.00    +0.000 A 
ATOM     12  C   UNL     1       9.611  10.702  18.978  0.00  0.00    +0.000 A 
ATOM     13  C   UNL     1      10.186  11.259  17.836  0.00  0.00    +0.000 A 
ATOM     14  C   UNL     1      10.891  12.470  17.908  0.00  0.00    +0.000 A 
BRANCH   9  16
ATOM     15  C   UNL     1      11.530  15.311  20.272  0.00  0.00    +0.000 C 
ATOM     16  N   UNL     1      11.753  14.378  19.170  0.00  0.00    +0.000 N 
ATOM     17  C   UNL     1      12.332  14.931  17.947  0.00  0.00    +0.000 C 
ENDBRANCH   9  16
ENDBRANCH   7  12
ENDBRANCH   1   8
BRANCH   4  18
ATOM     18  C   UNL     1       5.290   4.069  17.460  0.00  0.00    +0.000 C 
BRANCH  18  19
ATOM     19  C   UNL     1       3.971   3.960  18.181  0.00  0.00    +0.000 A 
ATOM     20  C   UNL     1       3.931   3.839  19.581  0.00  0.00    +0.000 A 
ATOM     21  C   UNL     1       2.708   3.839  20.256  0.00  0.00    +0.000 A 
ATOM     22  C   UNL     1       1.524   3.948  19.537  0.00  0.00    +0.000 A 
ATOM     23  F   UNL     1       0.356   3.976  20.189  0.00  0.00    +0.000 F 
ATOM     24  C   UNL     1       1.540   4.042  18.152  0.00  0.00    +0.000 A 
ATOM     25  C   UNL     1       2.759   4.044  17.471  0.00  0.00    +0.000 A 
ENDBRANCH  18  19
ENDBRANCH   4  18
TORSDOF 5
ENDMDL
MODEL 3
REMARK VINA RESULT:      -8.5      0.822      1.248
REMARK  Name = 
REMARK  7 active torsions:
REMARK  status: ('A' for Active; 'I' for Inactive)
REMARK    1  A    between atoms: C_1  and  N_2
REMARK    2  A    between atoms: N_2  and  C_3
REMARK    3  A    between atoms: N_2  and  C_4
REMARK    4  A    between atoms: C_7  and  C_8
REMARK    5  A    between atoms: C_9  and  C_10
REMARK    6  A    between atoms: N_13  and  C_14
REMARK    7  A    between atoms: C_14  and  C_15
REMARK                            x       y       z     vdW  Elec       q    Type
REMARK                         _______ _______ _______ _____ _____    ______ ____
ROOT
ATOM      1  C   UNL     1       7.310   7.663  17.650  0.00  0.00    +0.000 A 
ATOM      2  C   UNL     1       6.241   7.355  16.811  0.00  0.00    +0.000 A 
ATOM      3  C   UNL     1       5.675   6.085  16.847  0.00  0.00    +0.000 A 
ATOM      4  N   UNL     1       6.154   5.136  17.682  0.00  0.00    +0.000 N 
ATOM      5  C   UNL     1       7.239   5.390  18.450  0.00  0.00    +0.000 A 
ATOM      6  C   UNL     1       7.833   6.648  18.448  0.00  0.00    +0.000 A 
ENDROOT
BRANCH   1   8
ATOM      7  C   UNL     1       8.773   9.410  18.648  0.00  0.00    +0.000 C 
ATOM      8  C   UNL     1       7.925   8.997  17.691  0.00  0.00    +0.000 C 
BRANCH   7  12
ATOM      9  C   UNL     1      10.466  13.402  18.710  0.00  0.00    +0.000 A 
ATOM     10  C   UNL     1       9.375  13.052  17.899  0.00  0.00    +0.000 A 
ATOM     11  C   UNL     1       8.834  11.758  17.886  0.00  0.00    +0.000 A 
ATOM     12  C   UNL     1       9.368  10.755  18.695  0.00  0.00    +0.000 A 
ATOM     13  C   UNL     1      10.415  11.092  19.553  0.00  0.00    +0.000 A 
ATOM     14  C   UNL     1      10.951  12.389  19.551  0.00  0.00    +0.000 A 
BRANCH   9  16
ATOM     15  C   UNL     1      10.164  15.859  18.857  0.00  0.00    +0.000 C 
ATOM     16  N   UNL     1      11.017  14.682  18.708  0.00  0.00    +0.000 N 
ATOM     17  C   UNL     1      12.332  14.895  18.108  0.00  0.00    +0.000 C 
ENDBRANCH   9  16
ENDBRANCH   7  12
ENDBRANCH   1   8
BRANCH   4  18
ATOM     18  C   UNL     1       5.418   3.861  17.844  0.00  0.00    +0.000 C 
BRANCH  18  19
ATOM     19  C   UNL     1       4.050   4.043  18.448  0.00  0.00    +0.000 A 
ATOM     20  C   UNL     1       2.904   3.589  17.772  0.00  0.00    +0.000 A 
ATOM     21  C   UNL     1       1.648   3.668  18.377  0.00  0.00    +0.000 A 
ATOM     22  C   UNL     1       1.530   4.209  19.651  0.00  0.00    +0.000 A 
ATOM     23  F   UNL     1       0.329   4.256  20.240  0.00  0.00    +0.000 F 
ATOM     24  C   UNL     1       2.644   4.687  20.327  0.00  0.00    +0.000 A 
ATOM     25  C   UNL     1       3.903   4.609  19.728  0.00  0.00    +0.000 A 
ENDBRANCH  18  19
ENDBRANCH   4  18
TORSDOF 5
ENDMDL
MODEL 4
REMARK VINA RESULT:      -8.5      0.955      1.619
REMARK  Name = 
REMARK  7 active torsions:
REMARK  status: ('A' for Active; 'I' for Inactive)
REMARK    1  A    between atoms: C_1  and  N_2
REMARK    2  A    between atoms: N_2  and  C_3
REMARK    3  A    between atoms: N_2  and  C_4
REMARK    4  A    between atoms: C_7  and  C_8
REMARK    5  A    between atoms: C_9  and  C_10
REMARK    6  A    between atoms: N_13  and  C_14
REMARK    7  A    between atoms: C_14  and  C_15
REMARK                            x       y       z     vdW  Elec       q    Type
REMARK                         _______ _______ _______ _____ _____    ______ ____
ROOT
ATOM      1  C   UNL     1       7.381   6.947  17.801  0.00  0.00    +0.000 A 
ATOM      2  C   UNL     1       7.320   5.789  18.575  0.00  0.00    +0.000 A 
ATOM      3  C   UNL     1       6.494   4.739  18.188  0.00  0.00    +0.000 A 
ATOM      4  N   UNL     1       5.739   4.827  17.070  0.00  0.00    +0.000 N 
ATOM      5  C   UNL     1       5.726   5.970  16.345  0.00  0.00    +0.000 A 
ATOM      6  C   UNL     1       6.541   7.043  16.695  0.00  0.00    +0.000 A 
ENDROOT
BRANCH   1   8
ATOM      7  C   UNL     1       7.877   9.360  18.140  0.00  0.00    +0.000 C 
ATOM      8  C   UNL     1       8.264   8.074  18.132  0.00  0.00    +0.000 C 
BRANCH   7  12
ATOM      9  C   UNL     1      10.536  12.635  19.143  0.00  0.00    +0.000 A 
ATOM     10  C   UNL     1      10.430  11.476  19.928  0.00  0.00    +0.000 A 
ATOM     11  C   UNL     1       9.567  10.421  19.594  0.00  0.00    +0.000 A 
ATOM     12  C   UNL     1       8.772  10.487  18.450  0.00  0.00    +0.000 A 
ATOM     13  C   UNL     1       8.902  11.602  17.623  0.00  0.00    +0.000 A 
ATOM     14  C   UNL     1       9.764  12.653  17.972  0.00  0.00    +0.000 A 
BRANCH   9  16
ATOM     15  C   UNL     1      11.039  14.586  20.589  0.00  0.00    +0.000 C 
ATOM     16  N   UNL     1      11.379  13.692  19.485  0.00  0.00    +0.000 N 
ATOM     17  C   UNL     1      12.332  14.197  18.499  0.00  0.00    +0.000 C 
ENDBRANCH   9  16
ENDBRANCH   7  12
ENDBRANCH   1   8
BRANCH   4  18
ATOM     18  C   UNL     1       5.021   3.631  16.573  0.00  0.00    +0.000 C 
BRANCH  18  19
ATOM     19  C   UNL     1       3.740   3.361  17.319  0.00  0.00    +0.000 A 
ATOM     20  C   UNL     1       3.508   2.106  17.909  0.00  0.00    +0.000 A 
ATOM     21  C   UNL     1       2.366   1.890  18.684  0.00  0.00    +0.000 A 
ATOM     22  C   UNL     1       1.450   2.919  18.863  0.00  0.00    +0.000 A 
ATOM     23  F   UNL     1       0.372   2.717  19.630  0.00  0.00    +0.000 F 
ATOM     24  C   UNL     1       1.646   4.157  18.269  0.00  0.00    +0.000 A 
ATOM     25  C   UNL     1       2.787   4.381  17.494  0.00  0.00    +0.000 A 
ENDBRANCH  18  19
ENDBRANCH   4  18
TORSDOF 5
ENDMDL
MODEL 5
REMARK VINA RESULT:      -8.5      0.589      1.070
REMARK  Name = 
REMARK  7 active torsions:
REMARK  status: ('A' for Active; 'I' for Inactive)
REMARK    1  A    between atoms: C_1  and  N_2
REMARK    2  A    between atoms: N_2  and  C_3
REMARK    3  A    between atoms: N_2  and  C_4
REMARK    4  A    between atoms: C_7  and  C_8
REMARK    5  A    between atoms: C_9  and  C_10
REMARK    6  A    between atoms: N_13  and  C_14
REMARK    7  A    between atoms: C_14  and  C_15
REMARK                            x       y       z     vdW  Elec       q    Type
REMARK                         _______ _______ _______ _____ _____    ______ ____
ROOT
ATOM      1  C   UNL     1       7.055   7.247  17.492  0.00  0.00    +0.000 A 
ATOM      2  C   UNL     1       6.043   6.975  16.572  0.00  0.00    +0.000 A 
ATOM      3  C   UNL     1       5.469   5.710  16.526  0.00  0.00    +0.000 A 
ATOM      4  N   UNL     1       5.885   4.730  17.359  0.00  0.00    +0.000 N 
ATOM      5  C   UNL     1       6.917   4.948  18.207  0.00  0.00    +0.000 A 
ATOM      6  C   UNL     1       7.517   6.201  18.288  0.00  0.00    +0.000 A 
ENDROOT
BRANCH   1   8
ATOM      7  C   UNL     1       8.520   8.922  18.603  0.00  0.00    +0.000 C 
ATOM      8  C   UNL     1       7.673   8.573  17.620  0.00  0.00    +0.000 C 
BRANCH   7  12
ATOM      9  C   UNL     1      10.319  12.837  19.091  0.00  0.00    +0.000 A 
ATOM     10  C   UNL     1      10.541  11.782  19.990  0.00  0.00    +0.000 A 
ATOM     11  C   UNL     1       9.954  10.518  19.823  0.00  0.00    +0.000 A 
ATOM     12  C   UNL     1       9.118  10.260  18.738  0.00  0.00    +0.000 A 
ATOM     13  C   UNL     1       8.928  11.274  17.799  0.00  0.00    +0.000 A 
ATOM     14  C   UNL     1       9.515  12.535  17.981  0.00  0.00    +0.000 A 
BRANCH   9  16
ATOM     15  C   UNL     1      10.205  15.294  18.776  0.00  0.00    +0.000 C 
ATOM     16  N   UNL     1      10.885  14.099  19.268  0.00  0.00    +0.000 N 
ATOM     17  C   UNL     1      12.322  14.211  19.511  0.00  0.00    +0.000 C 
ENDBRANCH   9  16
ENDBRANCH   7  12
ENDBRANCH   1   8
BRANCH   4  18
ATOM     18  C   UNL     1       5.132   3.455  17.427  0.00  0.00    +0.000 C 
BRANCH  18  19
ATOM     19  C   UNL     1       3.860   3.565  18.226  0.00  0.00    +0.000 A 
ATOM     20  C   UNL     1       3.890   3.485  19.630  0.00  0.00    +0.000 A 
ATOM     21  C   UNL     1       2.726   3.686  20.375  0.00  0.00    +0.000 A 
ATOM     22  C   UNL     1       1.529   3.958  19.723  0.00  0.00    +0.000 A 
ATOM     23  F   UNL     1       0.422   4.179  20.441  0.00  0.00    +0.000 F 
ATOM     24  C   UNL     1       1.472   4.017  18.338  0.00  0.00    +0.000 A 
ATOM     25  C   UNL     1       2.633   3.817  17.587  0.00  0.00    +0.000 A 
ENDBRANCH  18  19
ENDBRANCH   4  18
TORSDOF 5
ENDMDL
MODEL 6
REMARK VINA RESULT:      -8.3      0.862      1.453
REMARK  Name = 
REMARK  7 active torsions:
REMARK  status: ('A' for Active; 'I' for Inactive)
REMARK    1  A    between atoms: C_1  and  N_2
REMARK    2  A    between atoms: N_2  and  C_3
REMARK    3  A    between atoms: N_2  and  C_4
REMARK    4  A    between atoms: C_7  and  C_8
REMARK    5  A    between atoms: C_9  and  C_10
REMARK    6  A    between atoms: N_13  and  C_14
REMARK    7  A    between atoms: C_14  and  C_15
REMARK                            x       y       z     vdW  Elec       q    Type
REMARK                         _______ _______ _______ _____ _____    ______ ____
ROOT
ATOM      1  C   UNL     1       7.203   7.221  17.567  0.00  0.00    +0.000 A 
ATOM      2  C   UNL     1       7.673   6.025  18.106  0.00  0.00    +0.000 A 
ATOM      3  C   UNL     1       6.894   4.875  18.028  0.00  0.00    +0.000 A 
ATOM      4  N   UNL     1       5.676   4.902  17.442  0.00  0.00    +0.000 N 
ATOM      5  C   UNL     1       5.168   6.068  16.980  0.00  0.00    +0.000 A 
ATOM      6  C   UNL     1       5.916   7.240  17.034  0.00  0.00    +0.000 A 
ENDROOT
BRANCH   1   8
ATOM      7  C   UNL     1       8.389   9.093  18.695  0.00  0.00    +0.000 C 
ATOM      8  C   UNL     1       7.993   8.459  17.578  0.00  0.00    +0.000 C 
BRANCH   7  12
ATOM      9  C   UNL     1      10.612  12.816  18.628  0.00  0.00    +0.000 A 
ATOM     10  C   UNL     1       9.496  12.583  17.809  0.00  0.00    +0.000 A 
ATOM     11  C   UNL     1       8.783  11.375  17.839  0.00  0.00    +0.000 A 
ATOM     12  C   UNL     1       9.162  10.346  18.699  0.00  0.00    +0.000 A 
ATOM     13  C   UNL     1      10.232  10.574  19.564  0.00  0.00    +0.000 A 
ATOM     14  C   UNL     1      10.941  11.784  19.520  0.00  0.00    +0.000 A 
BRANCH   9  16
ATOM     15  C   UNL     1      12.332  14.235  17.543  0.00  0.00    +0.000 C 
ATOM     16  N   UNL     1      11.333  14.008  18.585  0.00  0.00    +0.000 N 
ATOM     17  C   UNL     1      11.446  14.822  19.793  0.00  0.00    +0.000 C 
ENDBRANCH   9  16
ENDBRANCH   7  12
ENDBRANCH   1   8
BRANCH   4  18
ATOM     18  C   UNL     1       4.951   3.634  17.198  0.00  0.00    +0.000 C 
BRANCH  18  19
ATOM     19  C   UNL     1       3.883   3.359  18.225  0.00  0.00    +0.000 A 
ATOM     20  C   UNL     1       3.796   4.140  19.391  0.00  0.00    +0.000 A 
ATOM     21  C   UNL     1       2.747   3.950  20.293  0.00  0.00    +0.000 A 
ATOM     22  C   UNL     1       1.789   2.976  20.040  0.00  0.00    +0.000 A 
ATOM     23  F   UNL     1       0.769   2.816  20.892  0.00  0.00    +0.000 F 
ATOM     24  C   UNL     1       1.870   2.176  18.909  0.00  0.00    +0.000 A 
ATOM     25  C   UNL     1       2.916   2.362  18.002  0.00  0.00    +0.000 A 
ENDBRANCH  18  19
ENDBRANCH   4  18
TORSDOF 5
ENDMDL
MODEL 7
REMARK VINA RESULT:      -8.2      0.904      1.650
REMARK  Name = 
REMARK  7 active torsions:
REMARK  status: ('A' for Active; 'I' for Inactive)
REMARK    1  A    between atoms: C_1  and  N_2
REMARK    2  A    between atoms: N_2  and  C_3
REMARK    3  A    between atoms: N_2  and  C_4
REMARK    4  A    between atoms: C_7  and  C_8
REMARK    5  A    between atoms: C_9  and  C_10
REMARK    6  A    between atoms: N_13  and  C_14
REMARK    7  A    between atoms: C_14  and  C_15
REMARK                            x       y       z     vdW  Elec       q    Type
REMARK                         _______ _______ _______ _____ _____    ______ ____
ROOT
ATOM      1  C   UNL     1       7.502   7.891  17.835  0.00  0.00    +0.000 A 
ATOM      2  C   UNL     1       7.979   6.812  18.577  0.00  0.00    +0.000 A 
ATOM      3  C   UNL     1       7.307   5.595  18.542  0.00  0.00    +0.000 A 
ATOM      4  N   UNL     1       6.186   5.443  17.802  0.00  0.00    +0.000 N 
ATOM      5  C   UNL     1       5.663   6.497  17.134  0.00  0.00    +0.000 A 
ATOM      6  C   UNL     1       6.306   7.731  17.139  0.00  0.00    +0.000 A 
ENDROOT
BRANCH   1   8
ATOM      7  C   UNL     1       8.916   9.691  18.807  0.00  0.00    +0.000 C 
ATOM      8  C   UNL     1       8.188   9.189  17.796  0.00  0.00    +0.000 C 
BRANCH   7  12
ATOM      9  C   UNL     1      10.938  13.523  18.621  0.00  0.00    +0.000 A 
ATOM     10  C   UNL     1      11.174  12.493  17.695  0.00  0.00    +0.000 A 
ATOM     11  C   UNL     1      10.514  11.258  17.763  0.00  0.00    +0.000 A 
ATOM     12  C   UNL     1       9.582  11.003  18.769  0.00  0.00    +0.000 A 
ATOM     13  C   UNL     1       9.288  12.029  19.666  0.00  0.00    +0.000 A 
ATOM     14  C   UNL     1       9.960  13.259  19.591  0.00  0.00    +0.000 A 
BRANCH   9  16
ATOM     15  C   UNL     1      12.185  15.331  19.773  0.00  0.00    +0.000 C 
ATOM     16  N   UNL     1      11.609  14.743  18.566  0.00  0.00    +0.000 N 
ATOM     17  C   UNL     1      11.354  15.651  17.449  0.00  0.00    +0.000 C 
ENDBRANCH   9  16
ENDBRANCH   7  12
ENDBRANCH   1   8
BRANCH   4  18
ATOM     18  C   UNL     1       5.600   4.094  17.626  0.00  0.00    +0.000 C 
BRANCH  18  19
ATOM     19  C   UNL     1       4.220   3.970  18.216  0.00  0.00    +0.000 A 
ATOM     20  C   UNL     1       3.088   3.922  17.382  0.00  0.00    +0.000 A 
ATOM     21  C   UNL     1       1.819   3.706  17.924  0.00  0.00    +0.000 A 
ATOM     22  C   UNL     1       1.673   3.549  19.296  0.00  0.00    +0.000 A 
ATOM     23  F   UNL     1       0.460   3.313  19.809  0.00  0.00    +0.000 F 
ATOM     24  C   UNL     1       2.773   3.618  20.140  0.00  0.00    +0.000 A 
ATOM     25  C   UNL     1       4.045   3.832  19.605  0.00  0.00    +0.000 A 
ENDBRANCH  18  19
ENDBRANCH   4  18
TORSDOF 5
ENDMDL
MODEL 8
REMARK VINA RESULT:      -8.2      1.030      1.792
REMARK  Name = 
REMARK  7 active torsions:
REMARK  status: ('A' for Active; 'I' for Inactive)
REMARK    1  A    between atoms: C_1  and  N_2
REMARK    2  A    between atoms: N_2  and  C_3
REMARK    3  A    between atoms: N_2  and  C_4
REMARK    4  A    between atoms: C_7  and  C_8
REMARK    5  A    between atoms: C_9  and  C_10
REMARK    6  A    between atoms: N_13  and  C_14
REMARK    7  A    between atoms: C_14  and  C_15
REMARK                            x       y       z     vdW  Elec       q    Type
REMARK                         _______ _______ _______ _____ _____    ______ ____
ROOT
ATOM      1  C   UNL     1       7.416   7.113  18.083  0.00  0.00    +0.000 A 
ATOM      2  C   UNL     1       7.500   5.856  18.679  0.00  0.00    +0.000 A 
ATOM      3  C   UNL     1       6.708   4.813  18.213  0.00  0.00    +0.000 A 
ATOM      4  N   UNL     1       5.846   5.002  17.189  0.00  0.00    +0.000 N 
ATOM      5  C   UNL     1       5.693   6.232  16.645  0.00  0.00    +0.000 A 
ATOM      6  C   UNL     1       6.469   7.302  17.079  0.00  0.00    +0.000 A 
ENDROOT
BRANCH   1   8
ATOM      7  C   UNL     1       8.236   9.456  17.919  0.00  0.00    +0.000 C 
ATOM      8  C   UNL     1       8.255   8.245  18.500  0.00  0.00    +0.000 C 
BRANCH   7  12
ATOM      9  C   UNL     1      10.725  12.762  19.213  0.00  0.00    +0.000 A 
ATOM     10  C   UNL     1       9.878  12.061  20.087  0.00  0.00    +0.000 A 
ATOM     11  C   UNL     1       9.077  10.992  19.658  0.00  0.00    +0.000 A 
ATOM     12  C   UNL     1       9.095  10.578  18.327  0.00  0.00    +0.000 A 
ATOM     13  C   UNL     1       9.971  11.221  17.452  0.00  0.00    +0.000 A 
ATOM     14  C   UNL     1      10.762  12.293  17.891  0.00  0.00    +0.000 A 
BRANCH   9  16
ATOM     15  C   UNL     1      11.198  14.537  20.879  0.00  0.00    +0.000 C 
ATOM     16  N   UNL     1      11.506  13.837  19.634  0.00  0.00    +0.000 N 
ATOM     17  C   UNL     1      12.317  14.560  18.657  0.00  0.00    +0.000 C 
ENDBRANCH   9  16
ENDBRANCH   7  12
ENDBRANCH   1   8
BRANCH   4  18
ATOM     18  C   UNL     1       5.158   3.838  16.584  0.00  0.00    +0.000 C 
BRANCH  18  19
ATOM     19  C   UNL     1       3.884   3.469  17.300  0.00  0.00    +0.000 A 
ATOM     20  C   UNL     1       2.827   4.391  17.396  0.00  0.00    +0.000 A 
ATOM     21  C   UNL     1       1.611   4.015  17.971  0.00  0.00    +0.000 A 
ATOM     22  C   UNL     1       1.450   2.725  18.460  0.00  0.00    +0.000 A 
ATOM     23  F   UNL     1       0.274   2.359  18.984  0.00  0.00    +0.000 F 
ATOM     24  C   UNL     1       2.488   1.807  18.398  0.00  0.00    +0.000 A 
ATOM     25  C   UNL     1       3.707   2.176  17.823  0.00  0.00    +0.000 A 
ENDBRANCH  18  19
ENDBRANCH   4  18
TORSDOF 5
ENDMDL
MODEL 9
REMARK VINA RESULT:      -8.2      0.746      1.441
REMARK  Name = 
REMARK  7 active torsions:
REMARK  status: ('A' for Active; 'I' for Inactive)
REMARK    1  A    between atoms: C_1  and  N_2
REMARK    2  A    between atoms: N_2  and  C_3
REMARK    3  A    between atoms: N_2  and  C_4
REMARK    4  A    between atoms: C_7  and  C_8
REMARK    5  A    between atoms: C_9  and  C_10
REMARK    6  A    between atoms: N_13  and  C_14
REMARK    7  A    between atoms: C_14  and  C_15
REMARK                            x       y       z     vdW  Elec       q    Type
REMARK                         _______ _______ _______ _____ _____    ______ ____
ROOT
ATOM      1  C   UNL     1       6.944   7.085  17.384  0.00  0.00    +0.000 A 
ATOM      2  C   UNL     1       6.197   6.798  16.243  0.00  0.00    +0.000 A 
ATOM      3  C   UNL     1       5.550   5.573  16.127  0.00  0.00    +0.000 A 
ATOM      4  N   UNL     1       5.643   4.645  17.107  0.00  0.00    +0.000 N 
ATOM      5  C   UNL     1       6.424   4.872  18.188  0.00  0.00    +0.000 A 
ATOM      6  C   UNL     1       7.084   6.087  18.346  0.00  0.00    +0.000 A 
ENDROOT
BRANCH   1   8
ATOM      7  C   UNL     1       8.413   8.659  18.630  0.00  0.00    +0.000 C 
ATOM      8  C   UNL     1       7.615   8.376  17.586  0.00  0.00    +0.000 C 
BRANCH   7  12
ATOM      9  C   UNL     1      10.319  12.488  19.343  0.00  0.00    +0.000 A 
ATOM     10  C   UNL     1       9.942  11.622  20.382  0.00  0.00    +0.000 A 
ATOM     11  C   UNL     1       9.326  10.385  20.141  0.00  0.00    +0.000 A 
ATOM     12  C   UNL     1       9.064   9.962  18.838  0.00  0.00    +0.000 A 
ATOM     13  C   UNL     1       9.482  10.778  17.787  0.00  0.00    +0.000 A 
ATOM     14  C   UNL     1      10.090  12.016  18.042  0.00  0.00    +0.000 A 
BRANCH   9  16
ATOM     15  C   UNL     1      10.098  14.936  19.667  0.00  0.00    +0.000 C 
ATOM     16  N   UNL     1      10.912  13.726  19.584  0.00  0.00    +0.000 N 
ATOM     17  C   UNL     1      12.333  13.907  19.297  0.00  0.00    +0.000 C 
ENDBRANCH   9  16
ENDBRANCH   7  12
ENDBRANCH   1   8
BRANCH   4  18
ATOM     18  C   UNL     1       4.794   3.432  17.052  0.00  0.00    +0.000 C 
BRANCH  18  19
ATOM     19  C   UNL     1       3.724   3.414  18.112  0.00  0.00    +0.000 A 
ATOM     20  C   UNL     1       2.635   4.301  18.042  0.00  0.00    +0.000 A 
ATOM     21  C   UNL     1       1.594   4.217  18.969  0.00  0.00    +0.000 A 
ATOM     22  C   UNL     1       1.639   3.255  19.971  0.00  0.00    +0.000 A 
ATOM     23  F   UNL     1       0.626   3.158  20.839  0.00  0.00    +0.000 F 
ATOM     24  C   UNL     1       2.716   2.386  20.073  0.00  0.00    +0.000 A 
ATOM     25  C   UNL     1       3.761   2.465  19.149  0.00  0.00    +0.000 A 
ENDBRANCH  18  19
ENDBRANCH   4  18
TORSDOF 5
ENDMDL
