MODEL 1
REMARK VINA RESULT:      -8.0      0.000      0.000
REMARK  Name = 
REMARK  5 active torsions:
REMARK  status: ('A' for Active; 'I' for Inactive)
REMARK    1  A    between atoms: C_1  and  O_2
REMARK    2  A    between atoms: O_2  and  C_3
REMARK    3  A    between atoms: C_7  and  N_8
REMARK    4  A    between atoms: N_8  and  C_9
REMARK    5  A    between atoms: C_16  and  N_17
REMARK                            x       y       z     vdW  Elec       q    Type
REMARK                         _______ _______ _______ _____ _____    ______ ____
ROOT
ATOM      1  C   UNL     1       5.966   4.318  17.649  0.00  0.00    +0.000 A 
ATOM      2  N   UNL     1       6.076   4.261  16.300  0.00  0.00    +0.000 NA
ATOM      3  C   UNL     1       6.782   5.209  15.692  0.00  0.00    +0.000 A 
ATOM      4  N   UNL     1       6.864   5.148  14.318  0.00  0.00    +0.000 N 
ATOM      5  N   UNL     1       7.439   6.190  16.312  0.00  0.00    +0.000 NA
ATOM      6  C   UNL     1       7.354   6.228  17.654  0.00  0.00    +0.000 A 
ATOM      7  N   UNL     1       8.015   7.322  18.238  0.00  0.00    +0.000 N 
ATOM      8  C   UNL     1       6.611   5.311  18.403  0.00  0.00    +0.000 A 
ATOM      9  H   UNL     1       6.669   4.216  13.991  0.00  0.00    +0.000 HD
ATOM     10  H   UNL     1       7.699   5.606  13.983  0.00  0.00    +0.000 HD
ATOM     11  H   UNL     1       8.527   7.814  17.513  0.00  0.00    +0.000 HD
ATOM     12  H   UNL     1       8.594   7.059  19.029  0.00  0.00    +0.000 HD
ENDROOT
BRANCH   1  13
ATOM     13  N   UNL     1       5.183   3.331  18.289  0.00  0.00    +0.000 N 
ATOM     14  H   UNL     1       5.752   2.702  18.847  0.00  0.00    +0.000 HD
BRANCH  13  19
ATOM     15  C   UNL     1       1.885   4.172  19.762  0.00  0.00    +0.000 A 
ATOM     16  C   UNL     1       1.117   3.095  19.317  0.00  0.00    +0.000 A 
ATOM     17  C   UNL     1       1.665   2.138  18.467  0.00  0.00    +0.000 A 
ATOM     18  C   UNL     1       3.000   2.240  18.078  0.00  0.00    +0.000 A 
ATOM     19  C   UNL     1       3.803   3.288  18.540  0.00  0.00    +0.000 A 
ATOM     20  C   UNL     1       3.219   4.272  19.359  0.00  0.00    +0.000 A 
BRANCH  15  22
ATOM     21  C   UNL     1       1.685   6.369  20.671  0.00  0.00    +0.000 C 
ATOM     22  O   UNL     1       1.228   5.025  20.605  0.00  0.00    +0.000 OA
ENDBRANCH  15  22
ENDBRANCH  13  19
ENDBRANCH   1  13
BRANCH   8  23
ATOM     23  N   UNL     1       6.629   5.363  19.789  0.00  0.00    +0.000 NA
ATOM     24  O   UNL     1       7.762   5.297  20.278  0.00  0.00    +0.000 OA
ENDBRANCH   8  23
TORSDOF 4
ENDMDL
MODEL 2
REMARK VINA RESULT:      -7.8      2.094      2.931
REMARK  Name = 
REMARK  5 active torsions:
REMARK  status: ('A' for Active; 'I' for Inactive)
REMARK    1  A    between atoms: C_1  and  O_2
REMARK    2  A    between atoms: O_2  and  C_3
REMARK    3  A    between atoms: C_7  and  N_8
REMARK    4  A    between atoms: N_8  and  C_9
REMARK    5  A    between atoms: C_16  and  N_17
REMARK                            x       y       z     vdW  Elec       q    Type
REMARK                         _______ _______ _______ _____ _____    ______ ____
ROOT
ATOM      1  C   UNL     1       6.141   4.966  17.943  0.00  0.00    +0.000 A 
ATOM      2  N   UNL     1       6.879   4.672  19.039  0.00  0.00    +0.000 NA
ATOM      3  C   UNL     1       7.833   5.527  19.395  0.00  0.00    +0.000 A 
ATOM      4  N   UNL     1       8.589   5.201  20.501  0.00  0.00    +0.000 N 
ATOM      5  N   UNL     1       8.089   6.685  18.786  0.00  0.00    +0.000 NA
ATOM      6  C   UNL     1       7.335   6.990  17.714  0.00  0.00    +0.000 A 
ATOM      7  N   UNL     1       7.700   8.191  17.081  0.00  0.00    +0.000 N 
ATOM      8  C   UNL     1       6.329   6.154  17.220  0.00  0.00    +0.000 A 
ATOM      9  H   UNL     1       8.102   4.541  21.083  0.00  0.00    +0.000 HD
ATOM     10  H   UNL     1       8.973   6.028  20.935  0.00  0.00    +0.000 HD
ATOM     11  H   UNL     1       8.409   8.649  17.643  0.00  0.00    +0.000 HD
ATOM     12  H   UNL     1       6.905   8.788  16.875  0.00  0.00    +0.000 HD
ENDROOT
BRANCH   1  13
ATOM     13  N   UNL     1       5.154   4.037  17.545  0.00  0.00    +0.000 N 
ATOM     14  H   UNL     1       5.561   3.230  17.079  0.00  0.00    +0.000 HD
BRANCH  13  19
ATOM     15  C   UNL     1       2.226   2.841  19.482  0.00  0.00    +0.000 A 
ATOM     16  C   UNL     1       1.178   3.312  18.691  0.00  0.00    +0.000 A 
ATOM     17  C   UNL     1       1.435   4.093  17.567  0.00  0.00    +0.000 A 
ATOM     18  C   UNL     1       2.752   4.382  17.211  0.00  0.00    +0.000 A 
ATOM     19  C   UNL     1       3.822   3.889  17.964  0.00  0.00    +0.000 A 
ATOM     20  C   UNL     1       3.542   3.144  19.124  0.00  0.00    +0.000 A 
BRANCH  15  22
ATOM     21  C   UNL     1       1.727   2.706  21.812  0.00  0.00    +0.000 C 
ATOM     22  O   UNL     1       1.832   2.073  20.543  0.00  0.00    +0.000 OA
ENDBRANCH  15  22
ENDBRANCH  13  19
ENDBRANCH   1  13
BRANCH   8  23
ATOM     23  N   UNL     1       5.538   6.566  16.157  0.00  0.00    +0.000 NA
ATOM     24  O   UNL     1       5.778   5.977  15.098  0.00  0.00    +0.000 OA
ENDBRANCH   8  23
TORSDOF 4
ENDMDL
MODEL 3
REMARK VINA RESULT:      -7.8      1.203      1.221
REMARK  Name = 
REMARK  5 active torsions:
REMARK  status: ('A' for Active; 'I' for Inactive)
REMARK    1  A    between atoms: C_1  and  O_2
REMARK    2  A    between atoms: O_2  and  C_3
REMARK    3  A    between atoms: C_7  and  N_8
REMARK    4  A    between atoms: N_8  and  C_9
REMARK    5  A    between atoms: C_16  and  N_17
REMARK                            x       y       z     vdW  Elec       q    Type
REMARK                         _______ _______ _______ _____ _____    ______ ____
ROOT
ATOM      1  C   UNL     1       6.055   4.507  18.114  0.00  0.00    +0.000 A 
ATOM      2  N   UNL     1       5.856   4.519  16.775  0.00  0.00    +0.000 NA
ATOM      3  C   UNL     1       6.432   5.486  16.068  0.00  0.00    +0.000 A 
ATOM      4  N   UNL     1       6.200   5.496  14.710  0.00  0.00    +0.000 N 
ATOM      5  N   UNL     1       7.239   6.422  16.568  0.00  0.00    +0.000 NA
ATOM      6  C   UNL     1       7.460   6.392  17.895  0.00  0.00    +0.000 A 
ATOM      7  N   UNL     1       8.266   7.443  18.364  0.00  0.00    +0.000 N 
ATOM      8  C   UNL     1       6.880   5.449  18.748  0.00  0.00    +0.000 A 
ATOM      9  H   UNL     1       5.910   4.586  14.392  0.00  0.00    +0.000 HD
ATOM     10  H   UNL     1       6.950   5.957  14.216  0.00  0.00    +0.000 HD
ATOM     11  H   UNL     1       8.614   7.964  17.567  0.00  0.00    +0.000 HD
ATOM     12  H   UNL     1       9.002   7.130  18.990  0.00  0.00    +0.000 HD
ENDROOT
BRANCH   1  13
ATOM     13  N   UNL     1       5.410   3.501  18.868  0.00  0.00    +0.000 N 
ATOM     14  H   UNL     1       6.039   2.737  19.094  0.00  0.00    +0.000 HD
BRANCH  13  19
ATOM     15  C   UNL     1       2.382   4.867  20.518  0.00  0.00    +0.000 A 
ATOM     16  C   UNL     1       1.983   3.771  21.283  0.00  0.00    +0.000 A 
ATOM     17  C   UNL     1       2.664   2.559  21.192  0.00  0.00    +0.000 A 
ATOM     18  C   UNL     1       3.769   2.447  20.351  0.00  0.00    +0.000 A 
ATOM     19  C   UNL     1       4.214   3.542  19.603  0.00  0.00    +0.000 A 
ATOM     20  C   UNL     1       3.485   4.743  19.670  0.00  0.00    +0.000 A 
BRANCH  15  22
ATOM     21  C   UNL     1       2.057   7.187  20.063  0.00  0.00    +0.000 C 
ATOM     22  O   UNL     1       1.638   5.997  20.719  0.00  0.00    +0.000 OA
ENDBRANCH  15  22
ENDBRANCH  13  19
ENDBRANCH   1  13
BRANCH   8  23
ATOM     23  N   UNL     1       7.212   5.428  20.095  0.00  0.00    +0.000 NA
ATOM     24  O   UNL     1       8.394   5.142  20.315  0.00  0.00    +0.000 OA
ENDBRANCH   8  23
TORSDOF 4
ENDMDL
MODEL 4
REMARK VINA RESULT:      -7.8      1.092      1.216
REMARK  Name = 
REMARK  5 active torsions:
REMARK  status: ('A' for Active; 'I' for Inactive)
REMARK    1  A    between atoms: C_1  and  O_2
REMARK    2  A    between atoms: O_2  and  C_3
REMARK    3  A    between atoms: C_7  and  N_8
REMARK    4  A    between atoms: N_8  and  C_9
REMARK    5  A    between atoms: C_16  and  N_17
REMARK                            x       y       z     vdW  Elec       q    Type
REMARK                         _______ _______ _______ _____ _____    ______ ____
ROOT
ATOM      1  C   UNL     1       6.261   4.575  18.063  0.00  0.00    +0.000 A 
ATOM      2  N   UNL     1       6.231   4.586  16.709  0.00  0.00    +0.000 NA
ATOM      3  C   UNL     1       6.876   5.564  16.080  0.00  0.00    +0.000 A 
ATOM      4  N   UNL     1       6.816   5.573  14.703  0.00  0.00    +0.000 N 
ATOM      5  N   UNL     1       7.598   6.513  16.678  0.00  0.00    +0.000 NA
ATOM      6  C   UNL     1       7.651   6.484  18.022  0.00  0.00    +0.000 A 
ATOM      7  N   UNL     1       8.373   7.547  18.589  0.00  0.00    +0.000 N 
ATOM      8  C   UNL     1       6.984   5.529  18.796  0.00  0.00    +0.000 A 
ATOM      9  H   UNL     1       6.584   4.659  14.352  0.00  0.00    +0.000 HD
ATOM     10  H   UNL     1       7.615   6.048  14.308  0.00  0.00    +0.000 HD
ATOM     11  H   UNL     1       8.810   8.075  17.841  0.00  0.00    +0.000 HD
ATOM     12  H   UNL     1       9.030   7.245  19.303  0.00  0.00    +0.000 HD
ENDROOT
BRANCH   1  13
ATOM     13  N   UNL     1       5.543   3.557  18.729  0.00  0.00    +0.000 N 
ATOM     14  H   UNL     1       6.053   3.198  19.531  0.00  0.00    +0.000 HD
BRANCH  13  19
ATOM     15  C   UNL     1       2.033   3.061  19.821  0.00  0.00    +0.000 A 
ATOM     16  C   UNL     1       1.529   2.318  18.753  0.00  0.00    +0.000 A 
ATOM     17  C   UNL     1       2.321   2.053  17.638  0.00  0.00    +0.000 A 
ATOM     18  C   UNL     1       3.638   2.508  17.601  0.00  0.00    +0.000 A 
ATOM     19  C   UNL     1       4.181   3.220  18.675  0.00  0.00    +0.000 A 
ATOM     20  C   UNL     1       3.351   3.522  19.771  0.00  0.00    +0.000 A 
BRANCH  15  22
ATOM     21  C   UNL     1       1.477   2.623  22.100  0.00  0.00    +0.000 C 
ATOM     22  O   UNL     1       1.155   3.231  20.856  0.00  0.00    +0.000 OA
ENDBRANCH  15  22
ENDBRANCH  13  19
ENDBRANCH   1  13
BRANCH   8  23
ATOM     23  N   UNL     1       7.144   5.511  20.174  0.00  0.00    +0.000 NA
ATOM     24  O   UNL     1       8.282   5.199  20.541  0.00  0.00    +0.000 OA
ENDBRANCH   8  23
TORSDOF 4
ENDMDL
MODEL 5
REMARK VINA RESULT:      -7.7      1.690      2.574
REMARK  Name = 
REMARK  5 active torsions:
REMARK  status: ('A' for Active; 'I' for Inactive)
REMARK    1  A    between atoms: C_1  and  O_2
REMARK    2  A    between atoms: O_2  and  C_3
REMARK    3  A    between atoms: C_7  and  N_8
REMARK    4  A    between atoms: N_8  and  C_9
REMARK    5  A    between atoms: C_16  and  N_17
REMARK                            x       y       z     vdW  Elec       q    Type
REMARK                         _______ _______ _______ _____ _____    ______ ____
ROOT
ATOM      1  C   UNL     1       6.074   4.885  17.947  0.00  0.00    +0.000 A 
ATOM      2  N   UNL     1       6.810   4.632  19.055  0.00  0.00    +0.000 NA
ATOM      3  C   UNL     1       7.765   5.498  19.380  0.00  0.00    +0.000 A 
ATOM      4  N   UNL     1       8.519   5.214  20.497  0.00  0.00    +0.000 N 
ATOM      5  N   UNL     1       8.023   6.632  18.727  0.00  0.00    +0.000 NA
ATOM      6  C   UNL     1       7.271   6.897  17.643  0.00  0.00    +0.000 A 
ATOM      7  N   UNL     1       7.638   8.072  16.966  0.00  0.00    +0.000 N 
ATOM      8  C   UNL     1       6.264   6.045  17.180  0.00  0.00    +0.000 A 
ATOM      9  H   UNL     1       8.030   4.577  21.104  0.00  0.00    +0.000 HD
ATOM     10  H   UNL     1       8.904   6.056  20.900  0.00  0.00    +0.000 HD
ATOM     11  H   UNL     1       8.347   8.551  17.511  0.00  0.00    +0.000 HD
ATOM     12  H   UNL     1       6.844   8.662  16.736  0.00  0.00    +0.000 HD
ENDROOT
BRANCH   1  13
ATOM     13  N   UNL     1       5.086   3.942  17.583  0.00  0.00    +0.000 N 
ATOM     14  H   UNL     1       5.487   3.140  17.108  0.00  0.00    +0.000 HD
BRANCH  13  19
ATOM     15  C   UNL     1       2.020   4.447  19.608  0.00  0.00    +0.000 A 
ATOM     16  C   UNL     1       1.264   3.340  19.220  0.00  0.00    +0.000 A 
ATOM     17  C   UNL     1       1.730   2.476  18.232  0.00  0.00    +0.000 A 
ATOM     18  C   UNL     1       2.975   2.701  17.646  0.00  0.00    +0.000 A 
ATOM     19  C   UNL     1       3.770   3.780  18.045  0.00  0.00    +0.000 A 
ATOM     20  C   UNL     1       3.262   4.671  19.008  0.00  0.00    +0.000 A 
BRANCH  15  22
ATOM     21  C   UNL     1       1.689   6.601  20.580  0.00  0.00    +0.000 C 
ATOM     22  O   UNL     1       1.452   5.200  20.599  0.00  0.00    +0.000 OA
ENDBRANCH  15  22
ENDBRANCH  13  19
ENDBRANCH   1  13
BRANCH   8  23
ATOM     23  N   UNL     1       5.475   6.416  16.101  0.00  0.00    +0.000 NA
ATOM     24  O   UNL     1       5.874   5.981  15.016  0.00  0.00    +0.000 OA
ENDBRANCH   8  23
TORSDOF 4
ENDMDL
MODEL 6
REMARK VINA RESULT:      -7.6      0.975      1.005
REMARK  Name = 
REMARK  5 active torsions:
REMARK  status: ('A' for Active; 'I' for Inactive)
REMARK    1  A    between atoms: C_1  and  O_2
REMARK    2  A    between atoms: O_2  and  C_3
REMARK    3  A    between atoms: C_7  and  N_8
REMARK    4  A    between atoms: N_8  and  C_9
REMARK    5  A    between atoms: C_16  and  N_17
REMARK                            x       y       z     vdW  Elec       q    Type
REMARK                         _______ _______ _______ _____ _____    ______ ____
ROOT
ATOM      1  C   UNL     1       5.886   4.206  17.706  0.00  0.00    +0.000 A 
ATOM      2  N   UNL     1       5.821   3.636  16.480  0.00  0.00    +0.000 NA
ATOM      3  C   UNL     1       6.389   4.278  15.464  0.00  0.00    +0.000 A 
ATOM      4  N   UNL     1       6.294   3.694  14.219  0.00  0.00    +0.000 N 
ATOM      5  N   UNL     1       7.068   5.421  15.564  0.00  0.00    +0.000 NA
ATOM      6  C   UNL     1       7.157   5.972  16.788  0.00  0.00    +0.000 A 
ATOM      7  N   UNL     1       7.828   7.206  16.813  0.00  0.00    +0.000 N 
ATOM      8  C   UNL     1       6.569   5.412  17.927  0.00  0.00    +0.000 A 
ATOM      9  H   UNL     1       6.109   2.709  14.301  0.00  0.00    +0.000 HD
ATOM     10  H   UNL     1       7.052   3.989  13.620  0.00  0.00    +0.000 HD
ATOM     11  H   UNL     1       8.213   7.382  15.891  0.00  0.00    +0.000 HD
ATOM     12  H   UNL     1       8.520   7.267  17.554  0.00  0.00    +0.000 HD
ENDROOT
BRANCH   1  13
ATOM     13  N   UNL     1       5.248   3.540  18.777  0.00  0.00    +0.000 N 
ATOM     14  H   UNL     1       5.918   3.173  19.446  0.00  0.00    +0.000 HD
BRANCH  13  19
ATOM     15  C   UNL     1       2.128   4.888  20.261  0.00  0.00    +0.000 A 
ATOM     16  C   UNL     1       1.371   3.722  20.384  0.00  0.00    +0.000 A 
ATOM     17  C   UNL     1       1.857   2.509  19.902  0.00  0.00    +0.000 A 
ATOM     18  C   UNL     1       3.121   2.452  19.319  0.00  0.00    +0.000 A 
ATOM     19  C   UNL     1       3.917   3.598  19.219  0.00  0.00    +0.000 A 
ATOM     20  C   UNL     1       3.390   4.824  19.665  0.00  0.00    +0.000 A 
BRANCH  15  22
ATOM     21  C   UNL     1       1.927   7.266  20.268  0.00  0.00    +0.000 C 
ATOM     22  O   UNL     1       1.539   6.003  20.792  0.00  0.00    +0.000 OA
ENDBRANCH  15  22
ENDBRANCH  13  19
ENDBRANCH   1  13
BRANCH   8  23
ATOM     23  N   UNL     1       6.765   5.992  19.172  0.00  0.00    +0.000 NA
ATOM     24  O   UNL     1       7.355   5.263  19.976  0.00  0.00    +0.000 OA
ENDBRANCH   8  23
TORSDOF 4
ENDMDL
MODEL 7
REMARK VINA RESULT:      -7.5      1.778      2.750
REMARK  Name = 
REMARK  5 active torsions:
REMARK  status: ('A' for Active; 'I' for Inactive)
REMARK    1  A    between atoms: C_1  and  O_2
REMARK    2  A    between atoms: O_2  and  C_3
REMARK    3  A    between atoms: C_7  and  N_8
REMARK    4  A    between atoms: N_8  and  C_9
REMARK    5  A    between atoms: C_16  and  N_17
REMARK                            x       y       z     vdW  Elec       q    Type
REMARK                         _______ _______ _______ _____ _____    ______ ____
ROOT
ATOM      1  C   UNL     1       5.601   4.115  18.054  0.00  0.00    +0.000 A 
ATOM      2  N   UNL     1       6.325   4.515  19.126  0.00  0.00    +0.000 NA
ATOM      3  C   UNL     1       7.396   5.272  18.908  0.00  0.00    +0.000 A 
ATOM      4  N   UNL     1       8.134   5.650  20.008  0.00  0.00    +0.000 N 
ATOM      5  N   UNL     1       7.788   5.716  17.713  0.00  0.00    +0.000 NA
ATOM      6  C   UNL     1       7.051   5.343  16.651  0.00  0.00    +0.000 A 
ATOM      7  N   UNL     1       7.555   5.792  15.419  0.00  0.00    +0.000 N 
ATOM      8  C   UNL     1       5.927   4.518  16.749  0.00  0.00    +0.000 A 
ATOM      9  H   UNL     1       7.580   5.590  20.846  0.00  0.00    +0.000 HD
ATOM     10  H   UNL     1       8.639   6.506  19.830  0.00  0.00    +0.000 HD
ATOM     11  H   UNL     1       8.336   6.413  15.597  0.00  0.00    +0.000 HD
ATOM     12  H   UNL     1       6.842   6.204  14.825  0.00  0.00    +0.000 HD
ENDROOT
BRANCH   1  13
ATOM     13  N   UNL     1       4.486   3.279  18.286  0.00  0.00    +0.000 N 
ATOM     14  H   UNL     1       4.717   2.299  18.156  0.00  0.00    +0.000 HD
BRANCH  13  19
ATOM     15  C   UNL     1       1.889   5.111  20.198  0.00  0.00    +0.000 A 
ATOM     16  C   UNL     1       1.041   4.063  20.559  0.00  0.00    +0.000 A 
ATOM     17  C   UNL     1       1.282   2.769  20.103  0.00  0.00    +0.000 A 
ATOM     18  C   UNL     1       2.394   2.512  19.303  0.00  0.00    +0.000 A 
ATOM     19  C   UNL     1       3.282   3.537  18.960  0.00  0.00    +0.000 A 
ATOM     20  C   UNL     1       2.996   4.846  19.388  0.00  0.00    +0.000 A 
BRANCH  15  22
ATOM     21  C   UNL     1       2.003   7.490  20.057  0.00  0.00    +0.000 C 
ATOM     22  O   UNL     1       1.546   6.323  20.730  0.00  0.00    +0.000 OA
ENDBRANCH  15  22
ENDBRANCH  13  19
ENDBRANCH   1  13
BRANCH   8  23
ATOM     23  N   UNL     1       5.167   4.235  15.623  0.00  0.00    +0.000 NA
ATOM     24  O   UNL     1       5.808   3.711  14.706  0.00  0.00    +0.000 OA
ENDBRANCH   8  23
TORSDOF 4
ENDMDL
MODEL 8
REMARK VINA RESULT:      -7.4      1.495      1.678
REMARK  Name = 
REMARK  5 active torsions:
REMARK  status: ('A' for Active; 'I' for Inactive)
REMARK    1  A    between atoms: C_1  and  O_2
REMARK    2  A    between atoms: O_2  and  C_3
REMARK    3  A    between atoms: C_7  and  N_8
REMARK    4  A    between atoms: N_8  and  C_9
REMARK    5  A    between atoms: C_16  and  N_17
REMARK                            x       y       z     vdW  Elec       q    Type
REMARK                         _______ _______ _______ _____ _____    ______ ____
ROOT
ATOM      1  C   UNL     1       5.167   5.029  16.858  0.00  0.00    +0.000 A 
ATOM      2  N   UNL     1       5.438   5.165  15.538  0.00  0.00    +0.000 NA
ATOM      3  C   UNL     1       6.695   5.002  15.140  0.00  0.00    +0.000 A 
ATOM      4  N   UNL     1       6.956   5.165  13.797  0.00  0.00    +0.000 N 
ATOM      5  N   UNL     1       7.711   4.663  15.934  0.00  0.00    +0.000 NA
ATOM      6  C   UNL     1       7.436   4.499  17.241  0.00  0.00    +0.000 A 
ATOM      7  N   UNL     1       8.561   4.206  18.030  0.00  0.00    +0.000 N 
ATOM      8  C   UNL     1       6.161   4.680  17.785  0.00  0.00    +0.000 A 
ATOM      9  H   UNL     1       6.117   5.049  13.254  0.00  0.00    +0.000 HD
ATOM     10  H   UNL     1       7.778   4.647  13.520  0.00  0.00    +0.000 HD
ATOM     11  H   UNL     1       9.358   4.068  17.418  0.00  0.00    +0.000 HD
ATOM     12  H   UNL     1       8.407   3.432  18.669  0.00  0.00    +0.000 HD
ENDROOT
BRANCH   1  13
ATOM     13  N   UNL     1       3.836   5.241  17.283  0.00  0.00    +0.000 N 
ATOM     14  H   UNL     1       3.453   6.102  16.906  0.00  0.00    +0.000 HD
BRANCH  13  19
ATOM     15  C   UNL     1       1.538   3.662  19.728  0.00  0.00    +0.000 A 
ATOM     16  C   UNL     1       1.259   2.456  19.085  0.00  0.00    +0.000 A 
ATOM     17  C   UNL     1       1.762   2.200  17.811  0.00  0.00    +0.000 A 
ATOM     18  C   UNL     1       2.574   3.143  17.185  0.00  0.00    +0.000 A 
ATOM     19  C   UNL     1       2.902   4.344  17.824  0.00  0.00    +0.000 A 
ATOM     20  C   UNL     1       2.345   4.607  19.089  0.00  0.00    +0.000 A 
BRANCH  15  22
ATOM     21  C   UNL     1       1.383   2.812  21.952  0.00  0.00    +0.000 C 
ATOM     22  O   UNL     1       0.996   3.774  20.979  0.00  0.00    +0.000 OA
ENDBRANCH  15  22
ENDBRANCH  13  19
ENDBRANCH   1  13
BRANCH   8  23
ATOM     23  N   UNL     1       5.931   4.421  19.129  0.00  0.00    +0.000 NA
ATOM     24  O   UNL     1       6.543   5.172  19.896  0.00  0.00    +0.000 OA
ENDBRANCH   8  23
TORSDOF 4
ENDMDL
MODEL 9
REMARK VINA RESULT:      -7.3      2.775      5.911
REMARK  Name = 
REMARK  5 active torsions:
REMARK  status: ('A' for Active; 'I' for Inactive)
REMARK    1  A    between atoms: C_1  and  O_2
REMARK    2  A    between atoms: O_2  and  C_3
REMARK    3  A    between atoms: C_7  and  N_8
REMARK    4  A    between atoms: N_8  and  C_9
REMARK    5  A    between atoms: C_16  and  N_17
REMARK                            x       y       z     vdW  Elec       q    Type
REMARK                         _______ _______ _______ _____ _____    ______ ____
ROOT
ATOM      1  C   UNL     1       2.689   4.459  18.438  0.00  0.00    +0.000 A 
ATOM      2  N   UNL     1       2.688   5.729  18.908  0.00  0.00    +0.000 NA
ATOM      3  C   UNL     1       2.081   5.964  20.067  0.00  0.00    +0.000 A 
ATOM      4  N   UNL     1       2.071   7.266  20.519  0.00  0.00    +0.000 N 
ATOM      5  N   UNL     1       1.513   5.034  20.836  0.00  0.00    +0.000 NA
ATOM      6  C   UNL     1       1.541   3.768  20.383  0.00  0.00    +0.000 A 
ATOM      7  N   UNL     1       0.870   2.850  21.208  0.00  0.00    +0.000 N 
ATOM      8  C   UNL     1       2.115   3.402  19.162  0.00  0.00    +0.000 A 
ATOM      9  H   UNL     1       2.809   7.798  20.089  0.00  0.00    +0.000 HD
ATOM     10  H   UNL     1       1.981   7.301  21.524  0.00  0.00    +0.000 HD
ATOM     11  H   UNL     1       0.585   3.328  22.057  0.00  0.00    +0.000 HD
ATOM     12  H   UNL     1       1.407   2.007  21.384  0.00  0.00    +0.000 HD
ENDROOT
BRANCH   1  13
ATOM     13  N   UNL     1       3.302   4.220  17.188  0.00  0.00    +0.000 N 
ATOM     14  H   UNL     1       2.631   4.258  16.426  0.00  0.00    +0.000 HD
BRANCH  13  19
ATOM     15  C   UNL     1       6.984   4.561  17.474  0.00  0.00    +0.000 A 
ATOM     16  C   UNL     1       7.341   4.680  16.131  0.00  0.00    +0.000 A 
ATOM     17  C   UNL     1       6.380   4.566  15.130  0.00  0.00    +0.000 A 
ATOM     18  C   UNL     1       5.044   4.359  15.472  0.00  0.00    +0.000 A 
ATOM     19  C   UNL     1       4.653   4.275  16.812  0.00  0.00    +0.000 A 
ATOM     20  C   UNL     1       5.644   4.343  17.808  0.00  0.00    +0.000 A 
BRANCH  15  22
ATOM     21  C   UNL     1       7.920   5.745  19.322  0.00  0.00    +0.000 C 
ATOM     22  O   UNL     1       8.022   4.712  18.351  0.00  0.00    +0.000 OA
ENDBRANCH  15  22
ENDBRANCH  13  19
ENDBRANCH   1  13
BRANCH   8  23
ATOM     23  N   UNL     1       2.176   2.067  18.790  0.00  0.00    +0.000 NA
ATOM     24  O   UNL     1       3.326   1.616  18.731  0.00  0.00    +0.000 OA
ENDBRANCH   8  23
TORSDOF 4
ENDMDL
