MODEL 1
REMARK VINA RESULT:      -7.6      0.000      0.000
REMARK  Name = 
REMARK  12 active torsions:
REMARK  status: ('A' for Active; 'I' for Inactive)
REMARK    1  A    between atoms: C_1  and  C_2
REMARK    2  A    between atoms: C_2  and  C_3
REMARK    3  A    between atoms: C_3  and  C_4
REMARK    4  A    between atoms: C_4  and  C_5
REMARK    5  A    between atoms: C_5  and  O_6
REMARK    6  A    between atoms: O_6  and  C_7
REMARK    7  A    between atoms: C_8  and  O_9
REMARK    8  A    between atoms: O_9  and  C_10
REMARK    9  A    between atoms: C_15  and  C_16
REMARK   10  A    between atoms: N_18  and  C_19
REMARK   11  A    between atoms: C_19  and  C_20
REMARK   12  A    between atoms: C_20  and  C_21
REMARK                            x       y       z     vdW  Elec       q    Type
REMARK                         _______ _______ _______ _____ _____    ______ ____
ROOT
ATOM      1  C   UNL     1      -0.197  11.227  20.564  0.00  0.00    +0.000 A 
ATOM      2  C   UNL     1      -0.632  11.348  21.898  0.00  0.00    +0.000 A 
ATOM      3  C   UNL     1      -0.314  10.338  22.825  0.00  0.00    +0.000 A 
ATOM      4  C   UNL     1       0.402   9.198  22.453  0.00  0.00    +0.000 A 
ATOM      5  C   UNL     1       0.843   9.062  21.139  0.00  0.00    +0.000 A 
ATOM      6  C   UNL     1       1.597   7.877  20.702  0.00  0.00    +0.000 A 
ATOM      7  C   UNL     1       2.029   7.754  19.431  0.00  0.00    +0.000 A 
ATOM      8  C   UNL     1       1.783   8.856  18.480  0.00  0.00    +0.000 A 
ATOM      9  O   UNL     1       2.126   8.814  17.299  0.00  0.00    +0.000 OA
ATOM     10  N   UNL     1       1.171   9.964  18.957  0.00  0.00    +0.000 N 
ATOM     11  C   UNL     1       0.585  10.097  20.220  0.00  0.00    +0.000 A 
ATOM     12  H   UNL     1       1.183  10.722  18.304  0.00  0.00    +0.000 HD
ENDROOT
BRANCH   7  13
ATOM     13  C   UNL     1       2.796   6.533  19.027  0.00  0.00    +0.000 C 
ATOM     14  O   UNL     1       3.865   6.248  19.557  0.00  0.00    +0.000 OA
ATOM     15  N   UNL     1       2.227   5.786  18.034  0.00  0.00    +0.000 N 
ATOM     16  H   UNL     1       1.340   6.094  17.626  0.00  0.00    +0.000 HD
BRANCH  15  17
ATOM     17  C   UNL     1       2.873   4.615  17.481  0.00  0.00    +0.000 C 
BRANCH  17  18
ATOM     18  C   UNL     1       2.142   3.322  17.842  0.00  0.00    +0.000 C 
BRANCH  18  19
ATOM     19  C   UNL     1       2.269   3.005  19.307  0.00  0.00    +0.000 A 
ATOM     20  C   UNL     1       1.227   3.291  20.192  0.00  0.00    +0.000 A 
ATOM     21  C   UNL     1       1.396   2.994  21.535  0.00  0.00    +0.000 A 
ATOM     22  N   UNL     1       2.517   2.444  22.049  0.00  0.00    +0.000 NA
ATOM     23  C   UNL     1       3.517   2.187  21.179  0.00  0.00    +0.000 A 
ATOM     24  C   UNL     1       3.445   2.449  19.819  0.00  0.00    +0.000 A 
ENDBRANCH  18  19
ENDBRANCH  17  18
ENDBRANCH  15  17
ENDBRANCH   7  13
BRANCH   2  25
ATOM     25  O   UNL     1      -1.367  12.349  22.479  0.00  0.00    +0.000 OA
ATOM     26  C   UNL     1      -2.750  12.148  22.721  0.00  0.00    +0.000 C 
ENDBRANCH   2  25
BRANCH   1  27
ATOM     27  O   UNL     1      -0.533  12.228  19.680  0.00  0.00    +0.000 OA
BRANCH  27  28
ATOM     28  C   UNL     1      -1.814  12.157  19.055  0.00  0.00    +0.000 C 
BRANCH  28  29
ATOM     29  C   UNL     1      -1.940  10.931  18.169  0.00  0.00    +0.000 C 
BRANCH  29  30
ATOM     30  C   UNL     1      -2.744  11.304  16.920  0.00  0.00    +0.000 C 
BRANCH  30  32
ATOM     31  C   UNL     1      -3.626  10.302  14.795  0.00  0.00    +0.000 C 
ATOM     32  C   UNL     1      -2.474  10.329  15.785  0.00  0.00    +0.000 C 
ENDBRANCH  30  32
ENDBRANCH  29  30
ENDBRANCH  28  29
ENDBRANCH  27  28
ENDBRANCH   1  27
TORSDOF 10
ENDMDL
MODEL 2
REMARK VINA RESULT:      -7.5      2.566      8.634
REMARK  Name = 
REMARK  12 active torsions:
REMARK  status: ('A' for Active; 'I' for Inactive)
REMARK    1  A    between atoms: C_1  and  C_2
REMARK    2  A    between atoms: C_2  and  C_3
REMARK    3  A    between atoms: C_3  and  C_4
REMARK    4  A    between atoms: C_4  and  C_5
REMARK    5  A    between atoms: C_5  and  O_6
REMARK    6  A    between atoms: O_6  and  C_7
REMARK    7  A    between atoms: C_8  and  O_9
REMARK    8  A    between atoms: O_9  and  C_10
REMARK    9  A    between atoms: C_15  and  C_16
REMARK   10  A    between atoms: N_18  and  C_19
REMARK   11  A    between atoms: C_19  and  C_20
REMARK   12  A    between atoms: C_20  and  C_21
REMARK                            x       y       z     vdW  Elec       q    Type
REMARK                         _______ _______ _______ _____ _____    ______ ____
ROOT
ATOM      1  C   UNL     1       3.424   4.758  18.367  0.00  0.00    +0.000 A 
ATOM      2  C   UNL     1       3.437   3.641  19.225  0.00  0.00    +0.000 A 
ATOM      3  C   UNL     1       2.833   3.733  20.493  0.00  0.00    +0.000 A 
ATOM      4  C   UNL     1       2.240   4.917  20.939  0.00  0.00    +0.000 A 
ATOM      5  C   UNL     1       2.215   6.030  20.104  0.00  0.00    +0.000 A 
ATOM      6  C   UNL     1       1.605   7.298  20.534  0.00  0.00    +0.000 A 
ATOM      7  C   UNL     1       1.576   8.371  19.718  0.00  0.00    +0.000 A 
ATOM      8  C   UNL     1       2.120   8.249  18.351  0.00  0.00    +0.000 A 
ATOM      9  O   UNL     1       2.150   9.184  17.553  0.00  0.00    +0.000 OA
ATOM     10  N   UNL     1       2.582   7.035  17.973  0.00  0.00    +0.000 N 
ATOM     11  C   UNL     1       2.760   5.928  18.810  0.00  0.00    +0.000 A 
ATOM     12  H   UNL     1       2.783   6.987  16.994  0.00  0.00    +0.000 HD
ENDROOT
BRANCH   7  13
ATOM     13  C   UNL     1       0.942   9.643  20.193  0.00  0.00    +0.000 C 
ATOM     14  O   UNL     1       1.096  10.039  21.343  0.00  0.00    +0.000 OA
ATOM     15  N   UNL     1       0.188  10.302  19.264  0.00  0.00    +0.000 N 
ATOM     16  H   UNL     1       0.091   9.903  18.327  0.00  0.00    +0.000 HD
BRANCH  15  17
ATOM     17  C   UNL     1      -0.547  11.508  19.582  0.00  0.00    +0.000 C 
BRANCH  17  18
ATOM     18  C   UNL     1      -1.036  12.238  18.331  0.00  0.00    +0.000 C 
BRANCH  18  19
ATOM     19  C   UNL     1      -2.422  11.800  17.942  0.00  0.00    +0.000 A 
ATOM     20  C   UNL     1      -2.675  11.279  16.670  0.00  0.00    +0.000 A 
ATOM     21  C   UNL     1      -3.971  10.903  16.353  0.00  0.00    +0.000 A 
ATOM     22  N   UNL     1      -5.015  11.015  17.201  0.00  0.00    +0.000 NA
ATOM     23  C   UNL     1      -4.752  11.532  18.419  0.00  0.00    +0.000 A 
ATOM     24  C   UNL     1      -3.491  11.939  18.831  0.00  0.00    +0.000 A 
ENDBRANCH  18  19
ENDBRANCH  17  18
ENDBRANCH  15  17
ENDBRANCH   7  13
BRANCH   2  25
ATOM     25  O   UNL     1       3.982   2.400  19.018  0.00  0.00    +0.000 OA
ATOM     26  C   UNL     1       3.282   1.454  18.226  0.00  0.00    +0.000 C 
ENDBRANCH   2  25
BRANCH   1  27
ATOM     27  O   UNL     1       4.032   4.637  17.137  0.00  0.00    +0.000 OA
BRANCH  27  28
ATOM     28  C   UNL     1       5.458   4.663  17.098  0.00  0.00    +0.000 C 
BRANCH  28  29
ATOM     29  C   UNL     1       5.977   5.833  16.282  0.00  0.00    +0.000 C 
BRANCH  29  30
ATOM     30  C   UNL     1       6.105   7.056  17.194  0.00  0.00    +0.000 C 
BRANCH  30  32
ATOM     31  C   UNL     1       7.994   6.529  18.759  0.00  0.00    +0.000 C 
ATOM     32  C   UNL     1       7.559   7.329  17.543  0.00  0.00    +0.000 C 
ENDBRANCH  30  32
ENDBRANCH  29  30
ENDBRANCH  28  29
ENDBRANCH  27  28
ENDBRANCH   1  27
TORSDOF 10
ENDMDL
MODEL 3
REMARK VINA RESULT:      -7.4      2.643      8.834
REMARK  Name = 
REMARK  12 active torsions:
REMARK  status: ('A' for Active; 'I' for Inactive)
REMARK    1  A    between atoms: C_1  and  C_2
REMARK    2  A    between atoms: C_2  and  C_3
REMARK    3  A    between atoms: C_3  and  C_4
REMARK    4  A    between atoms: C_4  and  C_5
REMARK    5  A    between atoms: C_5  and  O_6
REMARK    6  A    between atoms: O_6  and  C_7
REMARK    7  A    between atoms: C_8  and  O_9
REMARK    8  A    between atoms: O_9  and  C_10
REMARK    9  A    between atoms: C_15  and  C_16
REMARK   10  A    between atoms: N_18  and  C_19
REMARK   11  A    between atoms: C_19  and  C_20
REMARK   12  A    between atoms: C_20  and  C_21
REMARK                            x       y       z     vdW  Elec       q    Type
REMARK                         _______ _______ _______ _____ _____    ______ ____
ROOT
ATOM      1  C   UNL     1       2.518   6.296  19.866  0.00  0.00    +0.000 A 
ATOM      2  C   UNL     1       3.298   6.113  18.707  0.00  0.00    +0.000 A 
ATOM      3  C   UNL     1       3.360   7.138  17.745  0.00  0.00    +0.000 A 
ATOM      4  C   UNL     1       2.646   8.330  17.893  0.00  0.00    +0.000 A 
ATOM      5  C   UNL     1       1.873   8.530  19.034  0.00  0.00    +0.000 A 
ATOM      6  C   UNL     1       1.102   9.767  19.230  0.00  0.00    +0.000 A 
ATOM      7  C   UNL     1       0.361   9.959  20.340  0.00  0.00    +0.000 A 
ATOM      8  C   UNL     1       0.371   8.928  21.397  0.00  0.00    +0.000 A 
ATOM      9  O   UNL     1      -0.291   9.017  22.430  0.00  0.00    +0.000 OA
ATOM     10  N   UNL     1       1.172   7.854  21.210  0.00  0.00    +0.000 N 
ATOM     11  C   UNL     1       1.855   7.536  20.031  0.00  0.00    +0.000 A 
ATOM     12  H   UNL     1       1.250   7.285  22.029  0.00  0.00    +0.000 HD
ENDROOT
BRANCH   7  13
ATOM     13  C   UNL     1      -0.407  11.235  20.504  0.00  0.00    +0.000 C 
ATOM     14  O   UNL     1      -1.158  11.642  19.624  0.00  0.00    +0.000 OA
ATOM     15  N   UNL     1      -0.199  11.896  21.681  0.00  0.00    +0.000 N 
ATOM     16  H   UNL     1       0.455  11.504  22.364  0.00  0.00    +0.000 HD
BRANCH  15  17
ATOM     17  C   UNL     1      -0.811  13.176  21.966  0.00  0.00    +0.000 C 
BRANCH  17  18
ATOM     18  C   UNL     1      -1.515  13.195  23.323  0.00  0.00    +0.000 C 
BRANCH  18  19
ATOM     19  C   UNL     1      -3.001  13.000  23.178  0.00  0.00    +0.000 A 
ATOM     20  C   UNL     1      -3.814  12.859  24.305  0.00  0.00    +0.000 A 
ATOM     21  C   UNL     1      -5.174  12.667  24.121  0.00  0.00    +0.000 A 
ATOM     22  N   UNL     1      -5.768  12.602  22.911  0.00  0.00    +0.000 NA
ATOM     23  C   UNL     1      -4.963  12.728  21.835  0.00  0.00    +0.000 A 
ATOM     24  C   UNL     1      -3.591  12.921  21.915  0.00  0.00    +0.000 A 
ENDBRANCH  18  19
ENDBRANCH  17  18
ENDBRANCH  15  17
ENDBRANCH   7  13
BRANCH   2  25
ATOM     25  O   UNL     1       4.049   5.028  18.334  0.00  0.00    +0.000 OA
ATOM     26  C   UNL     1       5.323   4.827  18.922  0.00  0.00    +0.000 C 
ENDBRANCH   2  25
BRANCH   1  27
ATOM     27  O   UNL     1       2.471   5.269  20.783  0.00  0.00    +0.000 OA
BRANCH  27  28
ATOM     28  C   UNL     1       1.345   4.394  20.739  0.00  0.00    +0.000 C 
BRANCH  28  29
ATOM     29  C   UNL     1       1.700   2.997  21.215  0.00  0.00    +0.000 C 
BRANCH  29  30
ATOM     30  C   UNL     1       2.362   2.234  20.065  0.00  0.00    +0.000 C 
BRANCH  30  32
ATOM     31  C   UNL     1       2.429   2.288  17.557  0.00  0.00    +0.000 C 
ATOM     32  C   UNL     1       1.542   2.349  18.790  0.00  0.00    +0.000 C 
ENDBRANCH  30  32
ENDBRANCH  29  30
ENDBRANCH  28  29
ENDBRANCH  27  28
ENDBRANCH   1  27
TORSDOF 10
ENDMDL
MODEL 4
REMARK VINA RESULT:      -7.4      2.289      3.263
REMARK  Name = 
REMARK  12 active torsions:
REMARK  status: ('A' for Active; 'I' for Inactive)
REMARK    1  A    between atoms: C_1  and  C_2
REMARK    2  A    between atoms: C_2  and  C_3
REMARK    3  A    between atoms: C_3  and  C_4
REMARK    4  A    between atoms: C_4  and  C_5
REMARK    5  A    between atoms: C_5  and  O_6
REMARK    6  A    between atoms: O_6  and  C_7
REMARK    7  A    between atoms: C_8  and  O_9
REMARK    8  A    between atoms: O_9  and  C_10
REMARK    9  A    between atoms: C_15  and  C_16
REMARK   10  A    between atoms: N_18  and  C_19
REMARK   11  A    between atoms: C_19  and  C_20
REMARK   12  A    between atoms: C_20  and  C_21
REMARK                            x       y       z     vdW  Elec       q    Type
REMARK                         _______ _______ _______ _____ _____    ______ ____
ROOT
ATOM      1  C   UNL     1      -0.007  10.825  19.984  0.00  0.00    +0.000 A 
ATOM      2  C   UNL     1      -0.597  11.015  21.248  0.00  0.00    +0.000 A 
ATOM      3  C   UNL     1      -0.398  10.054  22.258  0.00  0.00    +0.000 A 
ATOM      4  C   UNL     1       0.351   8.897  22.032  0.00  0.00    +0.000 A 
ATOM      5  C   UNL     1       0.944   8.694  20.789  0.00  0.00    +0.000 A 
ATOM      6  C   UNL     1       1.738   7.488  20.505  0.00  0.00    +0.000 A 
ATOM      7  C   UNL     1       2.318   7.299  19.303  0.00  0.00    +0.000 A 
ATOM      8  C   UNL     1       2.193   8.351  18.274  0.00  0.00    +0.000 A 
ATOM      9  O   UNL     1       2.674   8.249  17.147  0.00  0.00    +0.000 OA
ATOM     10  N   UNL     1       1.535   9.482  18.618  0.00  0.00    +0.000 N 
ATOM     11  C   UNL     1       0.804   9.679  19.794  0.00  0.00    +0.000 A 
ATOM     12  H   UNL     1       1.630  10.206  17.933  0.00  0.00    +0.000 HD
ENDROOT
BRANCH   7  13
ATOM     13  C   UNL     1       3.121   6.059  19.056  0.00  0.00    +0.000 C 
ATOM     14  O   UNL     1       3.844   5.586  19.926  0.00  0.00    +0.000 OA
ATOM     15  N   UNL     1       2.992   5.519  17.808  0.00  0.00    +0.000 N 
ATOM     16  H   UNL     1       2.381   5.978  17.127  0.00  0.00    +0.000 HD
BRANCH  15  17
ATOM     17  C   UNL     1       3.752   4.362  17.386  0.00  0.00    +0.000 C 
BRANCH  17  18
ATOM     18  C   UNL     1       4.889   4.728  16.432  0.00  0.00    +0.000 C 
BRANCH  18  19
ATOM     19  C   UNL     1       5.986   5.477  17.139  0.00  0.00    +0.000 A 
ATOM     20  C   UNL     1       6.742   4.859  18.139  0.00  0.00    +0.000 A 
ATOM     21  C   UNL     1       7.732   5.595  18.771  0.00  0.00    +0.000 A 
ATOM     22  N   UNL     1       8.012   6.883  18.484  0.00  0.00    +0.000 NA
ATOM     23  C   UNL     1       7.262   7.465  17.524  0.00  0.00    +0.000 A 
ATOM     24  C   UNL     1       6.248   6.815  16.835  0.00  0.00    +0.000 A 
ENDBRANCH  18  19
ENDBRANCH  17  18
ENDBRANCH  15  17
ENDBRANCH   7  13
BRANCH   2  25
ATOM     25  O   UNL     1      -1.390  12.044  21.686  0.00  0.00    +0.000 OA
ATOM     26  C   UNL     1      -0.814  13.095  22.444  0.00  0.00    +0.000 C 
ENDBRANCH   2  25
BRANCH   1  27
ATOM     27  O   UNL     1      -0.229  11.780  19.016  0.00  0.00    +0.000 OA
BRANCH  27  28
ATOM     28  C   UNL     1      -1.477  11.743  18.325  0.00  0.00    +0.000 C 
BRANCH  28  29
ATOM     29  C   UNL     1      -1.713  10.398  17.662  0.00  0.00    +0.000 C 
BRANCH  29  30
ATOM     30  C   UNL     1      -3.220  10.191  17.484  0.00  0.00    +0.000 C 
BRANCH  30  32
ATOM     31  C   UNL     1      -5.484  11.241  17.743  0.00  0.00    +0.000 C 
ATOM     32  C   UNL     1      -4.004  11.357  18.065  0.00  0.00    +0.000 C 
ENDBRANCH  30  32
ENDBRANCH  29  30
ENDBRANCH  28  29
ENDBRANCH  27  28
ENDBRANCH   1  27
TORSDOF 10
ENDMDL
MODEL 5
REMARK VINA RESULT:      -7.4      2.578      8.932
REMARK  Name = 
REMARK  12 active torsions:
REMARK  status: ('A' for Active; 'I' for Inactive)
REMARK    1  A    between atoms: C_1  and  C_2
REMARK    2  A    between atoms: C_2  and  C_3
REMARK    3  A    between atoms: C_3  and  C_4
REMARK    4  A    between atoms: C_4  and  C_5
REMARK    5  A    between atoms: C_5  and  O_6
REMARK    6  A    between atoms: O_6  and  C_7
REMARK    7  A    between atoms: C_8  and  O_9
REMARK    8  A    between atoms: O_9  and  C_10
REMARK    9  A    between atoms: C_15  and  C_16
REMARK   10  A    between atoms: N_18  and  C_19
REMARK   11  A    between atoms: C_19  and  C_20
REMARK   12  A    between atoms: C_20  and  C_21
REMARK                            x       y       z     vdW  Elec       q    Type
REMARK                         _______ _______ _______ _____ _____    ______ ____
ROOT
ATOM      1  C   UNL     1       4.191   5.056  18.250  0.00  0.00    +0.000 A 
ATOM      2  C   UNL     1       4.982   5.043  17.085  0.00  0.00    +0.000 A 
ATOM      3  C   UNL     1       4.999   6.174  16.247  0.00  0.00    +0.000 A 
ATOM      4  C   UNL     1       4.230   7.306  16.525  0.00  0.00    +0.000 A 
ATOM      5  C   UNL     1       3.445   7.338  17.674  0.00  0.00    +0.000 A 
ATOM      6  C   UNL     1       2.616   8.508  18.005  0.00  0.00    +0.000 A 
ATOM      7  C   UNL     1       1.863   8.537  19.123  0.00  0.00    +0.000 A 
ATOM      8  C   UNL     1       1.918   7.394  20.055  0.00  0.00    +0.000 A 
ATOM      9  O   UNL     1       1.249   7.333  21.085  0.00  0.00    +0.000 OA
ATOM     10  N   UNL     1       2.769   6.386  19.753  0.00  0.00    +0.000 N 
ATOM     11  C   UNL     1       3.470   6.237  18.551  0.00  0.00    +0.000 A 
ATOM     12  H   UNL     1       2.871   5.730  20.502  0.00  0.00    +0.000 HD
ENDROOT
BRANCH   7  13
ATOM     13  C   UNL     1       1.036   9.749  19.425  0.00  0.00    +0.000 C 
ATOM     14  O   UNL     1       1.148  10.776  18.765  0.00  0.00    +0.000 OA
ATOM     15  N   UNL     1       0.175   9.621  20.478  0.00  0.00    +0.000 N 
ATOM     16  H   UNL     1       0.147   8.737  20.994  0.00  0.00    +0.000 HD
BRANCH  15  17
ATOM     17  C   UNL     1      -0.645  10.720  20.942  0.00  0.00    +0.000 C 
BRANCH  17  18
ATOM     18  C   UNL     1      -0.568  10.904  22.458  0.00  0.00    +0.000 C 
BRANCH  18  19
ATOM     19  C   UNL     1      -1.380  12.085  22.914  0.00  0.00    +0.000 A 
ATOM     20  C   UNL     1      -2.695  11.919  23.356  0.00  0.00    +0.000 A 
ATOM     21  C   UNL     1      -3.408  13.040  23.752  0.00  0.00    +0.000 A 
ATOM     22  N   UNL     1      -2.909  14.294  23.735  0.00  0.00    +0.000 NA
ATOM     23  C   UNL     1      -1.641  14.434  23.294  0.00  0.00    +0.000 A 
ATOM     24  C   UNL     1      -0.847  13.377  22.874  0.00  0.00    +0.000 A 
ENDBRANCH  18  19
ENDBRANCH  17  18
ENDBRANCH  15  17
ENDBRANCH   7  13
BRANCH   2  25
ATOM     25  O   UNL     1       5.784   4.044  16.597  0.00  0.00    +0.000 OA
ATOM     26  C   UNL     1       7.086   4.360  16.131  0.00  0.00    +0.000 C 
ENDBRANCH   2  25
BRANCH   1  27
ATOM     27  O   UNL     1       4.189   3.930  19.044  0.00  0.00    +0.000 OA
BRANCH  27  28
ATOM     28  C   UNL     1       3.518   2.772  18.548  0.00  0.00    +0.000 C 
BRANCH  28  29
ATOM     29  C   UNL     1       2.111   3.096  18.078  0.00  0.00    +0.000 C 
BRANCH  29  30
ATOM     30  C   UNL     1       1.108   2.505  19.072  0.00  0.00    +0.000 C 
BRANCH  30  32
ATOM     31  C   UNL     1       1.437   2.771  21.545  0.00  0.00    +0.000 C 
ATOM     32  C   UNL     1       0.924   3.421  20.272  0.00  0.00    +0.000 C 
ENDBRANCH  30  32
ENDBRANCH  29  30
ENDBRANCH  28  29
ENDBRANCH  27  28
ENDBRANCH   1  27
TORSDOF 10
ENDMDL
MODEL 6
REMARK VINA RESULT:      -7.4      2.569      8.789
REMARK  Name = 
REMARK  12 active torsions:
REMARK  status: ('A' for Active; 'I' for Inactive)
REMARK    1  A    between atoms: C_1  and  C_2
REMARK    2  A    between atoms: C_2  and  C_3
REMARK    3  A    between atoms: C_3  and  C_4
REMARK    4  A    between atoms: C_4  and  C_5
REMARK    5  A    between atoms: C_5  and  O_6
REMARK    6  A    between atoms: O_6  and  C_7
REMARK    7  A    between atoms: C_8  and  O_9
REMARK    8  A    between atoms: O_9  and  C_10
REMARK    9  A    between atoms: C_15  and  C_16
REMARK   10  A    between atoms: N_18  and  C_19
REMARK   11  A    between atoms: C_19  and  C_20
REMARK   12  A    between atoms: C_20  and  C_21
REMARK                            x       y       z     vdW  Elec       q    Type
REMARK                         _______ _______ _______ _____ _____    ______ ____
ROOT
ATOM      1  C   UNL     1       2.883   6.063  19.624  0.00  0.00    +0.000 A 
ATOM      2  C   UNL     1       3.708   5.758  18.524  0.00  0.00    +0.000 A 
ATOM      3  C   UNL     1       3.842   6.690  17.477  0.00  0.00    +0.000 A 
ATOM      4  C   UNL     1       3.155   7.906  17.485  0.00  0.00    +0.000 A 
ATOM      5  C   UNL     1       2.338   8.227  18.565  0.00  0.00    +0.000 A 
ATOM      6  C   UNL     1       1.593   9.495  18.614  0.00  0.00    +0.000 A 
ATOM      7  C   UNL     1       0.809   9.805  19.666  0.00  0.00    +0.000 A 
ATOM      8  C   UNL     1       0.744   8.874  20.810  0.00  0.00    +0.000 A 
ATOM      9  O   UNL     1       0.039   9.072  21.799  0.00  0.00    +0.000 OA
ATOM     10  N   UNL     1       1.522   7.769  20.758  0.00  0.00    +0.000 N 
ATOM     11  C   UNL     1       2.248   7.329  19.646  0.00  0.00    +0.000 A 
ATOM     12  H   UNL     1       1.548   7.275  21.628  0.00  0.00    +0.000 HD
ENDROOT
BRANCH   7  13
ATOM     13  C   UNL     1       0.070  11.107  19.678  0.00  0.00    +0.000 C 
ATOM     14  O   UNL     1       0.619  12.154  19.351  0.00  0.00    +0.000 OA
ATOM     15  N   UNL     1      -1.232  11.037  20.085  0.00  0.00    +0.000 N 
ATOM     16  H   UNL     1      -1.620  10.130  20.359  0.00  0.00    +0.000 HD
BRANCH  15  17
ATOM     17  C   UNL     1      -2.064  12.214  20.219  0.00  0.00    +0.000 C 
BRANCH  17  18
ATOM     18  C   UNL     1      -1.935  12.863  21.597  0.00  0.00    +0.000 C 
BRANCH  18  19
ATOM     19  C   UNL     1      -3.216  12.758  22.380  0.00  0.00    +0.000 A 
ATOM     20  C   UNL     1      -4.452  12.935  21.754  0.00  0.00    +0.000 A 
ATOM     21  C   UNL     1      -5.603  12.843  22.521  0.00  0.00    +0.000 A 
ATOM     22  N   UNL     1      -5.605  12.594  23.848  0.00  0.00    +0.000 NA
ATOM     23  C   UNL     1      -4.400  12.439  24.435  0.00  0.00    +0.000 A 
ATOM     24  C   UNL     1      -3.193  12.515  23.756  0.00  0.00    +0.000 A 
ENDBRANCH  18  19
ENDBRANCH  17  18
ENDBRANCH  15  17
ENDBRANCH   7  13
BRANCH   2  25
ATOM     25  O   UNL     1       4.445   4.626  18.285  0.00  0.00    +0.000 OA
ATOM     26  C   UNL     1       4.944   4.382  16.980  0.00  0.00    +0.000 C 
ENDBRANCH   2  25
BRANCH   1  27
ATOM     27  O   UNL     1       2.767   5.126  20.626  0.00  0.00    +0.000 OA
BRANCH  27  28
ATOM     28  C   UNL     1       1.534   4.416  20.728  0.00  0.00    +0.000 C 
BRANCH  28  29
ATOM     29  C   UNL     1       1.697   2.952  20.362  0.00  0.00    +0.000 C 
BRANCH  29  30
ATOM     30  C   UNL     1       1.028   2.702  19.007  0.00  0.00    +0.000 C 
BRANCH  30  32
ATOM     31  C   UNL     1       3.239   1.569  18.652  0.00  0.00    +0.000 C 
ATOM     32  C   UNL     1       2.039   2.216  17.981  0.00  0.00    +0.000 C 
ENDBRANCH  30  32
ENDBRANCH  29  30
ENDBRANCH  28  29
ENDBRANCH  27  28
ENDBRANCH   1  27
TORSDOF 10
ENDMDL
MODEL 7
REMARK VINA RESULT:      -7.3      0.787      1.182
REMARK  Name = 
REMARK  12 active torsions:
REMARK  status: ('A' for Active; 'I' for Inactive)
REMARK    1  A    between atoms: C_1  and  C_2
REMARK    2  A    between atoms: C_2  and  C_3
REMARK    3  A    between atoms: C_3  and  C_4
REMARK    4  A    between atoms: C_4  and  C_5
REMARK    5  A    between atoms: C_5  and  O_6
REMARK    6  A    between atoms: O_6  and  C_7
REMARK    7  A    between atoms: C_8  and  O_9
REMARK    8  A    between atoms: O_9  and  C_10
REMARK    9  A    between atoms: C_15  and  C_16
REMARK   10  A    between atoms: N_18  and  C_19
REMARK   11  A    between atoms: C_19  and  C_20
REMARK   12  A    between atoms: C_20  and  C_21
REMARK                            x       y       z     vdW  Elec       q    Type
REMARK                         _______ _______ _______ _____ _____    ______ ____
ROOT
ATOM      1  C   UNL     1      -0.006  11.403  21.097  0.00  0.00    +0.000 A 
ATOM      2  C   UNL     1      -0.481  11.237  22.412  0.00  0.00    +0.000 A 
ATOM      3  C   UNL     1      -0.288  10.008  23.070  0.00  0.00    +0.000 A 
ATOM      4  C   UNL     1       0.343   8.931  22.443  0.00  0.00    +0.000 A 
ATOM      5  C   UNL     1       0.823   9.077  21.144  0.00  0.00    +0.000 A 
ATOM      6  C   UNL     1       1.489   7.968  20.443  0.00  0.00    +0.000 A 
ATOM      7  C   UNL     1       1.959   8.117  19.189  0.00  0.00    +0.000 A 
ATOM      8  C   UNL     1       1.846   9.434  18.531  0.00  0.00    +0.000 A 
ATOM      9  O   UNL     1       2.231   9.648  17.383  0.00  0.00    +0.000 OA
ATOM     10  N   UNL     1       1.311  10.445  19.254  0.00  0.00    +0.000 N 
ATOM     11  C   UNL     1       0.690  10.322  20.501  0.00  0.00    +0.000 A 
ATOM     12  H   UNL     1       1.414  11.334  18.806  0.00  0.00    +0.000 HD
ENDROOT
BRANCH   7  13
ATOM     13  C   UNL     1       2.635   6.964  18.512  0.00  0.00    +0.000 C 
ATOM     14  O   UNL     1       3.833   6.993  18.250  0.00  0.00    +0.000 OA
ATOM     15  N   UNL     1       1.824   5.908  18.207  0.00  0.00    +0.000 N 
ATOM     16  H   UNL     1       0.829   5.960  18.441  0.00  0.00    +0.000 HD
BRANCH  15  17
ATOM     17  C   UNL     1       2.306   4.746  17.491  0.00  0.00    +0.000 C 
BRANCH  17  18
ATOM     18  C   UNL     1       1.612   3.459  17.935  0.00  0.00    +0.000 C 
BRANCH  18  19
ATOM     19  C   UNL     1       1.953   3.108  19.358  0.00  0.00    +0.000 A 
ATOM     20  C   UNL     1       3.254   2.740  19.709  0.00  0.00    +0.000 A 
ATOM     21  C   UNL     1       3.516   2.411  21.030  0.00  0.00    +0.000 A 
ATOM     22  N   UNL     1       2.585   2.420  22.007  0.00  0.00    +0.000 NA
ATOM     23  C   UNL     1       1.332   2.767  21.644  0.00  0.00    +0.000 A 
ATOM     24  C   UNL     1       0.969   3.110  20.350  0.00  0.00    +0.000 A 
ENDBRANCH  18  19
ENDBRANCH  17  18
ENDBRANCH  15  17
ENDBRANCH   7  13
BRANCH   2  25
ATOM     25  O   UNL     1      -1.151  12.131  23.207  0.00  0.00    +0.000 OA
ATOM     26  C   UNL     1      -2.566  12.070  23.286  0.00  0.00    +0.000 C 
ENDBRANCH   2  25
BRANCH   1  27
ATOM     27  O   UNL     1      -0.220  12.615  20.478  0.00  0.00    +0.000 OA
BRANCH  27  28
ATOM     28  C   UNL     1      -1.501  12.840  19.891  0.00  0.00    +0.000 C 
BRANCH  28  29
ATOM     29  C   UNL     1      -2.067  11.575  19.273  0.00  0.00    +0.000 C 
BRANCH  29  30
ATOM     30  C   UNL     1      -1.854  11.626  17.757  0.00  0.00    +0.000 C 
BRANCH  30  32
ATOM     31  C   UNL     1      -3.289   9.747  16.915  0.00  0.00    +0.000 C 
ATOM     32  C   UNL     1      -1.868  10.230  17.156  0.00  0.00    +0.000 C 
ENDBRANCH  30  32
ENDBRANCH  29  30
ENDBRANCH  28  29
ENDBRANCH  27  28
ENDBRANCH   1  27
TORSDOF 10
ENDMDL
MODEL 8
REMARK VINA RESULT:      -7.3      2.015      3.006
REMARK  Name = 
REMARK  12 active torsions:
REMARK  status: ('A' for Active; 'I' for Inactive)
REMARK    1  A    between atoms: C_1  and  C_2
REMARK    2  A    between atoms: C_2  and  C_3
REMARK    3  A    between atoms: C_3  and  C_4
REMARK    4  A    between atoms: C_4  and  C_5
REMARK    5  A    between atoms: C_5  and  O_6
REMARK    6  A    between atoms: O_6  and  C_7
REMARK    7  A    between atoms: C_8  and  O_9
REMARK    8  A    between atoms: O_9  and  C_10
REMARK    9  A    between atoms: C_15  and  C_16
REMARK   10  A    between atoms: N_18  and  C_19
REMARK   11  A    between atoms: C_19  and  C_20
REMARK   12  A    between atoms: C_20  and  C_21
REMARK                            x       y       z     vdW  Elec       q    Type
REMARK                         _______ _______ _______ _____ _____    ______ ____
ROOT
ATOM      1  C   UNL     1      -0.315  11.355  21.045  0.00  0.00    +0.000 A 
ATOM      2  C   UNL     1      -0.766  11.337  22.379  0.00  0.00    +0.000 A 
ATOM      3  C   UNL     1      -0.496  10.216  23.187  0.00  0.00    +0.000 A 
ATOM      4  C   UNL     1       0.189   9.103  22.694  0.00  0.00    +0.000 A 
ATOM      5  C   UNL     1       0.645   9.105  21.378  0.00  0.00    +0.000 A 
ATOM      6  C   UNL     1       1.366   7.952  20.816  0.00  0.00    +0.000 A 
ATOM      7  C   UNL     1       1.814   7.961  19.544  0.00  0.00    +0.000 A 
ATOM      8  C   UNL     1       1.618   9.173  18.724  0.00  0.00    +0.000 A 
ATOM      9  O   UNL     1       1.978   9.257  17.550  0.00  0.00    +0.000 OA
ATOM     10  N   UNL     1       1.035  10.239  19.318  0.00  0.00    +0.000 N 
ATOM     11  C   UNL     1       0.435  10.246  20.582  0.00  0.00    +0.000 A 
ATOM     12  H   UNL     1       1.082  11.067  18.758  0.00  0.00    +0.000 HD
ENDROOT
BRANCH   7  13
ATOM     13  C   UNL     1       2.547   6.769  19.010  0.00  0.00    +0.000 C 
ATOM     14  O   UNL     1       2.496   6.471  17.822  0.00  0.00    +0.000 OA
ATOM     15  N   UNL     1       3.250   6.053  19.936  0.00  0.00    +0.000 N 
ATOM     16  H   UNL     1       3.234   6.352  20.915  0.00  0.00    +0.000 HD
BRANCH  15  17
ATOM     17  C   UNL     1       3.956   4.836  19.597  0.00  0.00    +0.000 C 
BRANCH  17  18
ATOM     18  C   UNL     1       5.436   5.083  19.306  0.00  0.00    +0.000 C 
BRANCH  18  19
ATOM     19  C   UNL     1       5.785   4.746  17.881  0.00  0.00    +0.000 A 
ATOM     20  C   UNL     1       4.840   4.161  17.035  0.00  0.00    +0.000 A 
ATOM     21  C   UNL     1       5.212   3.856  15.736  0.00  0.00    +0.000 A 
ATOM     22  N   UNL     1       6.443   4.086  15.232  0.00  0.00    +0.000 NA
ATOM     23  C   UNL     1       7.345   4.640  16.069  0.00  0.00    +0.000 A 
ATOM     24  C   UNL     1       7.070   4.980  17.386  0.00  0.00    +0.000 A 
ENDBRANCH  18  19
ENDBRANCH  17  18
ENDBRANCH  15  17
ENDBRANCH   7  13
BRANCH   2  25
ATOM     25  O   UNL     1      -1.477  12.289  23.063  0.00  0.00    +0.000 OA
ATOM     26  C   UNL     1      -2.866  12.100  23.280  0.00  0.00    +0.000 C 
ENDBRANCH   2  25
BRANCH   1  27
ATOM     27  O   UNL     1      -0.605  12.462  20.278  0.00  0.00    +0.000 OA
BRANCH  27  28
ATOM     28  C   UNL     1      -1.790  12.425  19.484  0.00  0.00    +0.000 C 
BRANCH  28  29
ATOM     29  C   UNL     1      -1.479  12.150  18.024  0.00  0.00    +0.000 C 
BRANCH  29  30
ATOM     30  C   UNL     1      -2.101  10.807  17.631  0.00  0.00    +0.000 C 
BRANCH  30  32
ATOM     31  C   UNL     1      -4.389  11.325  16.738  0.00  0.00    +0.000 C 
ATOM     32  C   UNL     1      -2.960  10.947  16.384  0.00  0.00    +0.000 C 
ENDBRANCH  30  32
ENDBRANCH  29  30
ENDBRANCH  28  29
ENDBRANCH  27  28
ENDBRANCH   1  27
TORSDOF 10
ENDMDL
MODEL 9
REMARK VINA RESULT:      -7.3      2.532      8.938
REMARK  Name = 
REMARK  12 active torsions:
REMARK  status: ('A' for Active; 'I' for Inactive)
REMARK    1  A    between atoms: C_1  and  C_2
REMARK    2  A    between atoms: C_2  and  C_3
REMARK    3  A    between atoms: C_3  and  C_4
REMARK    4  A    between atoms: C_4  and  C_5
REMARK    5  A    between atoms: C_5  and  O_6
REMARK    6  A    between atoms: O_6  and  C_7
REMARK    7  A    between atoms: C_8  and  O_9
REMARK    8  A    between atoms: O_9  and  C_10
REMARK    9  A    between atoms: C_15  and  C_16
REMARK   10  A    between atoms: N_18  and  C_19
REMARK   11  A    between atoms: C_19  and  C_20
REMARK   12  A    between atoms: C_20  and  C_21
REMARK                            x       y       z     vdW  Elec       q    Type
REMARK                         _______ _______ _______ _____ _____    ______ ____
ROOT
ATOM      1  C   UNL     1       4.544   4.513  17.615  0.00  0.00    +0.000 A 
ATOM      2  C   UNL     1       5.349   4.735  16.482  0.00  0.00    +0.000 A 
ATOM      3  C   UNL     1       5.378   6.012  15.891  0.00  0.00    +0.000 A 
ATOM      4  C   UNL     1       4.606   7.067  16.384  0.00  0.00    +0.000 A 
ATOM      5  C   UNL     1       3.807   6.867  17.506  0.00  0.00    +0.000 A 
ATOM      6  C   UNL     1       2.974   7.948  18.057  0.00  0.00    +0.000 A 
ATOM      7  C   UNL     1       2.208   7.752  19.149  0.00  0.00    +0.000 A 
ATOM      8  C   UNL     1       2.251   6.443  19.830  0.00  0.00    +0.000 A 
ATOM      9  O   UNL     1       1.569   6.176  20.818  0.00  0.00    +0.000 OA
ATOM     10  N   UNL     1       3.104   5.515  19.340  0.00  0.00    +0.000 N 
ATOM     11  C   UNL     1       3.820   5.611  18.142  0.00  0.00    +0.000 A 
ATOM     12  H   UNL     1       3.196   4.721  19.941  0.00  0.00    +0.000 HD
ENDROOT
BRANCH   7  13
ATOM     13  C   UNL     1       1.378   8.880  19.680  0.00  0.00    +0.000 C 
ATOM     14  O   UNL     1       0.999   8.896  20.847  0.00  0.00    +0.000 OA
ATOM     15  N   UNL     1       1.075   9.859  18.777  0.00  0.00    +0.000 N 
ATOM     16  H   UNL     1       1.413   9.771  17.815  0.00  0.00    +0.000 HD
BRANCH  15  17
ATOM     17  C   UNL     1       0.225  10.982  19.112  0.00  0.00    +0.000 C 
BRANCH  17  18
ATOM     18  C   UNL     1       0.978  12.078  19.866  0.00  0.00    +0.000 C 
BRANCH  18  19
ATOM     19  C   UNL     1       0.213  12.546  21.074  0.00  0.00    +0.000 A 
ATOM     20  C   UNL     1      -0.591  11.660  21.796  0.00  0.00    +0.000 A 
ATOM     21  C   UNL     1      -1.289  12.142  22.892  0.00  0.00    +0.000 A 
ATOM     22  N   UNL     1      -1.244  13.425  23.309  0.00  0.00    +0.000 NA
ATOM     23  C   UNL     1      -0.472  14.266  22.590  0.00  0.00    +0.000 A 
ATOM     24  C   UNL     1       0.262  13.883  21.478  0.00  0.00    +0.000 A 
ENDBRANCH  18  19
ENDBRANCH  17  18
ENDBRANCH  15  17
ENDBRANCH   7  13
BRANCH   2  25
ATOM     25  O   UNL     1       6.156   3.853  15.810  0.00  0.00    +0.000 OA
ATOM     26  C   UNL     1       6.335   3.999  14.411  0.00  0.00    +0.000 C 
ENDBRANCH   2  25
BRANCH   1  27
ATOM     27  O   UNL     1       4.531   3.249  18.164  0.00  0.00    +0.000 OA
BRANCH  27  28
ATOM     28  C   UNL     1       3.485   2.365  17.763  0.00  0.00    +0.000 C 
BRANCH  28  29
ATOM     29  C   UNL     1       2.709   1.835  18.955  0.00  0.00    +0.000 C 
BRANCH  29  30
ATOM     30  C   UNL     1       1.250   2.280  18.834  0.00  0.00    +0.000 C 
BRANCH  30  32
ATOM     31  C   UNL     1       1.743   2.668  21.263  0.00  0.00    +0.000 C 
ATOM     32  C   UNL     1       0.759   2.904  20.130  0.00  0.00    +0.000 C 
ENDBRANCH  30  32
ENDBRANCH  29  30
ENDBRANCH  28  29
ENDBRANCH  27  28
ENDBRANCH   1  27
TORSDOF 10
ENDMDL
