MODEL 1
REMARK VINA RESULT:      -7.4      0.000      0.000
REMARK  Name = 
REMARK  9 active torsions:
REMARK  status: ('A' for Active; 'I' for Inactive)
REMARK    1  A    between atoms: C_1  and  C_2
REMARK    2  A    between atoms: C_2  and  C_3
REMARK    3  A    between atoms: C_3  and  C_4
REMARK    4  A    between atoms: C_4  and  S_5
REMARK    5  A    between atoms: S_5  and  C_6
REMARK    6  A    between atoms: C_6  and  C_7
REMARK    7  A    between atoms: C_9  and  N_10
REMARK    8  A    between atoms: C_19  and  O_20
REMARK    9  A    between atoms: C_21  and  O_22
REMARK                            x       y       z     vdW  Elec       q    Type
REMARK                         _______ _______ _______ _____ _____    ______ ____
ROOT
ATOM      1  C   UNL     1       6.810   5.837  16.340  0.00  0.00    +0.000 C 
ATOM      2  O   UNL     1       5.397   5.896  16.641  0.00  0.00    +0.000 OA
ATOM      3  C   UNL     1       5.184   5.620  18.034  0.00  0.00    +0.000 C 
ATOM      4  C   UNL     1       6.497   5.039  18.578  0.00  0.00    +0.000 C 
ATOM      5  C   UNL     1       7.526   5.722  17.691  0.00  0.00    +0.000 C 
ENDROOT
BRANCH   3   6
ATOM      6  N   UNL     1       4.026   4.746  18.161  0.00  0.00    +0.000 N 
ATOM      7  C   UNL     1       4.179   3.371  18.171  0.00  0.00    +0.000 A 
ATOM      8  C   UNL     1       3.137   2.549  18.228  0.00  0.00    +0.000 A 
ATOM      9  F   UNL     1       3.274   1.209  18.244  0.00  0.00    +0.000 F 
ATOM     10  C   UNL     1       1.771   3.097  18.258  0.00  0.00    +0.000 A 
ATOM     11  O   UNL     1       0.769   2.390  18.260  0.00  0.00    +0.000 OA
ATOM     12  N   UNL     1       1.704   4.466  18.289  0.00  0.00    +0.000 N 
ATOM     13  C   UNL     1       2.766   5.336  18.210  0.00  0.00    +0.000 A 
ATOM     14  O   UNL     1       2.559   6.546  18.179  0.00  0.00    +0.000 OA
ATOM     15  H   UNL     1       0.785   4.877  18.300  0.00  0.00    +0.000 HD
ENDBRANCH   3   6
BRANCH   4  16
ATOM     16  O   UNL     1       6.702   5.313  19.960  0.00  0.00    +0.000 OA
ATOM     17  H   UNL     1       6.267   4.588  20.454  0.00  0.00    +0.000 HD
ENDBRANCH   4  16
BRANCH   5  18
ATOM     18  O   UNL     1       7.813   7.016  18.253  0.00  0.00    +0.000 OA
ATOM     19  H   UNL     1       7.798   7.686  17.545  0.00  0.00    +0.000 HD
ENDBRANCH   5  18
BRANCH   1  20
ATOM     20  C   UNL     1       7.077   4.651  15.397  0.00  0.00    +0.000 C 
BRANCH  20  21
ATOM     21  S   UNL     1       5.599   4.355  14.359  0.00  0.00    +0.000 S 
BRANCH  21  22
ATOM     22  C   UNL     1       6.377   3.656  12.870  0.00  0.00    +0.000 C 
BRANCH  22  23
ATOM     23  C   UNL     1       5.270   3.084  11.983  0.00  0.00    +0.000 C 
BRANCH  23  25
ATOM     24  C   UNL     1       7.184   1.736  11.077  0.00  0.00    +0.000 C 
ATOM     25  C   UNL     1       5.680   1.774  11.311  0.00  0.00    +0.000 C 
ENDBRANCH  23  25
ENDBRANCH  22  23
ENDBRANCH  21  22
ENDBRANCH  20  21
ENDBRANCH   1  20
TORSDOF 8
ENDMDL
MODEL 2
REMARK VINA RESULT:      -7.3      1.420      1.696
REMARK  Name = 
REMARK  9 active torsions:
REMARK  status: ('A' for Active; 'I' for Inactive)
REMARK    1  A    between atoms: C_1  and  C_2
REMARK    2  A    between atoms: C_2  and  C_3
REMARK    3  A    between atoms: C_3  and  C_4
REMARK    4  A    between atoms: C_4  and  S_5
REMARK    5  A    between atoms: S_5  and  C_6
REMARK    6  A    between atoms: C_6  and  C_7
REMARK    7  A    between atoms: C_9  and  N_10
REMARK    8  A    between atoms: C_19  and  O_20
REMARK    9  A    between atoms: C_21  and  O_22
REMARK                            x       y       z     vdW  Elec       q    Type
REMARK                         _______ _______ _______ _____ _____    ______ ____
ROOT
ATOM      1  C   UNL     1       5.697   5.427  15.382  0.00  0.00    +0.000 C 
ATOM      2  O   UNL     1       4.627   5.649  16.328  0.00  0.00    +0.000 OA
ATOM      3  C   UNL     1       5.077   5.338  17.655  0.00  0.00    +0.000 C 
ATOM      4  C   UNL     1       6.400   4.574  17.509  0.00  0.00    +0.000 C 
ATOM      5  C   UNL     1       6.954   5.163  16.221  0.00  0.00    +0.000 C 
ENDROOT
BRANCH   3   6
ATOM      6  N   UNL     1       4.020   4.611  18.345  0.00  0.00    +0.000 N 
ATOM      7  C   UNL     1       3.896   3.241  18.196  0.00  0.00    +0.000 A 
ATOM      8  C   UNL     1       2.909   2.559  18.767  0.00  0.00    +0.000 A 
ATOM      9  F   UNL     1       2.781   1.225  18.634  0.00  0.00    +0.000 F 
ATOM     10  C   UNL     1       1.895   3.267  19.565  0.00  0.00    +0.000 A 
ATOM     11  O   UNL     1       0.932   2.701  20.074  0.00  0.00    +0.000 OA
ATOM     12  N   UNL     1       2.110   4.615  19.700  0.00  0.00    +0.000 N 
ATOM     13  C   UNL     1       3.112   5.344  19.103  0.00  0.00    +0.000 A 
ATOM     14  O   UNL     1       3.149   6.562  19.254  0.00  0.00    +0.000 OA
ATOM     15  H   UNL     1       1.430   5.134  20.232  0.00  0.00    +0.000 HD
ENDBRANCH   3   6
BRANCH   4  16
ATOM     16  O   UNL     1       7.280   4.759  18.613  0.00  0.00    +0.000 OA
ATOM     17  H   UNL     1       7.912   5.460  18.349  0.00  0.00    +0.000 HD
ENDBRANCH   4  16
BRANCH   5  18
ATOM     18  O   UNL     1       7.643   6.385  16.546  0.00  0.00    +0.000 OA
ATOM     19  H   UNL     1       8.497   6.410  16.075  0.00  0.00    +0.000 HD
ENDBRANCH   5  18
BRANCH   1  20
ATOM     20  C   UNL     1       5.320   4.261  14.453  0.00  0.00    +0.000 C 
BRANCH  20  21
ATOM     21  S   UNL     1       6.673   3.976  13.253  0.00  0.00    +0.000 S 
BRANCH  21  22
ATOM     22  C   UNL     1       5.781   3.053  11.963  0.00  0.00    +0.000 C 
BRANCH  22  23
ATOM     23  C   UNL     1       4.340   3.564  11.928  0.00  0.00    +0.000 C 
BRANCH  23  25
ATOM     24  C   UNL     1       3.114   4.091   9.802  0.00  0.00    +0.000 C 
ATOM     25  C   UNL     1       3.546   2.986  10.756  0.00  0.00    +0.000 C 
ENDBRANCH  23  25
ENDBRANCH  22  23
ENDBRANCH  21  22
ENDBRANCH  20  21
ENDBRANCH   1  20
TORSDOF 8
ENDMDL
MODEL 3
REMARK VINA RESULT:      -7.3      0.623      1.034
REMARK  Name = 
REMARK  9 active torsions:
REMARK  status: ('A' for Active; 'I' for Inactive)
REMARK    1  A    between atoms: C_1  and  C_2
REMARK    2  A    between atoms: C_2  and  C_3
REMARK    3  A    between atoms: C_3  and  C_4
REMARK    4  A    between atoms: C_4  and  S_5
REMARK    5  A    between atoms: S_5  and  C_6
REMARK    6  A    between atoms: C_6  and  C_7
REMARK    7  A    between atoms: C_9  and  N_10
REMARK    8  A    between atoms: C_19  and  O_20
REMARK    9  A    between atoms: C_21  and  O_22
REMARK                            x       y       z     vdW  Elec       q    Type
REMARK                         _______ _______ _______ _____ _____    ______ ____
ROOT
ATOM      1  C   UNL     1       6.647   5.606  16.278  0.00  0.00    +0.000 C 
ATOM      2  O   UNL     1       5.246   5.702  16.622  0.00  0.00    +0.000 OA
ATOM      3  C   UNL     1       5.077   5.521  18.036  0.00  0.00    +0.000 C 
ATOM      4  C   UNL     1       6.402   4.961  18.574  0.00  0.00    +0.000 C 
ATOM      5  C   UNL     1       7.407   5.571  17.610  0.00  0.00    +0.000 C 
ENDROOT
BRANCH   3   6
ATOM      6  N   UNL     1       3.915   4.673  18.259  0.00  0.00    +0.000 N 
ATOM      7  C   UNL     1       4.056   3.300  18.363  0.00  0.00    +0.000 A 
ATOM      8  C   UNL     1       3.008   2.496  18.510  0.00  0.00    +0.000 A 
ATOM      9  F   UNL     1       3.132   1.159  18.617  0.00  0.00    +0.000 F 
ATOM     10  C   UNL     1       1.649   3.061  18.541  0.00  0.00    +0.000 A 
ATOM     11  O   UNL     1       0.640   2.367  18.623  0.00  0.00    +0.000 OA
ATOM     12  N   UNL     1       1.595   4.429  18.475  0.00  0.00    +0.000 N 
ATOM     13  C   UNL     1       2.663   5.279  18.303  0.00  0.00    +0.000 A 
ATOM     14  O   UNL     1       2.467   6.486  18.191  0.00  0.00    +0.000 OA
ATOM     15  H   UNL     1       0.681   4.850  18.484  0.00  0.00    +0.000 HD
ENDBRANCH   3   6
BRANCH   4  16
ATOM     16  O   UNL     1       6.656   5.324  19.927  0.00  0.00    +0.000 OA
ATOM     17  H   UNL     1       6.491   4.522  20.464  0.00  0.00    +0.000 HD
ENDBRANCH   4  16
BRANCH   5  18
ATOM     18  O   UNL     1       7.726   6.896  18.074  0.00  0.00    +0.000 OA
ATOM     19  H   UNL     1       8.459   7.258  17.541  0.00  0.00    +0.000 HD
ENDBRANCH   5  18
BRANCH   1  20
ATOM     20  C   UNL     1       6.870   4.357  15.408  0.00  0.00    +0.000 C 
BRANCH  20  21
ATOM     21  S   UNL     1       5.578   4.279  14.113  0.00  0.00    +0.000 S 
BRANCH  21  22
ATOM     22  C   UNL     1       6.528   3.550  12.743  0.00  0.00    +0.000 C 
BRANCH  22  23
ATOM     23  C   UNL     1       5.543   2.852  11.805  0.00  0.00    +0.000 C 
BRANCH  23  25
ATOM     24  C   UNL     1       3.339   2.965  10.607  0.00  0.00    +0.000 C 
ATOM     25  C   UNL     1       4.322   3.718  11.494  0.00  0.00    +0.000 C 
ENDBRANCH  23  25
ENDBRANCH  22  23
ENDBRANCH  21  22
ENDBRANCH  20  21
ENDBRANCH   1  20
TORSDOF 8
ENDMDL
MODEL 4
REMARK VINA RESULT:      -6.9      2.681      4.200
REMARK  Name = 
REMARK  9 active torsions:
REMARK  status: ('A' for Active; 'I' for Inactive)
REMARK    1  A    between atoms: C_1  and  C_2
REMARK    2  A    between atoms: C_2  and  C_3
REMARK    3  A    between atoms: C_3  and  C_4
REMARK    4  A    between atoms: C_4  and  S_5
REMARK    5  A    between atoms: S_5  and  C_6
REMARK    6  A    between atoms: C_6  and  C_7
REMARK    7  A    between atoms: C_9  and  N_10
REMARK    8  A    between atoms: C_19  and  O_20
REMARK    9  A    between atoms: C_21  and  O_22
REMARK                            x       y       z     vdW  Elec       q    Type
REMARK                         _______ _______ _______ _____ _____    ______ ____
ROOT
ATOM      1  C   UNL     1       4.862   3.277  17.484  0.00  0.00    +0.000 C 
ATOM      2  O   UNL     1       4.658   4.186  18.589  0.00  0.00    +0.000 OA
ATOM      3  C   UNL     1       3.352   3.986  19.151  0.00  0.00    +0.000 C 
ATOM      4  C   UNL     1       2.564   3.129  18.149  0.00  0.00    +0.000 C 
ATOM      5  C   UNL     1       3.672   2.309  17.507  0.00  0.00    +0.000 C 
ENDROOT
BRANCH   3   6
ATOM      6  N   UNL     1       2.767   5.287  19.441  0.00  0.00    +0.000 N 
ATOM      7  C   UNL     1       2.887   6.329  18.538  0.00  0.00    +0.000 A 
ATOM      8  C   UNL     1       2.413   7.542  18.800  0.00  0.00    +0.000 A 
ATOM      9  F   UNL     1       2.519   8.564  17.927  0.00  0.00    +0.000 F 
ATOM     10  C   UNL     1       1.761   7.812  20.092  0.00  0.00    +0.000 A 
ATOM     11  O   UNL     1       1.350   8.923  20.412  0.00  0.00    +0.000 OA
ATOM     12  N   UNL     1       1.644   6.721  20.913  0.00  0.00    +0.000 N 
ATOM     13  C   UNL     1       2.143   5.462  20.672  0.00  0.00    +0.000 A 
ATOM     14  O   UNL     1       2.027   4.589  21.527  0.00  0.00    +0.000 OA
ATOM     15  H   UNL     1       1.211   6.870  21.810  0.00  0.00    +0.000 HD
ENDBRANCH   3   6
BRANCH   4  16
ATOM     16  O   UNL     1       1.572   2.314  18.765  0.00  0.00    +0.000 OA
ATOM     17  H   UNL     1       0.779   2.364  18.193  0.00  0.00    +0.000 HD
ENDBRANCH   4  16
BRANCH   5  18
ATOM     18  O   UNL     1       3.930   1.169  18.348  0.00  0.00    +0.000 OA
ATOM     19  H   UNL     1       3.118   0.936  18.834  0.00  0.00    +0.000 HD
ENDBRANCH   5  18
BRANCH   1  20
ATOM     20  C   UNL     1       4.975   4.084  16.179  0.00  0.00    +0.000 C 
BRANCH  20  21
ATOM     21  S   UNL     1       6.694   4.678  15.978  0.00  0.00    +0.000 S 
BRANCH  21  22
ATOM     22  C   UNL     1       6.876   4.559  14.171  0.00  0.00    +0.000 C 
BRANCH  22  23
ATOM     23  C   UNL     1       5.598   3.936  13.609  0.00  0.00    +0.000 C 
BRANCH  23  25
ATOM     24  C   UNL     1       4.474   3.172  11.497  0.00  0.00    +0.000 C 
ATOM     25  C   UNL     1       5.806   3.336  12.218  0.00  0.00    +0.000 C 
ENDBRANCH  23  25
ENDBRANCH  22  23
ENDBRANCH  21  22
ENDBRANCH  20  21
ENDBRANCH   1  20
TORSDOF 8
ENDMDL
MODEL 5
REMARK VINA RESULT:      -6.8      1.306      1.501
REMARK  Name = 
REMARK  9 active torsions:
REMARK  status: ('A' for Active; 'I' for Inactive)
REMARK    1  A    between atoms: C_1  and  C_2
REMARK    2  A    between atoms: C_2  and  C_3
REMARK    3  A    between atoms: C_3  and  C_4
REMARK    4  A    between atoms: C_4  and  S_5
REMARK    5  A    between atoms: S_5  and  C_6
REMARK    6  A    between atoms: C_6  and  C_7
REMARK    7  A    between atoms: C_9  and  N_10
REMARK    8  A    between atoms: C_19  and  O_20
REMARK    9  A    between atoms: C_21  and  O_22
REMARK                            x       y       z     vdW  Elec       q    Type
REMARK                         _______ _______ _______ _____ _____    ______ ____
ROOT
ATOM      1  C   UNL     1       6.900   6.190  16.969  0.00  0.00    +0.000 C 
ATOM      2  O   UNL     1       5.592   6.133  17.581  0.00  0.00    +0.000 OA
ATOM      3  C   UNL     1       5.718   5.788  18.969  0.00  0.00    +0.000 C 
ATOM      4  C   UNL     1       7.154   5.286  19.175  0.00  0.00    +0.000 C 
ATOM      5  C   UNL     1       7.910   6.077  18.118  0.00  0.00    +0.000 C 
ENDROOT
BRANCH   3   6
ATOM      6  N   UNL     1       4.677   4.827  19.305  0.00  0.00    +0.000 N 
ATOM      7  C   UNL     1       4.933   3.467  19.259  0.00  0.00    +0.000 A 
ATOM      8  C   UNL     1       3.988   2.567  19.505  0.00  0.00    +0.000 A 
ATOM      9  F   UNL     1       4.226   1.241  19.469  0.00  0.00    +0.000 F 
ATOM     10  C   UNL     1       2.617   3.007  19.812  0.00  0.00    +0.000 A 
ATOM     11  O   UNL     1       1.691   2.223  19.997  0.00  0.00    +0.000 OA
ATOM     12  N   UNL     1       2.453   4.366  19.880  0.00  0.00    +0.000 N 
ATOM     13  C   UNL     1       3.410   5.316  19.611  0.00  0.00    +0.000 A 
ATOM     14  O   UNL     1       3.110   6.507  19.643  0.00  0.00    +0.000 OA
ATOM     15  H   UNL     1       1.526   4.704  20.078  0.00  0.00    +0.000 HD
ENDBRANCH   3   6
BRANCH   4  16
ATOM     16  O   UNL     1       7.649   5.523  20.489  0.00  0.00    +0.000 OA
ATOM     17  H   UNL     1       7.353   4.766  21.036  0.00  0.00    +0.000 HD
ENDBRANCH   4  16
BRANCH   5  18
ATOM     18  O   UNL     1       8.233   7.367  18.671  0.00  0.00    +0.000 OA
ATOM     19  H   UNL     1       8.156   8.045  17.974  0.00  0.00    +0.000 HD
ENDBRANCH   5  18
BRANCH   1  20
ATOM     20  C   UNL     1       7.023   5.064  15.929  0.00  0.00    +0.000 C 
BRANCH  20  21
ATOM     21  S   UNL     1       5.392   4.262  15.706  0.00  0.00    +0.000 S 
BRANCH  21  22
ATOM     22  C   UNL     1       5.184   4.430  13.906  0.00  0.00    +0.000 C 
BRANCH  22  23
ATOM     23  C   UNL     1       6.316   3.659  13.226  0.00  0.00    +0.000 C 
BRANCH  23  25
ATOM     24  C   UNL     1       4.420   3.327  11.615  0.00  0.00    +0.000 C 
ATOM     25  C   UNL     1       5.853   2.941  11.959  0.00  0.00    +0.000 C 
ENDBRANCH  23  25
ENDBRANCH  22  23
ENDBRANCH  21  22
ENDBRANCH  20  21
ENDBRANCH   1  20
TORSDOF 8
ENDMDL
MODEL 6
REMARK VINA RESULT:      -6.7      2.856      6.294
REMARK  Name = 
REMARK  9 active torsions:
REMARK  status: ('A' for Active; 'I' for Inactive)
REMARK    1  A    between atoms: C_1  and  C_2
REMARK    2  A    between atoms: C_2  and  C_3
REMARK    3  A    between atoms: C_3  and  C_4
REMARK    4  A    between atoms: C_4  and  S_5
REMARK    5  A    between atoms: S_5  and  C_6
REMARK    6  A    between atoms: C_6  and  C_7
REMARK    7  A    between atoms: C_9  and  N_10
REMARK    8  A    between atoms: C_19  and  O_20
REMARK    9  A    between atoms: C_21  and  O_22
REMARK                            x       y       z     vdW  Elec       q    Type
REMARK                         _______ _______ _______ _____ _____    ______ ____
ROOT
ATOM      1  C   UNL     1       4.384   3.735  18.954  0.00  0.00    +0.000 C 
ATOM      2  O   UNL     1       5.578   4.033  18.196  0.00  0.00    +0.000 OA
ATOM      3  C   UNL     1       5.422   5.284  17.511  0.00  0.00    +0.000 C 
ATOM      4  C   UNL     1       3.931   5.645  17.577  0.00  0.00    +0.000 C 
ATOM      5  C   UNL     1       3.518   5.000  18.892  0.00  0.00    +0.000 C 
ENDROOT
BRANCH   3   6
ATOM      6  N   UNL     1       5.961   5.146  16.165  0.00  0.00    +0.000 N 
ATOM      7  C   UNL     1       5.313   4.365  15.224  0.00  0.00    +0.000 A 
ATOM      8  C   UNL     1       5.811   4.175  14.007  0.00  0.00    +0.000 A 
ATOM      9  F   UNL     1       5.187   3.422  13.080  0.00  0.00    +0.000 F 
ATOM     10  C   UNL     1       7.099   4.784  13.638  0.00  0.00    +0.000 A 
ATOM     11  O   UNL     1       7.634   4.603  12.549  0.00  0.00    +0.000 OA
ATOM     12  N   UNL     1       7.657   5.576  14.608  0.00  0.00    +0.000 N 
ATOM     13  C   UNL     1       7.172   5.771  15.879  0.00  0.00    +0.000 A 
ATOM     14  O   UNL     1       7.810   6.455  16.675  0.00  0.00    +0.000 OA
ATOM     15  H   UNL     1       8.545   6.001  14.394  0.00  0.00    +0.000 HD
ENDBRANCH   3   6
BRANCH   4  16
ATOM     16  O   UNL     1       3.692   7.048  17.562  0.00  0.00    +0.000 OA
ATOM     17  H   UNL     1       4.380   7.440  16.985  0.00  0.00    +0.000 HD
ENDBRANCH   4  16
BRANCH   5  18
ATOM     18  O   UNL     1       3.833   5.914  19.958  0.00  0.00    +0.000 OA
ATOM     19  H   UNL     1       3.394   6.769  19.792  0.00  0.00    +0.000 HD
ENDBRANCH   5  18
BRANCH   1  20
ATOM     20  C   UNL     1       3.702   2.491  18.358  0.00  0.00    +0.000 C 
BRANCH  20  21
ATOM     21  S   UNL     1       2.124   2.981  17.571  0.00  0.00    +0.000 S 
BRANCH  21  22
ATOM     22  C   UNL     1       0.933   2.207  18.709  0.00  0.00    +0.000 C 
BRANCH  22  23
ATOM     23  C   UNL     1       0.790   3.115  19.931  0.00  0.00    +0.000 C 
BRANCH  23  25
ATOM     24  C   UNL     1       2.209   3.591  21.947  0.00  0.00    +0.000 C 
ATOM     25  C   UNL     1       1.447   2.521  21.178  0.00  0.00    +0.000 C 
ENDBRANCH  23  25
ENDBRANCH  22  23
ENDBRANCH  21  22
ENDBRANCH  20  21
ENDBRANCH   1  20
TORSDOF 8
ENDMDL
MODEL 7
REMARK VINA RESULT:      -6.7      3.308      5.624
REMARK  Name = 
REMARK  9 active torsions:
REMARK  status: ('A' for Active; 'I' for Inactive)
REMARK    1  A    between atoms: C_1  and  C_2
REMARK    2  A    between atoms: C_2  and  C_3
REMARK    3  A    between atoms: C_3  and  C_4
REMARK    4  A    between atoms: C_4  and  S_5
REMARK    5  A    between atoms: S_5  and  C_6
REMARK    6  A    between atoms: C_6  and  C_7
REMARK    7  A    between atoms: C_9  and  N_10
REMARK    8  A    between atoms: C_19  and  O_20
REMARK    9  A    between atoms: C_21  and  O_22
REMARK                            x       y       z     vdW  Elec       q    Type
REMARK                         _______ _______ _______ _____ _____    ______ ____
ROOT
ATOM      1  C   UNL     1       7.544   5.214  17.802  0.00  0.00    +0.000 C 
ATOM      2  O   UNL     1       6.514   4.346  18.326  0.00  0.00    +0.000 OA
ATOM      3  C   UNL     1       5.397   4.315  17.426  0.00  0.00    +0.000 C 
ATOM      4  C   UNL     1       5.591   5.473  16.436  0.00  0.00    +0.000 C 
ATOM      5  C   UNL     1       7.108   5.575  16.376  0.00  0.00    +0.000 C 
ENDROOT
BRANCH   3   6
ATOM      6  N   UNL     1       4.169   4.374  18.207  0.00  0.00    +0.000 N 
ATOM      7  C   UNL     1       3.799   5.543  18.850  0.00  0.00    +0.000 A 
ATOM      8  C   UNL     1       2.716   5.609  19.615  0.00  0.00    +0.000 A 
ATOM      9  F   UNL     1       2.343   6.742  20.242  0.00  0.00    +0.000 F 
ATOM     10  C   UNL     1       1.886   4.411  19.818  0.00  0.00    +0.000 A 
ATOM     11  O   UNL     1       0.904   4.397  20.553  0.00  0.00    +0.000 OA
ATOM     12  N   UNL     1       2.293   3.306  19.115  0.00  0.00    +0.000 N 
ATOM     13  C   UNL     1       3.420   3.208  18.334  0.00  0.00    +0.000 A 
ATOM     14  O   UNL     1       3.706   2.133  17.813  0.00  0.00    +0.000 OA
ATOM     15  H   UNL     1       1.754   2.464  19.237  0.00  0.00    +0.000 HD
ENDBRANCH   3   6
BRANCH   4  16
ATOM     16  O   UNL     1       5.012   5.224  15.159  0.00  0.00    +0.000 OA
ATOM     17  H   UNL     1       5.727   5.355  14.502  0.00  0.00    +0.000 HD
ENDBRANCH   4  16
BRANCH   5  18
ATOM     18  O   UNL     1       7.583   4.614  15.415  0.00  0.00    +0.000 OA
ATOM     19  H   UNL     1       8.250   5.034  14.841  0.00  0.00    +0.000 HD
ENDBRANCH   5  18
BRANCH   1  20
ATOM     20  C   UNL     1       7.697   6.434  18.727  0.00  0.00    +0.000 C 
BRANCH  20  21
ATOM     21  S   UNL     1       7.803   7.955  17.714  0.00  0.00    +0.000 S 
BRANCH  21  22
ATOM     22  C   UNL     1       8.745   9.034  18.837  0.00  0.00    +0.000 C 
BRANCH  22  23
ATOM     23  C   UNL     1       8.940  10.382  18.142  0.00  0.00    +0.000 C 
BRANCH  23  25
ATOM     24  C   UNL     1      10.966  11.807  17.729  0.00  0.00    +0.000 C 
ATOM     25  C   UNL     1      10.047  11.216  18.789  0.00  0.00    +0.000 C 
ENDBRANCH  23  25
ENDBRANCH  22  23
ENDBRANCH  21  22
ENDBRANCH  20  21
ENDBRANCH   1  20
TORSDOF 8
ENDMDL
MODEL 8
REMARK VINA RESULT:      -6.6      1.638      2.028
REMARK  Name = 
REMARK  9 active torsions:
REMARK  status: ('A' for Active; 'I' for Inactive)
REMARK    1  A    between atoms: C_1  and  C_2
REMARK    2  A    between atoms: C_2  and  C_3
REMARK    3  A    between atoms: C_3  and  C_4
REMARK    4  A    between atoms: C_4  and  S_5
REMARK    5  A    between atoms: S_5  and  C_6
REMARK    6  A    between atoms: C_6  and  C_7
REMARK    7  A    between atoms: C_9  and  N_10
REMARK    8  A    between atoms: C_19  and  O_20
REMARK    9  A    between atoms: C_21  and  O_22
REMARK                            x       y       z     vdW  Elec       q    Type
REMARK                         _______ _______ _______ _____ _____    ______ ____
ROOT
ATOM      1  C   UNL     1       5.586   6.597  16.503  0.00  0.00    +0.000 C 
ATOM      2  O   UNL     1       4.341   6.483  17.229  0.00  0.00    +0.000 OA
ATOM      3  C   UNL     1       4.514   5.615  18.360  0.00  0.00    +0.000 C 
ATOM      4  C   UNL     1       5.850   4.886  18.161  0.00  0.00    +0.000 C 
ATOM      5  C   UNL     1       6.648   5.915  17.375  0.00  0.00    +0.000 C 
ENDROOT
BRANCH   3   6
ATOM      6  N   UNL     1       3.349   4.747  18.461  0.00  0.00    +0.000 N 
ATOM      7  C   UNL     1       2.398   4.957  19.445  0.00  0.00    +0.000 A 
ATOM      8  C   UNL     1       1.356   4.147  19.596  0.00  0.00    +0.000 A 
ATOM      9  F   UNL     1       0.421   4.343  20.547  0.00  0.00    +0.000 F 
ATOM     10  C   UNL     1       1.203   2.975  18.719  0.00  0.00    +0.000 A 
ATOM     11  O   UNL     1       0.290   2.164  18.843  0.00  0.00    +0.000 OA
ATOM     12  N   UNL     1       2.160   2.861  17.744  0.00  0.00    +0.000 N 
ATOM     13  C   UNL     1       3.257   3.673  17.580  0.00  0.00    +0.000 A 
ATOM     14  O   UNL     1       4.078   3.416  16.704  0.00  0.00    +0.000 OA
ATOM     15  H   UNL     1       2.093   2.065  17.131  0.00  0.00    +0.000 HD
ENDBRANCH   3   6
BRANCH   4  16
ATOM     16  O   UNL     1       6.482   4.528  19.385  0.00  0.00    +0.000 OA
ATOM     17  H   UNL     1       5.763   4.347  20.025  0.00  0.00    +0.000 HD
ENDBRANCH   4  16
BRANCH   5  18
ATOM     18  O   UNL     1       7.238   6.835  18.313  0.00  0.00    +0.000 OA
ATOM     19  H   UNL     1       6.535   7.234  18.859  0.00  0.00    +0.000 HD
ENDBRANCH   5  18
BRANCH   1  20
ATOM     20  C   UNL     1       5.423   5.956  15.115  0.00  0.00    +0.000 C 
BRANCH  20  21
ATOM     21  S   UNL     1       6.960   5.064  14.673  0.00  0.00    +0.000 S 
BRANCH  21  22
ATOM     22  C   UNL     1       6.265   3.546  13.950  0.00  0.00    +0.000 C 
BRANCH  22  23
ATOM     23  C   UNL     1       6.260   3.706  12.429  0.00  0.00    +0.000 C 
BRANCH  23  25
ATOM     24  C   UNL     1       4.103   3.225  11.238  0.00  0.00    +0.000 C 
ATOM     25  C   UNL     1       5.417   2.637  11.734  0.00  0.00    +0.000 C 
ENDBRANCH  23  25
ENDBRANCH  22  23
ENDBRANCH  21  22
ENDBRANCH  20  21
ENDBRANCH   1  20
TORSDOF 8
ENDMDL
MODEL 9
REMARK VINA RESULT:      -6.6      1.560      1.672
REMARK  Name = 
REMARK  9 active torsions:
REMARK  status: ('A' for Active; 'I' for Inactive)
REMARK    1  A    between atoms: C_1  and  C_2
REMARK    2  A    between atoms: C_2  and  C_3
REMARK    3  A    between atoms: C_3  and  C_4
REMARK    4  A    between atoms: C_4  and  S_5
REMARK    5  A    between atoms: S_5  and  C_6
REMARK    6  A    between atoms: C_6  and  C_7
REMARK    7  A    between atoms: C_9  and  N_10
REMARK    8  A    between atoms: C_19  and  O_20
REMARK    9  A    between atoms: C_21  and  O_22
REMARK                            x       y       z     vdW  Elec       q    Type
REMARK                         _______ _______ _______ _____ _____    ______ ____
ROOT
ATOM      1  C   UNL     1       5.447   6.040  15.991  0.00  0.00    +0.000 C 
ATOM      2  O   UNL     1       4.473   6.024  17.060  0.00  0.00    +0.000 OA
ATOM      3  C   UNL     1       5.138   5.878  18.323  0.00  0.00    +0.000 C 
ATOM      4  C   UNL     1       6.583   5.456  18.019  0.00  0.00    +0.000 C 
ATOM      5  C   UNL     1       6.819   6.119  16.671  0.00  0.00    +0.000 C 
ENDROOT
BRANCH   3   6
ATOM      6  N   UNL     1       4.383   4.937  19.140  0.00  0.00    +0.000 N 
ATOM      7  C   UNL     1       4.770   3.611  19.226  0.00  0.00    +0.000 A 
ATOM      8  C   UNL     1       4.069   2.719  19.916  0.00  0.00    +0.000 A 
ATOM      9  F   UNL     1       4.438   1.427  20.012  0.00  0.00    +0.000 F 
ATOM     10  C   UNL     1       2.828   3.128  20.595  0.00  0.00    +0.000 A 
ATOM     11  O   UNL     1       2.111   2.340  21.205  0.00  0.00    +0.000 OA
ATOM     12  N   UNL     1       2.535   4.464  20.498  0.00  0.00    +0.000 N 
ATOM     13  C   UNL     1       3.234   5.401  19.774  0.00  0.00    +0.000 A 
ATOM     14  O   UNL     1       2.822   6.556  19.716  0.00  0.00    +0.000 OA
ATOM     15  H   UNL     1       1.688   4.778  20.943  0.00  0.00    +0.000 HD
ENDBRANCH   3   6
BRANCH   4  16
ATOM     16  O   UNL     1       7.514   5.887  19.007  0.00  0.00    +0.000 OA
ATOM     17  H   UNL     1       8.308   5.323  18.904  0.00  0.00    +0.000 HD
ENDBRANCH   4  16
BRANCH   5  18
ATOM     18  O   UNL     1       7.218   7.482  16.906  0.00  0.00    +0.000 OA
ATOM     19  H   UNL     1       7.651   7.835  16.106  0.00  0.00    +0.000 HD
ENDBRANCH   5  18
BRANCH   1  20
ATOM     20  C   UNL     1       5.262   4.786  15.119  0.00  0.00    +0.000 C 
BRANCH  20  21
ATOM     21  S   UNL     1       6.781   4.499  14.138  0.00  0.00    +0.000 S 
BRANCH  21  22
ATOM     22  C   UNL     1       6.114   3.473  12.791  0.00  0.00    +0.000 C 
BRANCH  22  23
ATOM     23  C   UNL     1       7.175   3.388  11.693  0.00  0.00    +0.000 C 
BRANCH  23  25
ATOM     24  C   UNL     1       5.930   1.243  11.305  0.00  0.00    +0.000 C 
ATOM     25  C   UNL     1       7.214   2.013  11.026  0.00  0.00    +0.000 C 
ENDBRANCH  23  25
ENDBRANCH  22  23
ENDBRANCH  21  22
ENDBRANCH  20  21
ENDBRANCH   1  20
TORSDOF 8
ENDMDL
