MODEL 1
REMARK VINA RESULT:      -8.6      0.000      0.000
REMARK  Name = 
REMARK  8 active torsions:
REMARK  status: ('A' for Active; 'I' for Inactive)
REMARK    1  A    between atoms: C_2  and  O_3
REMARK    2  A    between atoms: C_2  and  C_4
REMARK    3  A    between atoms: C_4  and  C_5
REMARK    4  A    between atoms: C_5  and  C_6
REMARK    5  A    between atoms: C_5  and  C_14
REMARK    6  A    between atoms: C_6  and  C_7
REMARK    7  A    between atoms: N_16  and  C_17
REMARK    8  A    between atoms: C_17  and  C_18
REMARK                            x       y       z     vdW  Elec       q    Type
REMARK                         _______ _______ _______ _____ _____    ______ ____
ROOT
ATOM      1  C   UNL     1       1.634   8.529  19.461  0.00  0.00    +0.000 C 
ATOM      2  O   UNL     1       2.032   8.894  18.359  0.00  0.00    +0.000 OA
ATOM      3  N   UNL     1       2.068   7.352  20.034  0.00  0.00    +0.000 N 
ATOM      4  H   UNL     1       1.692   7.066  20.929  0.00  0.00    +0.000 HD
ENDROOT
BRANCH   1   5
ATOM      5  C   UNL     1       0.674   9.372  20.309  0.00  0.00    +0.000 C 
BRANCH   5   6
ATOM      6  C   UNL     1       1.216   9.402  21.752  0.00  0.00    +0.000 C 
BRANCH   6   8
ATOM      7  O   UNL     1       0.222   9.797  23.935  0.00  0.00    +0.000 OA
ATOM      8  C   UNL     1       0.185   9.257  22.842  0.00  0.00    +0.000 C 
BRANCH   8   9
ATOM      9  O   UNL     1      -0.829   8.436  22.477  0.00  0.00    +0.000 OA
ATOM     10  H   UNL     1      -0.656   7.942  21.650  0.00  0.00    +0.000 HD
ENDBRANCH   8   9
ENDBRANCH   6   8
ENDBRANCH   5   6
BRANCH   5  11
ATOM     11  C   UNL     1       0.392  10.759  19.697  0.00  0.00    +0.000 C 
BRANCH  11  12
ATOM     12  C   UNL     1      -0.932  10.949  18.996  0.00  0.00    +0.000 A 
ATOM     13  C   UNL     1      -1.251  10.195  17.858  0.00  0.00    +0.000 A 
ATOM     14  C   UNL     1      -2.514  10.295  17.270  0.00  0.00    +0.000 A 
ATOM     15  C   UNL     1      -3.462  11.158  17.811  0.00  0.00    +0.000 A 
ATOM     16 CL   UNL     1      -5.030  11.254  17.109  0.00  0.00    +0.000 Cl
ATOM     17  C   UNL     1      -3.155  11.927  18.931  0.00  0.00    +0.000 A 
ATOM     18  C   UNL     1      -1.894  11.823  19.523  0.00  0.00    +0.000 A 
ENDBRANCH  11  12
ENDBRANCH   5  11
ENDBRANCH   1   5
BRANCH   3  19
ATOM     19  C   UNL     1       2.969   6.455  19.327  0.00  0.00    +0.000 C 
BRANCH  19  20
ATOM     20  C   UNL     1       2.608   4.960  19.457  0.00  0.00    +0.000 C 
ATOM     21  C   UNL     1       1.515   4.738  20.534  0.00  0.00    +0.000 C 
ATOM     22  C   UNL     1       1.152   3.248  20.646  0.00  0.00    +0.000 C 
ATOM     23  C   UNL     1       0.618   2.750  19.295  0.00  0.00    +0.000 C 
ATOM     24  C   UNL     1       1.690   2.934  18.208  0.00  0.00    +0.000 C 
ATOM     25  C   UNL     1       2.941   2.128  18.594  0.00  0.00    +0.000 C 
ATOM     26  C   UNL     1       3.490   2.625  19.940  0.00  0.00    +0.000 C 
ATOM     27  C   UNL     1       2.414   2.455  21.024  0.00  0.00    +0.000 C 
ATOM     28  C   UNL     1       3.856   4.115  19.820  0.00  0.00    +0.000 C 
ATOM     29  C   UNL     1       2.058   4.427  18.103  0.00  0.00    +0.000 C 
ENDBRANCH  19  20
ENDBRANCH   3  19
TORSDOF 8
ENDMDL
MODEL 2
REMARK VINA RESULT:      -8.5      0.626      1.616
REMARK  Name = 
REMARK  8 active torsions:
REMARK  status: ('A' for Active; 'I' for Inactive)
REMARK    1  A    between atoms: C_2  and  O_3
REMARK    2  A    between atoms: C_2  and  C_4
REMARK    3  A    between atoms: C_4  and  C_5
REMARK    4  A    between atoms: C_5  and  C_6
REMARK    5  A    between atoms: C_5  and  C_14
REMARK    6  A    between atoms: C_6  and  C_7
REMARK    7  A    between atoms: N_16  and  C_17
REMARK    8  A    between atoms: C_17  and  C_18
REMARK                            x       y       z     vdW  Elec       q    Type
REMARK                         _______ _______ _______ _____ _____    ______ ____
ROOT
ATOM      1  C   UNL     1       1.584   8.855  19.019  0.00  0.00    +0.000 C 
ATOM      2  O   UNL     1       2.189   9.225  18.017  0.00  0.00    +0.000 OA
ATOM      3  N   UNL     1       1.885   7.664  19.647  0.00  0.00    +0.000 N 
ATOM      4  H   UNL     1       1.342   7.376  20.450  0.00  0.00    +0.000 HD
ENDROOT
BRANCH   1   5
ATOM      5  C   UNL     1       0.493   9.705  19.681  0.00  0.00    +0.000 C 
BRANCH   5   6
ATOM      6  C   UNL     1       0.994  10.115  21.080  0.00  0.00    +0.000 C 
BRANCH   6   8
ATOM      7  O   UNL     1       0.347   9.828  23.406  0.00  0.00    +0.000 OA
ATOM      8  C   UNL     1       0.294   9.461  22.244  0.00  0.00    +0.000 C 
BRANCH   8   9
ATOM      9  O   UNL     1      -0.430   8.382  21.860  0.00  0.00    +0.000 OA
ATOM     10  H   UNL     1      -1.274   8.612  21.420  0.00  0.00    +0.000 HD
ENDBRANCH   8   9
ENDBRANCH   6   8
ENDBRANCH   5   6
BRANCH   5  11
ATOM     11  C   UNL     1       0.023  10.875  18.794  0.00  0.00    +0.000 C 
BRANCH  11  12
ATOM     12  C   UNL     1      -1.454  10.965  18.494  0.00  0.00    +0.000 A 
ATOM     13  C   UNL     1      -2.067  10.033  17.645  0.00  0.00    +0.000 A 
ATOM     14  C   UNL     1      -3.449  10.052  17.448  0.00  0.00    +0.000 A 
ATOM     15  C   UNL     1      -4.225  11.012  18.089  0.00  0.00    +0.000 A 
ATOM     16 CL   UNL     1      -5.933  11.014  17.874  0.00  0.00    +0.000 Cl
ATOM     17  C   UNL     1      -3.631  11.957  18.922  0.00  0.00    +0.000 A 
ATOM     18  C   UNL     1      -2.248  11.934  19.124  0.00  0.00    +0.000 A 
ENDBRANCH  11  12
ENDBRANCH   5  11
ENDBRANCH   1   5
BRANCH   3  19
ATOM     19  C   UNL     1       2.891   6.761  19.111  0.00  0.00    +0.000 C 
BRANCH  19  20
ATOM     20  C   UNL     1       2.581   5.264  19.328  0.00  0.00    +0.000 C 
ATOM     21  C   UNL     1       3.873   4.460  19.625  0.00  0.00    +0.000 C 
ATOM     22  C   UNL     1       3.552   2.974  19.854  0.00  0.00    +0.000 C 
ATOM     23  C   UNL     1       2.602   2.837  21.053  0.00  0.00    +0.000 C 
ATOM     24  C   UNL     1       1.298   3.604  20.779  0.00  0.00    +0.000 C 
ATOM     25  C   UNL     1       0.627   3.023  19.524  0.00  0.00    +0.000 C 
ATOM     26  C   UNL     1       1.565   3.166  18.315  0.00  0.00    +0.000 C 
ATOM     27  C   UNL     1       2.874   2.410  18.594  0.00  0.00    +0.000 C 
ATOM     28  C   UNL     1       1.879   4.655  18.087  0.00  0.00    +0.000 C 
ATOM     29  C   UNL     1       1.623   5.092  20.542  0.00  0.00    +0.000 C 
ENDBRANCH  19  20
ENDBRANCH   3  19
TORSDOF 8
ENDMDL
MODEL 3
REMARK VINA RESULT:      -8.5      0.190      1.741
REMARK  Name = 
REMARK  8 active torsions:
REMARK  status: ('A' for Active; 'I' for Inactive)
REMARK    1  A    between atoms: C_2  and  O_3
REMARK    2  A    between atoms: C_2  and  C_4
REMARK    3  A    between atoms: C_4  and  C_5
REMARK    4  A    between atoms: C_5  and  C_6
REMARK    5  A    between atoms: C_5  and  C_14
REMARK    6  A    between atoms: C_6  and  C_7
REMARK    7  A    between atoms: N_16  and  C_17
REMARK    8  A    between atoms: C_17  and  C_18
REMARK                            x       y       z     vdW  Elec       q    Type
REMARK                         _______ _______ _______ _____ _____    ______ ____
ROOT
ATOM      1  C   UNL     1       1.581   8.607  19.359  0.00  0.00    +0.000 C 
ATOM      2  O   UNL     1       2.043   9.018  18.299  0.00  0.00    +0.000 OA
ATOM      3  N   UNL     1       1.962   7.394  19.894  0.00  0.00    +0.000 N 
ATOM      4  H   UNL     1       1.534   7.073  20.752  0.00  0.00    +0.000 HD
ENDROOT
BRANCH   1   5
ATOM      5  C   UNL     1       0.592   9.427  20.197  0.00  0.00    +0.000 C 
BRANCH   5   6
ATOM      6  C   UNL     1       1.144   9.512  21.633  0.00  0.00    +0.000 C 
BRANCH   6   8
ATOM      7  O   UNL     1       0.123   9.880  23.809  0.00  0.00    +0.000 OA
ATOM      8  C   UNL     1       0.137   9.302  22.735  0.00  0.00    +0.000 C 
BRANCH   8   9
ATOM      9  O   UNL     1      -0.792   8.373  22.404  0.00  0.00    +0.000 OA
ATOM     10  H   UNL     1      -0.412   7.496  22.192  0.00  0.00    +0.000 HD
ENDBRANCH   8   9
ENDBRANCH   6   8
ENDBRANCH   5   6
BRANCH   5  11
ATOM     11  C   UNL     1       0.246  10.786  19.556  0.00  0.00    +0.000 C 
BRANCH  11  12
ATOM     12  C   UNL     1      -1.142  10.948  18.986  0.00  0.00    +0.000 A 
ATOM     13  C   UNL     1      -2.062  11.821  19.584  0.00  0.00    +0.000 A 
ATOM     14  C   UNL     1      -3.309  12.050  19.000  0.00  0.00    +0.000 A 
ATOM     15  C   UNL     1      -3.649  11.397  17.819  0.00  0.00    +0.000 A 
ATOM     16 CL   UNL     1      -5.172  11.706  17.080  0.00  0.00    +0.000 Cl
ATOM     17  C   UNL     1      -2.755  10.513  17.221  0.00  0.00    +0.000 A 
ATOM     18  C   UNL     1      -1.504  10.289  17.802  0.00  0.00    +0.000 A 
ENDBRANCH  11  12
ENDBRANCH   5  11
ENDBRANCH   1   5
BRANCH   3  19
ATOM     19  C   UNL     1       2.884   6.516  19.190  0.00  0.00    +0.000 C 
BRANCH  19  20
ATOM     20  C   UNL     1       2.580   5.011  19.359  0.00  0.00    +0.000 C 
ATOM     21  C   UNL     1       3.858   4.220  19.738  0.00  0.00    +0.000 C 
ATOM     22  C   UNL     1       3.543   2.725  19.918  0.00  0.00    +0.000 C 
ATOM     23  C   UNL     1       2.509   2.555  21.041  0.00  0.00    +0.000 C 
ATOM     24  C   UNL     1       1.218   3.309  20.683  0.00  0.00    +0.000 C 
ATOM     25  C   UNL     1       0.650   2.742  19.373  0.00  0.00    +0.000 C 
ATOM     26  C   UNL     1       1.673   2.918  18.239  0.00  0.00    +0.000 C 
ATOM     27  C   UNL     1       2.969   2.175  18.602  0.00  0.00    +0.000 C 
ATOM     28  C   UNL     1       1.981   4.415  18.060  0.00  0.00    +0.000 C 
ATOM     29  C   UNL     1       1.538   4.805  20.495  0.00  0.00    +0.000 C 
ENDBRANCH  19  20
ENDBRANCH   3  19
TORSDOF 8
ENDMDL
MODEL 4
REMARK VINA RESULT:      -8.4      0.558      1.789
REMARK  Name = 
REMARK  8 active torsions:
REMARK  status: ('A' for Active; 'I' for Inactive)
REMARK    1  A    between atoms: C_2  and  O_3
REMARK    2  A    between atoms: C_2  and  C_4
REMARK    3  A    between atoms: C_4  and  C_5
REMARK    4  A    between atoms: C_5  and  C_6
REMARK    5  A    between atoms: C_5  and  C_14
REMARK    6  A    between atoms: C_6  and  C_7
REMARK    7  A    between atoms: N_16  and  C_17
REMARK    8  A    between atoms: C_17  and  C_18
REMARK                            x       y       z     vdW  Elec       q    Type
REMARK                         _______ _______ _______ _____ _____    ______ ____
ROOT
ATOM      1  C   UNL     1       1.582   8.760  19.055  0.00  0.00    +0.000 C 
ATOM      2  O   UNL     1       2.137   9.069  18.004  0.00  0.00    +0.000 OA
ATOM      3  N   UNL     1       1.945   7.633  19.761  0.00  0.00    +0.000 N 
ATOM      4  H   UNL     1       1.442   7.392  20.605  0.00  0.00    +0.000 HD
ENDROOT
BRANCH   1   5
ATOM      5  C   UNL     1       0.487   9.625  19.691  0.00  0.00    +0.000 C 
BRANCH   5   6
ATOM      6  C   UNL     1       0.984  10.076  21.078  0.00  0.00    +0.000 C 
BRANCH   6   8
ATOM      7  O   UNL     1       0.366   9.834  23.418  0.00  0.00    +0.000 OA
ATOM      8  C   UNL     1       0.273   9.465  22.259  0.00  0.00    +0.000 C 
BRANCH   8   9
ATOM      9  O   UNL     1      -0.513   8.424  21.895  0.00  0.00    +0.000 OA
ATOM     10  H   UNL     1      -0.418   7.640  22.473  0.00  0.00    +0.000 HD
ENDBRANCH   8   9
ENDBRANCH   6   8
ENDBRANCH   5   6
BRANCH   5  11
ATOM     11  C   UNL     1       0.016  10.769  18.771  0.00  0.00    +0.000 C 
BRANCH  11  12
ATOM     12  C   UNL     1      -1.467  10.882  18.513  0.00  0.00    +0.000 A 
ATOM     13  C   UNL     1      -2.251  11.789  19.241  0.00  0.00    +0.000 A 
ATOM     14  C   UNL     1      -3.601  11.969  18.934  0.00  0.00    +0.000 A 
ATOM     15  C   UNL     1      -4.179  11.234  17.903  0.00  0.00    +0.000 A 
ATOM     16 CL   UNL     1      -5.834  11.482  17.501  0.00  0.00    +0.000 Cl
ATOM     17  C   UNL     1      -3.420  10.316  17.181  0.00  0.00    +0.000 A 
ATOM     18  C   UNL     1      -2.067  10.141  17.484  0.00  0.00    +0.000 A 
ENDBRANCH  11  12
ENDBRANCH   5  11
ENDBRANCH   1   5
BRANCH   3  19
ATOM     19  C   UNL     1       2.962   6.722  19.258  0.00  0.00    +0.000 C 
BRANCH  19  20
ATOM     20  C   UNL     1       2.594   5.228  19.386  0.00  0.00    +0.000 C 
ATOM     21  C   UNL     1       1.969   4.690  18.072  0.00  0.00    +0.000 C 
ATOM     22  C   UNL     1       1.619   3.199  18.204  0.00  0.00    +0.000 C 
ATOM     23  C   UNL     1       2.897   2.400  18.502  0.00  0.00    +0.000 C 
ATOM     24  C   UNL     1       3.528   2.894  19.814  0.00  0.00    +0.000 C 
ATOM     25  C   UNL     1       2.523   2.700  20.961  0.00  0.00    +0.000 C 
ATOM     26  C   UNL     1       1.245   3.504  20.678  0.00  0.00    +0.000 C 
ATOM     27  C   UNL     1       0.620   3.021  19.359  0.00  0.00    +0.000 C 
ATOM     28  C   UNL     1       1.600   4.997  20.552  0.00  0.00    +0.000 C 
ATOM     29  C   UNL     1       3.871   4.391  19.683  0.00  0.00    +0.000 C 
ENDBRANCH  19  20
ENDBRANCH   3  19
TORSDOF 8
ENDMDL
MODEL 5
REMARK VINA RESULT:      -8.4      5.992      7.885
REMARK  Name = 
REMARK  8 active torsions:
REMARK  status: ('A' for Active; 'I' for Inactive)
REMARK    1  A    between atoms: C_2  and  O_3
REMARK    2  A    between atoms: C_2  and  C_4
REMARK    3  A    between atoms: C_4  and  C_5
REMARK    4  A    between atoms: C_5  and  C_6
REMARK    5  A    between atoms: C_5  and  C_14
REMARK    6  A    between atoms: C_6  and  C_7
REMARK    7  A    between atoms: N_16  and  C_17
REMARK    8  A    between atoms: C_17  and  C_18
REMARK                            x       y       z     vdW  Elec       q    Type
REMARK                         _______ _______ _______ _____ _____    ______ ____
ROOT
ATOM      1  C   UNL     1       5.865   6.799  17.370  0.00  0.00    +0.000 C 
ATOM      2  O   UNL     1       5.754   6.864  16.149  0.00  0.00    +0.000 OA
ATOM      3  N   UNL     1       4.887   6.228  18.156  0.00  0.00    +0.000 N 
ATOM      4  H   UNL     1       4.998   6.223  19.162  0.00  0.00    +0.000 HD
ENDROOT
BRANCH   1   5
ATOM      5  C   UNL     1       7.115   7.292  18.109  0.00  0.00    +0.000 C 
BRANCH   5   6
ATOM      6  C   UNL     1       7.924   6.057  18.551  0.00  0.00    +0.000 C 
BRANCH   6   8
ATOM      7  O   UNL     1       8.062   4.468  16.715  0.00  0.00    +0.000 OA
ATOM      8  C   UNL     1       7.623   4.779  17.810  0.00  0.00    +0.000 C 
BRANCH   8   9
ATOM      9  O   UNL     1       6.785   3.974  18.506  0.00  0.00    +0.000 OA
ATOM     10  H   UNL     1       7.002   3.023  18.432  0.00  0.00    +0.000 HD
ENDBRANCH   8   9
ENDBRANCH   6   8
ENDBRANCH   5   6
BRANCH   5  11
ATOM     11  C   UNL     1       7.916   8.335  17.304  0.00  0.00    +0.000 C 
BRANCH  11  12
ATOM     12  C   UNL     1       8.399   9.558  18.045  0.00  0.00    +0.000 A 
ATOM     13  C   UNL     1       9.042   9.434  19.285  0.00  0.00    +0.000 A 
ATOM     14  C   UNL     1       9.580  10.553  19.922  0.00  0.00    +0.000 A 
ATOM     15  C   UNL     1       9.469  11.807  19.329  0.00  0.00    +0.000 A 
ATOM     16 CL   UNL     1      10.164  13.181  20.097  0.00  0.00    +0.000 Cl
ATOM     17  C   UNL     1       8.819  11.951  18.106  0.00  0.00    +0.000 A 
ATOM     18  C   UNL     1       8.285  10.830  17.465  0.00  0.00    +0.000 A 
ENDBRANCH  11  12
ENDBRANCH   5  11
ENDBRANCH   1   5
BRANCH   3  19
ATOM     19  C   UNL     1       3.647   5.734  17.578  0.00  0.00    +0.000 C 
BRANCH  19  20
ATOM     20  C   UNL     1       2.953   4.633  18.410  0.00  0.00    +0.000 C 
ATOM     21  C   UNL     1       3.756   3.308  18.368  0.00  0.00    +0.000 C 
ATOM     22  C   UNL     1       3.065   2.223  19.211  0.00  0.00    +0.000 C 
ATOM     23  C   UNL     1       2.972   2.694  20.670  0.00  0.00    +0.000 C 
ATOM     24  C   UNL     1       2.159   3.996  20.749  0.00  0.00    +0.000 C 
ATOM     25  C   UNL     1       0.745   3.741  20.201  0.00  0.00    +0.000 C 
ATOM     26  C   UNL     1       0.826   3.280  18.737  0.00  0.00    +0.000 C 
ATOM     27  C   UNL     1       1.651   1.985  18.656  0.00  0.00    +0.000 C 
ATOM     28  C   UNL     1       1.514   4.371  17.897  0.00  0.00    +0.000 C 
ATOM     29  C   UNL     1       2.849   5.080  19.897  0.00  0.00    +0.000 C 
ENDBRANCH  19  20
ENDBRANCH   3  19
TORSDOF 8
ENDMDL
MODEL 6
REMARK VINA RESULT:      -8.4      0.485      1.213
REMARK  Name = 
REMARK  8 active torsions:
REMARK  status: ('A' for Active; 'I' for Inactive)
REMARK    1  A    between atoms: C_2  and  O_3
REMARK    2  A    between atoms: C_2  and  C_4
REMARK    3  A    between atoms: C_4  and  C_5
REMARK    4  A    between atoms: C_5  and  C_6
REMARK    5  A    between atoms: C_5  and  C_14
REMARK    6  A    between atoms: C_6  and  C_7
REMARK    7  A    between atoms: N_16  and  C_17
REMARK    8  A    between atoms: C_17  and  C_18
REMARK                            x       y       z     vdW  Elec       q    Type
REMARK                         _______ _______ _______ _____ _____    ______ ____
ROOT
ATOM      1  C   UNL     1       1.556   8.707  19.074  0.00  0.00    +0.000 C 
ATOM      2  O   UNL     1       2.154   9.105  18.079  0.00  0.00    +0.000 OA
ATOM      3  N   UNL     1       1.861   7.500  19.668  0.00  0.00    +0.000 N 
ATOM      4  H   UNL     1       1.323   7.189  20.467  0.00  0.00    +0.000 HD
ENDROOT
BRANCH   1   5
ATOM      5  C   UNL     1       0.468   9.537  19.766  0.00  0.00    +0.000 C 
BRANCH   5   6
ATOM      6  C   UNL     1       0.951   9.858  21.194  0.00  0.00    +0.000 C 
BRANCH   6   8
ATOM      7  O   UNL     1      -0.750   8.432  22.186  0.00  0.00    +0.000 OA
ATOM      8  C   UNL     1       0.130   9.267  22.311  0.00  0.00    +0.000 C 
BRANCH   8   9
ATOM      9  O   UNL     1       0.479   9.771  23.519  0.00  0.00    +0.000 OA
ATOM     10  H   UNL     1      -0.010   9.372  24.267  0.00  0.00    +0.000 HD
ENDBRANCH   8   9
ENDBRANCH   6   8
ENDBRANCH   5   6
BRANCH   5  11
ATOM     11  C   UNL     1       0.034  10.765  18.939  0.00  0.00    +0.000 C 
BRANCH  11  12
ATOM     12  C   UNL     1      -1.435  10.895  18.615  0.00  0.00    +0.000 A 
ATOM     13  C   UNL     1      -2.249  11.782  19.334  0.00  0.00    +0.000 A 
ATOM     14  C   UNL     1      -3.581  11.980  18.969  0.00  0.00    +0.000 A 
ATOM     15  C   UNL     1      -4.112  11.283  17.887  0.00  0.00    +0.000 A 
ATOM     16 CL   UNL     1      -5.745  11.553  17.415  0.00  0.00    +0.000 Cl
ATOM     17  C   UNL     1      -3.323  10.385  17.173  0.00  0.00    +0.000 A 
ATOM     18  C   UNL     1      -1.988  10.191  17.535  0.00  0.00    +0.000 A 
ENDBRANCH  11  12
ENDBRANCH   5  11
ENDBRANCH   1   5
BRANCH   3  19
ATOM     19  C   UNL     1       2.865   6.612  19.102  0.00  0.00    +0.000 C 
BRANCH  19  20
ATOM     20  C   UNL     1       2.589   5.111  19.336  0.00  0.00    +0.000 C 
ATOM     21  C   UNL     1       1.623   4.898  20.529  0.00  0.00    +0.000 C 
ATOM     22  C   UNL     1       1.343   3.401  20.745  0.00  0.00    +0.000 C 
ATOM     23  C   UNL     1       0.697   2.816  19.481  0.00  0.00    +0.000 C 
ATOM     24  C   UNL     1       1.642   2.991  18.281  0.00  0.00    +0.000 C 
ATOM     25  C   UNL     1       2.962   2.257  18.569  0.00  0.00    +0.000 C 
ATOM     26  C   UNL     1       3.623   2.842  19.827  0.00  0.00    +0.000 C 
ATOM     27  C   UNL     1       2.672   2.680  21.025  0.00  0.00    +0.000 C 
ATOM     28  C   UNL     1       3.905   4.338  19.604  0.00  0.00    +0.000 C 
ATOM     29  C   UNL     1       1.928   4.491  18.072  0.00  0.00    +0.000 C 
ENDBRANCH  19  20
ENDBRANCH   3  19
TORSDOF 8
ENDMDL
MODEL 7
REMARK VINA RESULT:      -8.4      5.668      7.773
REMARK  Name = 
REMARK  8 active torsions:
REMARK  status: ('A' for Active; 'I' for Inactive)
REMARK    1  A    between atoms: C_2  and  O_3
REMARK    2  A    between atoms: C_2  and  C_4
REMARK    3  A    between atoms: C_4  and  C_5
REMARK    4  A    between atoms: C_5  and  C_6
REMARK    5  A    between atoms: C_5  and  C_14
REMARK    6  A    between atoms: C_6  and  C_7
REMARK    7  A    between atoms: N_16  and  C_17
REMARK    8  A    between atoms: C_17  and  C_18
REMARK                            x       y       z     vdW  Elec       q    Type
REMARK                         _______ _______ _______ _____ _____    ______ ____
ROOT
ATOM      1  C   UNL     1       5.782   6.641  17.366  0.00  0.00    +0.000 C 
ATOM      2  O   UNL     1       5.320   7.742  17.083  0.00  0.00    +0.000 OA
ATOM      3  N   UNL     1       4.974   5.600  17.773  0.00  0.00    +0.000 N 
ATOM      4  H   UNL     1       5.393   4.716  18.031  0.00  0.00    +0.000 HD
ENDROOT
BRANCH   1   5
ATOM      5  C   UNL     1       7.275   6.317  17.236  0.00  0.00    +0.000 C 
BRANCH   5   6
ATOM      6  C   UNL     1       7.943   6.608  18.594  0.00  0.00    +0.000 C 
BRANCH   6   8
ATOM      7  O   UNL     1       6.618   5.131  19.999  0.00  0.00    +0.000 OA
ATOM      8  C   UNL     1       7.702   5.586  19.675  0.00  0.00    +0.000 C 
BRANCH   8   9
ATOM      9  O   UNL     1       8.854   5.203  20.278  0.00  0.00    +0.000 OA
ATOM     10  H   UNL     1       9.637   5.713  19.989  0.00  0.00    +0.000 HD
ENDBRANCH   8   9
ENDBRANCH   6   8
ENDBRANCH   5   6
BRANCH   5  11
ATOM     11  C   UNL     1       7.537   4.904  16.677  0.00  0.00    +0.000 C 
BRANCH  11  12
ATOM     12  C   UNL     1       6.869   4.543  15.372  0.00  0.00    +0.000 A 
ATOM     13  C   UNL     1       7.433   4.936  14.150  0.00  0.00    +0.000 A 
ATOM     14  C   UNL     1       6.875   4.515  12.941  0.00  0.00    +0.000 A 
ATOM     15  C   UNL     1       5.740   3.709  12.947  0.00  0.00    +0.000 A 
ATOM     16 CL   UNL     1       5.073   3.162  11.459  0.00  0.00    +0.000 Cl
ATOM     17  C   UNL     1       5.157   3.325  14.152  0.00  0.00    +0.000 A 
ATOM     18  C   UNL     1       5.719   3.740  15.362  0.00  0.00    +0.000 A 
ENDBRANCH  11  12
ENDBRANCH   5  11
ENDBRANCH   1   5
BRANCH   3  19
ATOM     19  C   UNL     1       3.541   5.781  17.949  0.00  0.00    +0.000 C 
BRANCH  19  20
ATOM     20  C   UNL     1       2.852   4.655  18.750  0.00  0.00    +0.000 C 
ATOM     21  C   UNL     1       1.584   4.143  18.020  0.00  0.00    +0.000 C 
ATOM     22  C   UNL     1       0.913   3.012  18.818  0.00  0.00    +0.000 C 
ATOM     23  C   UNL     1       1.898   1.843  18.971  0.00  0.00    +0.000 C 
ATOM     24  C   UNL     1       3.158   2.314  19.714  0.00  0.00    +0.000 C 
ATOM     25  C   UNL     1       2.759   2.832  21.104  0.00  0.00    +0.000 C 
ATOM     26  C   UNL     1       1.782   4.010  20.963  0.00  0.00    +0.000 C 
ATOM     27  C   UNL     1       0.527   3.544  20.208  0.00  0.00    +0.000 C 
ATOM     28  C   UNL     1       2.460   5.141  20.169  0.00  0.00    +0.000 C 
ATOM     29  C   UNL     1       3.825   3.453  18.916  0.00  0.00    +0.000 C 
ENDBRANCH  19  20
ENDBRANCH   3  19
TORSDOF 8
ENDMDL
MODEL 8
REMARK VINA RESULT:      -8.3      5.627      7.799
REMARK  Name = 
REMARK  8 active torsions:
REMARK  status: ('A' for Active; 'I' for Inactive)
REMARK    1  A    between atoms: C_2  and  O_3
REMARK    2  A    between atoms: C_2  and  C_4
REMARK    3  A    between atoms: C_4  and  C_5
REMARK    4  A    between atoms: C_5  and  C_6
REMARK    5  A    between atoms: C_5  and  C_14
REMARK    6  A    between atoms: C_6  and  C_7
REMARK    7  A    between atoms: N_16  and  C_17
REMARK    8  A    between atoms: C_17  and  C_18
REMARK                            x       y       z     vdW  Elec       q    Type
REMARK                         _______ _______ _______ _____ _____    ______ ____
ROOT
ATOM      1  C   UNL     1       5.621   6.594  16.918  0.00  0.00    +0.000 C 
ATOM      2  O   UNL     1       5.053   7.298  16.088  0.00  0.00    +0.000 OA
ATOM      3  N   UNL     1       4.916   5.860  17.848  0.00  0.00    +0.000 N 
ATOM      4  H   UNL     1       5.419   5.317  18.538  0.00  0.00    +0.000 HD
ENDROOT
BRANCH   1   5
ATOM      5  C   UNL     1       7.145   6.431  16.952  0.00  0.00    +0.000 C 
BRANCH   5   6
ATOM      6  C   UNL     1       7.630   6.800  18.368  0.00  0.00    +0.000 C 
BRANCH   6   8
ATOM      7  O   UNL     1       8.836   5.025  19.512  0.00  0.00    +0.000 OA
ATOM      8  C   UNL     1       7.803   5.646  19.322  0.00  0.00    +0.000 C 
BRANCH   8   9
ATOM      9  O   UNL     1       6.654   5.351  19.977  0.00  0.00    +0.000 OA
ATOM     10  H   UNL     1       6.048   4.778  19.467  0.00  0.00    +0.000 HD
ENDBRANCH   8   9
ENDBRANCH   6   8
ENDBRANCH   5   6
BRANCH   5  11
ATOM     11  C   UNL     1       7.612   5.051  16.448  0.00  0.00    +0.000 C 
BRANCH  11  12
ATOM     12  C   UNL     1       6.960   4.516  15.196  0.00  0.00    +0.000 A 
ATOM     13  C   UNL     1       5.807   3.721  15.277  0.00  0.00    +0.000 A 
ATOM     14  C   UNL     1       5.144   3.311  14.119  0.00  0.00    +0.000 A 
ATOM     15  C   UNL     1       5.636   3.683  12.871  0.00  0.00    +0.000 A 
ATOM     16 CL   UNL     1       4.799   3.208  11.445  0.00  0.00    +0.000 Cl
ATOM     17  C   UNL     1       6.790   4.457  12.773  0.00  0.00    +0.000 A 
ATOM     18  C   UNL     1       7.451   4.873  13.932  0.00  0.00    +0.000 A 
ENDBRANCH  11  12
ENDBRANCH   5  11
ENDBRANCH   1   5
BRANCH   3  19
ATOM     19  C   UNL     1       3.465   5.937  17.928  0.00  0.00    +0.000 C 
BRANCH  19  20
ATOM     20  C   UNL     1       2.808   4.765  18.689  0.00  0.00    +0.000 C 
ATOM     21  C   UNL     1       1.551   4.247  17.944  0.00  0.00    +0.000 C 
ATOM     22  C   UNL     1       0.912   3.071  18.701  0.00  0.00    +0.000 C 
ATOM     23  C   UNL     1       1.927   1.922  18.807  0.00  0.00    +0.000 C 
ATOM     24  C   UNL     1       3.178   2.398  19.564  0.00  0.00    +0.000 C 
ATOM     25  C   UNL     1       2.770   2.854  20.974  0.00  0.00    +0.000 C 
ATOM     26  C   UNL     1       1.763   4.011  20.879  0.00  0.00    +0.000 C 
ATOM     27  C   UNL     1       0.517   3.540  20.111  0.00  0.00    +0.000 C 
ATOM     28  C   UNL     1       2.408   5.187  20.126  0.00  0.00    +0.000 C 
ATOM     29  C   UNL     1       3.812   3.582  18.808  0.00  0.00    +0.000 C 
ENDBRANCH  19  20
ENDBRANCH   3  19
TORSDOF 8
ENDMDL
MODEL 9
REMARK VINA RESULT:      -8.3      5.614      7.858
REMARK  Name = 
REMARK  8 active torsions:
REMARK  status: ('A' for Active; 'I' for Inactive)
REMARK    1  A    between atoms: C_2  and  O_3
REMARK    2  A    between atoms: C_2  and  C_4
REMARK    3  A    between atoms: C_4  and  C_5
REMARK    4  A    between atoms: C_5  and  C_6
REMARK    5  A    between atoms: C_5  and  C_14
REMARK    6  A    between atoms: C_6  and  C_7
REMARK    7  A    between atoms: N_16  and  C_17
REMARK    8  A    between atoms: C_17  and  C_18
REMARK                            x       y       z     vdW  Elec       q    Type
REMARK                         _______ _______ _______ _____ _____    ______ ____
ROOT
ATOM      1  C   UNL     1       5.537   6.624  17.197  0.00  0.00    +0.000 C 
ATOM      2  O   UNL     1       4.793   7.126  16.360  0.00  0.00    +0.000 OA
ATOM      3  N   UNL     1       5.051   6.097  18.375  0.00  0.00    +0.000 N 
ATOM      4  H   UNL     1       5.699   5.722  19.056  0.00  0.00    +0.000 HD
ENDROOT
BRANCH   1   5
ATOM      5  C   UNL     1       7.049   6.491  16.977  0.00  0.00    +0.000 C 
BRANCH   5   6
ATOM      6  C   UNL     1       7.760   7.032  18.234  0.00  0.00    +0.000 C 
BRANCH   6   8
ATOM      7  O   UNL     1       7.868   9.282  17.320  0.00  0.00    +0.000 OA
ATOM      8  C   UNL     1       8.200   8.472  18.169  0.00  0.00    +0.000 C 
BRANCH   8   9
ATOM      9  O   UNL     1       9.034   8.795  19.187  0.00  0.00    +0.000 OA
ATOM     10  H   UNL     1       9.903   8.349  19.139  0.00  0.00    +0.000 HD
ENDBRANCH   8   9
ENDBRANCH   6   8
ENDBRANCH   5   6
BRANCH   5  11
ATOM     11  C   UNL     1       7.472   5.070  16.557  0.00  0.00    +0.000 C 
BRANCH  11  12
ATOM     12  C   UNL     1       6.858   4.511  15.296  0.00  0.00    +0.000 A 
ATOM     13  C   UNL     1       5.672   3.764  15.350  0.00  0.00    +0.000 A 
ATOM     14  C   UNL     1       5.049   3.334  14.177  0.00  0.00    +0.000 A 
ATOM     15  C   UNL     1       5.613   3.639  12.942  0.00  0.00    +0.000 A 
ATOM     16 CL   UNL     1       4.825   3.141  11.496  0.00  0.00    +0.000 Cl
ATOM     17  C   UNL     1       6.800   4.365  12.871  0.00  0.00    +0.000 A 
ATOM     18  C   UNL     1       7.421   4.800  14.044  0.00  0.00    +0.000 A 
ENDBRANCH  11  12
ENDBRANCH   5  11
ENDBRANCH   1   5
BRANCH   3  19
ATOM     19  C   UNL     1       3.637   6.172  18.709  0.00  0.00    +0.000 C 
BRANCH  19  20
ATOM     20  C   UNL     1       3.012   4.824  19.129  0.00  0.00    +0.000 C 
ATOM     21  C   UNL     1       4.106   3.795  19.517  0.00  0.00    +0.000 C 
ATOM     22  C   UNL     1       3.474   2.461  19.947  0.00  0.00    +0.000 C 
ATOM     23  C   UNL     1       2.567   2.696  21.165  0.00  0.00    +0.000 C 
ATOM     24  C   UNL     1       1.455   3.695  20.804  0.00  0.00    +0.000 C 
ATOM     25  C   UNL     1       0.621   3.124  19.647  0.00  0.00    +0.000 C 
ATOM     26  C   UNL     1       1.517   2.895  18.419  0.00  0.00    +0.000 C 
ATOM     27  C   UNL     1       2.637   1.907  18.782  0.00  0.00    +0.000 C 
ATOM     28  C   UNL     1       2.143   4.234  17.989  0.00  0.00    +0.000 C 
ATOM     29  C   UNL     1       2.091   5.029  20.365  0.00  0.00    +0.000 C 
ENDBRANCH  19  20
ENDBRANCH   3  19
TORSDOF 8
ENDMDL
