MODEL 1
REMARK VINA RESULT:      -7.2      0.000      0.000
REMARK  Name = 
REMARK  8 active torsions:
REMARK  status: ('A' for Active; 'I' for Inactive)
REMARK    1  A    between atoms: C_1  and  O_2
REMARK    2  A    between atoms: O_2  and  C_3
REMARK    3  A    between atoms: C_6  and  C_7
REMARK    4  A    between atoms: C_7  and  C_8
REMARK    5  A    between atoms: C_7  and  N_9
REMARK    6  A    between atoms: C_10  and  C_12
REMARK    7  A    between atoms: C_20  and  O_21
REMARK    8  A    between atoms: O_21  and  C_22
REMARK                            x       y       z     vdW  Elec       q    Type
REMARK                         _______ _______ _______ _____ _____    ______ ____
ROOT
ATOM      1  C   UNL     1       2.838   6.282  19.726  0.00  0.00    +0.000 C 
ATOM      2  C   UNL     1       1.926   5.114  20.118  0.00  0.00    +0.000 C 
ENDROOT
BRANCH   1   6
ATOM      3  C   UNL     1       0.665  10.009  19.121  0.00  0.00    +0.000 A 
ATOM      4  C   UNL     1       1.474   9.460  18.113  0.00  0.00    +0.000 A 
ATOM      5  C   UNL     1       2.162   8.260  18.313  0.00  0.00    +0.000 A 
ATOM      6  C   UNL     1       2.100   7.598  19.544  0.00  0.00    +0.000 A 
ATOM      7  C   UNL     1       1.325   8.178  20.559  0.00  0.00    +0.000 A 
ATOM      8  C   UNL     1       0.621   9.380  20.372  0.00  0.00    +0.000 A 
BRANCH   3  10
ATOM      9  C   UNL     1      -1.370  10.985  18.402  0.00  0.00    +0.000 C 
ATOM     10  O   UNL     1      -0.050  11.157  18.914  0.00  0.00    +0.000 OA
ENDBRANCH   3  10
BRANCH   8  11
ATOM     11  O   UNL     1      -0.049   9.754  21.508  0.00  0.00    +0.000 OA
ATOM     12  C   UNL     1       0.470   9.383  22.774  0.00  0.00    +0.000 C 
ENDBRANCH   8  11
ENDBRANCH   1   6
BRANCH   1  13
ATOM     13  N   UNL     1       3.586   5.968  18.519  0.00  0.00    +0.000 N 
ATOM     14  C   UNL     1       4.891   5.522  18.563  0.00  0.00    +0.000 C 
ATOM     15  O   UNL     1       5.502   5.390  19.620  0.00  0.00    +0.000 OA
ATOM     16  H   UNL     1       3.113   6.056  17.629  0.00  0.00    +0.000 HD
BRANCH  14  17
ATOM     17  C   UNL     1       5.554   5.144  17.279  0.00  0.00    +0.000 A 
ATOM     18  C   UNL     1       4.972   4.060  16.588  0.00  0.00    +0.000 A 
ATOM     19  C   UNL     1       5.498   3.603  15.378  0.00  0.00    +0.000 A 
ATOM     20  C   UNL     1       6.616   4.221  14.834  0.00  0.00    +0.000 A 
ATOM     21  C   UNL     1       7.211   5.289  15.504  0.00  0.00    +0.000 A 
ATOM     22  C   UNL     1       6.689   5.754  16.724  0.00  0.00    +0.000 A 
ATOM     23 CL   UNL     1       7.550   7.054  17.471  0.00  0.00    +0.000 Cl
ENDBRANCH  14  17
ENDBRANCH   1  13
TORSDOF 5
ENDMDL
MODEL 2
REMARK VINA RESULT:      -6.8      1.242      1.605
REMARK  Name = 
REMARK  8 active torsions:
REMARK  status: ('A' for Active; 'I' for Inactive)
REMARK    1  A    between atoms: C_1  and  O_2
REMARK    2  A    between atoms: O_2  and  C_3
REMARK    3  A    between atoms: C_6  and  C_7
REMARK    4  A    between atoms: C_7  and  C_8
REMARK    5  A    between atoms: C_7  and  N_9
REMARK    6  A    between atoms: C_10  and  C_12
REMARK    7  A    between atoms: C_20  and  O_21
REMARK    8  A    between atoms: O_21  and  C_22
REMARK                            x       y       z     vdW  Elec       q    Type
REMARK                         _______ _______ _______ _____ _____    ______ ____
ROOT
ATOM      1  C   UNL     1       2.763   6.399  19.831  0.00  0.00    +0.000 C 
ATOM      2  C   UNL     1       1.848   5.285  20.353  0.00  0.00    +0.000 C 
ENDROOT
BRANCH   1   6
ATOM      3  C   UNL     1       0.635  10.114  19.028  0.00  0.00    +0.000 A 
ATOM      4  C   UNL     1       1.395   9.476  18.035  0.00  0.00    +0.000 A 
ATOM      5  C   UNL     1       2.069   8.280  18.299  0.00  0.00    +0.000 A 
ATOM      6  C   UNL     1       2.042   7.713  19.577  0.00  0.00    +0.000 A 
ATOM      7  C   UNL     1       1.315   8.381  20.574  0.00  0.00    +0.000 A 
ATOM      8  C   UNL     1       0.626   9.580  20.323  0.00  0.00    +0.000 A 
BRANCH   3  10
ATOM      9  C   UNL     1      -1.367  11.076  18.202  0.00  0.00    +0.000 C 
ATOM     10  O   UNL     1      -0.068  11.258  18.761  0.00  0.00    +0.000 OA
ENDBRANCH   3  10
BRANCH   8  11
ATOM     11  O   UNL     1       0.005  10.051  21.450  0.00  0.00    +0.000 OA
ATOM     12  C   UNL     1       0.287   9.446  22.701  0.00  0.00    +0.000 C 
ENDBRANCH   8  11
ENDBRANCH   1   6
BRANCH   1  13
ATOM     13  N   UNL     1       3.449   5.975  18.621  0.00  0.00    +0.000 N 
ATOM     14  C   UNL     1       4.748   5.511  18.643  0.00  0.00    +0.000 C 
ATOM     15  O   UNL     1       5.406   5.452  19.678  0.00  0.00    +0.000 OA
ATOM     16  H   UNL     1       2.938   6.000  17.749  0.00  0.00    +0.000 HD
BRANCH  14  17
ATOM     17  C   UNL     1       5.346   5.018  17.365  0.00  0.00    +0.000 A 
ATOM     18  C   UNL     1       6.331   5.849  16.792  0.00  0.00    +0.000 A 
ATOM     19  C   UNL     1       6.965   5.506  15.595  0.00  0.00    +0.000 A 
ATOM     20  C   UNL     1       6.626   4.325  14.948  0.00  0.00    +0.000 A 
ATOM     21  C   UNL     1       5.649   3.493  15.494  0.00  0.00    +0.000 A 
ATOM     22  C   UNL     1       5.005   3.831  16.697  0.00  0.00    +0.000 A 
ATOM     23 CL   UNL     1       3.783   2.735  17.238  0.00  0.00    +0.000 Cl
ENDBRANCH  14  17
ENDBRANCH   1  13
TORSDOF 5
ENDMDL
MODEL 3
REMARK VINA RESULT:      -6.7      3.491      5.034
REMARK  Name = 
REMARK  8 active torsions:
REMARK  status: ('A' for Active; 'I' for Inactive)
REMARK    1  A    between atoms: C_1  and  O_2
REMARK    2  A    between atoms: O_2  and  C_3
REMARK    3  A    between atoms: C_6  and  C_7
REMARK    4  A    between atoms: C_7  and  C_8
REMARK    5  A    between atoms: C_7  and  N_9
REMARK    6  A    between atoms: C_10  and  C_12
REMARK    7  A    between atoms: C_20  and  O_21
REMARK    8  A    between atoms: O_21  and  C_22
REMARK                            x       y       z     vdW  Elec       q    Type
REMARK                         _______ _______ _______ _____ _____    ______ ____
ROOT
ATOM      1  C   UNL     1       6.017   6.881  17.112  0.00  0.00    +0.000 C 
ATOM      2  C   UNL     1       7.387   6.736  17.784  0.00  0.00    +0.000 C 
ENDROOT
BRANCH   1   6
ATOM      3  C   UNL     1       2.696   5.105  19.301  0.00  0.00    +0.000 A 
ATOM      4  C   UNL     1       2.535   6.283  18.555  0.00  0.00    +0.000 A 
ATOM      5  C   UNL     1       3.605   6.842  17.849  0.00  0.00    +0.000 A 
ATOM      6  C   UNL     1       4.878   6.267  17.908  0.00  0.00    +0.000 A 
ATOM      7  C   UNL     1       5.038   5.115  18.692  0.00  0.00    +0.000 A 
ATOM      8  C   UNL     1       3.972   4.536  19.402  0.00  0.00    +0.000 A 
BRANCH   3  10
ATOM      9  C   UNL     1       0.971   3.483  19.249  0.00  0.00    +0.000 C 
ATOM     10  O   UNL     1       1.641   4.526  19.953  0.00  0.00    +0.000 OA
ENDBRANCH   3  10
BRANCH   8  11
ATOM     11  O   UNL     1       4.375   3.431  20.106  0.00  0.00    +0.000 OA
ATOM     12  C   UNL     1       4.291   2.153  19.498  0.00  0.00    +0.000 C 
ENDBRANCH   8  11
ENDBRANCH   1   6
BRANCH   1  13
ATOM     13  N   UNL     1       6.039   6.315  15.773  0.00  0.00    +0.000 N 
ATOM     14  C   UNL     1       6.812   5.216  15.457  0.00  0.00    +0.000 C 
ATOM     15  O   UNL     1       7.542   4.671  16.279  0.00  0.00    +0.000 OA
ATOM     16  H   UNL     1       5.443   6.731  15.069  0.00  0.00    +0.000 HD
BRANCH  14  17
ATOM     17  C   UNL     1       6.709   4.651  14.077  0.00  0.00    +0.000 A 
ATOM     18  C   UNL     1       5.644   3.751  13.865  0.00  0.00    +0.000 A 
ATOM     19  C   UNL     1       5.439   3.148  12.622  0.00  0.00    +0.000 A 
ATOM     20  C   UNL     1       6.295   3.434  11.566  0.00  0.00    +0.000 A 
ATOM     21  C   UNL     1       7.358   4.315  11.757  0.00  0.00    +0.000 A 
ATOM     22  C   UNL     1       7.573   4.925  13.006  0.00  0.00    +0.000 A 
ATOM     23 CL   UNL     1       8.953   5.959  13.117  0.00  0.00    +0.000 Cl
ENDBRANCH  14  17
ENDBRANCH   1  13
TORSDOF 5
ENDMDL
MODEL 4
REMARK VINA RESULT:      -6.7      0.894      1.917
REMARK  Name = 
REMARK  8 active torsions:
REMARK  status: ('A' for Active; 'I' for Inactive)
REMARK    1  A    between atoms: C_1  and  O_2
REMARK    2  A    between atoms: O_2  and  C_3
REMARK    3  A    between atoms: C_6  and  C_7
REMARK    4  A    between atoms: C_7  and  C_8
REMARK    5  A    between atoms: C_7  and  N_9
REMARK    6  A    between atoms: C_10  and  C_12
REMARK    7  A    between atoms: C_20  and  O_21
REMARK    8  A    between atoms: O_21  and  C_22
REMARK                            x       y       z     vdW  Elec       q    Type
REMARK                         _______ _______ _______ _____ _____    ______ ____
ROOT
ATOM      1  C   UNL     1       2.770   5.743  19.891  0.00  0.00    +0.000 C 
ATOM      2  C   UNL     1       1.813   4.571  20.137  0.00  0.00    +0.000 C 
ENDROOT
BRANCH   1   6
ATOM      3  C   UNL     1       0.861   9.657  19.949  0.00  0.00    +0.000 A 
ATOM      4  C   UNL     1       0.690   8.743  21.000  0.00  0.00    +0.000 A 
ATOM      5  C   UNL     1       1.312   7.491  20.977  0.00  0.00    +0.000 A 
ATOM      6  C   UNL     1       2.084   7.099  19.879  0.00  0.00    +0.000 A 
ATOM      7  C   UNL     1       2.214   8.003  18.814  0.00  0.00    +0.000 A 
ATOM      8  C   UNL     1       1.601   9.268  18.825  0.00  0.00    +0.000 A 
BRANCH   3  10
ATOM      9  C   UNL     1      -1.039  10.997  19.497  0.00  0.00    +0.000 C 
ATOM     10  O   UNL     1       0.295  10.903  19.990  0.00  0.00    +0.000 OA
ENDBRANCH   3  10
BRANCH   8  11
ATOM     11  O   UNL     1       1.857   9.963  17.673  0.00  0.00    +0.000 OA
ATOM     12  C   UNL     1       2.405  11.268  17.757  0.00  0.00    +0.000 C 
ENDBRANCH   8  11
ENDBRANCH   1   6
BRANCH   1  13
ATOM     13  N   UNL     1       3.505   5.555  18.650  0.00  0.00    +0.000 N 
ATOM     14  C   UNL     1       4.868   5.344  18.633  0.00  0.00    +0.000 C 
ATOM     15  O   UNL     1       5.541   5.328  19.660  0.00  0.00    +0.000 OA
ATOM     16  H   UNL     1       2.984   5.551  17.783  0.00  0.00    +0.000 HD
BRANCH  14  17
ATOM     17  C   UNL     1       5.527   5.076  17.319  0.00  0.00    +0.000 A 
ATOM     18  C   UNL     1       4.912   4.093  16.516  0.00  0.00    +0.000 A 
ATOM     19  C   UNL     1       5.431   3.745  15.267  0.00  0.00    +0.000 A 
ATOM     20  C   UNL     1       6.575   4.375  14.795  0.00  0.00    +0.000 A 
ATOM     21  C   UNL     1       7.203   5.344  15.576  0.00  0.00    +0.000 A 
ATOM     22  C   UNL     1       6.688   5.700  16.835  0.00  0.00    +0.000 A 
ATOM     23 CL   UNL     1       7.589   6.882  17.717  0.00  0.00    +0.000 Cl
ENDBRANCH  14  17
ENDBRANCH   1  13
TORSDOF 5
ENDMDL
MODEL 5
REMARK VINA RESULT:      -6.7      2.595      7.188
REMARK  Name = 
REMARK  8 active torsions:
REMARK  status: ('A' for Active; 'I' for Inactive)
REMARK    1  A    between atoms: C_1  and  O_2
REMARK    2  A    between atoms: O_2  and  C_3
REMARK    3  A    between atoms: C_6  and  C_7
REMARK    4  A    between atoms: C_7  and  C_8
REMARK    5  A    between atoms: C_7  and  N_9
REMARK    6  A    between atoms: C_10  and  C_12
REMARK    7  A    between atoms: C_20  and  O_21
REMARK    8  A    between atoms: O_21  and  C_22
REMARK                            x       y       z     vdW  Elec       q    Type
REMARK                         _______ _______ _______ _____ _____    ______ ____
ROOT
ATOM      1  C   UNL     1       4.144   4.081  18.574  0.00  0.00    +0.000 C 
ATOM      2  C   UNL     1       4.720   3.151  19.648  0.00  0.00    +0.000 C 
ENDROOT
BRANCH   1   6
ATOM      3  C   UNL     1       6.892   5.093  15.350  0.00  0.00    +0.000 A 
ATOM      4  C   UNL     1       6.028   3.990  15.256  0.00  0.00    +0.000 A 
ATOM      5  C   UNL     1       5.144   3.677  16.293  0.00  0.00    +0.000 A 
ATOM      6  C   UNL     1       5.133   4.428  17.473  0.00  0.00    +0.000 A 
ATOM      7  C   UNL     1       6.030   5.501  17.573  0.00  0.00    +0.000 A 
ATOM      8  C   UNL     1       6.921   5.834  16.538  0.00  0.00    +0.000 A 
BRANCH   3  10
ATOM      9  C   UNL     1       7.409   4.866  13.049  0.00  0.00    +0.000 C 
ATOM     10  O   UNL     1       7.724   5.434  14.318  0.00  0.00    +0.000 OA
ENDBRANCH   3  10
BRANCH   8  11
ATOM     11  O   UNL     1       7.707   6.905  16.873  0.00  0.00    +0.000 OA
ATOM     12  C   UNL     1       7.943   7.192  18.241  0.00  0.00    +0.000 C 
ENDBRANCH   8  11
ENDBRANCH   1   6
BRANCH   1  13
ATOM     13  N   UNL     1       3.629   5.302  19.173  0.00  0.00    +0.000 N 
ATOM     14  C   UNL     1       2.457   5.889  18.741  0.00  0.00    +0.000 C 
ATOM     15  O   UNL     1       1.798   5.430  17.812  0.00  0.00    +0.000 OA
ATOM     16  H   UNL     1       4.139   5.705  19.947  0.00  0.00    +0.000 HD
BRANCH  14  17
ATOM     17  C   UNL     1       1.960   7.095  19.469  0.00  0.00    +0.000 A 
ATOM     18  C   UNL     1       1.507   6.869  20.786  0.00  0.00    +0.000 A 
ATOM     19  C   UNL     1       1.012   7.911  21.573  0.00  0.00    +0.000 A 
ATOM     20  C   UNL     1       0.960   9.200  21.060  0.00  0.00    +0.000 A 
ATOM     21  C   UNL     1       1.396   9.444  19.758  0.00  0.00    +0.000 A 
ATOM     22  C   UNL     1       1.895   8.401  18.958  0.00  0.00    +0.000 A 
ATOM     23 CL   UNL     1       2.358   8.833  17.350  0.00  0.00    +0.000 Cl
ENDBRANCH  14  17
ENDBRANCH   1  13
TORSDOF 5
ENDMDL
MODEL 6
REMARK VINA RESULT:      -6.6      2.829      4.964
REMARK  Name = 
REMARK  8 active torsions:
REMARK  status: ('A' for Active; 'I' for Inactive)
REMARK    1  A    between atoms: C_1  and  O_2
REMARK    2  A    between atoms: O_2  and  C_3
REMARK    3  A    between atoms: C_6  and  C_7
REMARK    4  A    between atoms: C_7  and  C_8
REMARK    5  A    between atoms: C_7  and  N_9
REMARK    6  A    between atoms: C_10  and  C_12
REMARK    7  A    between atoms: C_20  and  O_21
REMARK    8  A    between atoms: O_21  and  C_22
REMARK                            x       y       z     vdW  Elec       q    Type
REMARK                         _______ _______ _______ _____ _____    ______ ____
ROOT
ATOM      1  C   UNL     1       6.489   5.416  17.659  0.00  0.00    +0.000 C 
ATOM      2  C   UNL     1       7.759   5.113  18.463  0.00  0.00    +0.000 C 
ENDROOT
BRANCH   1   6
ATOM      3  C   UNL     1       2.868   4.341  19.829  0.00  0.00    +0.000 A 
ATOM      4  C   UNL     1       3.814   3.372  19.457  0.00  0.00    +0.000 A 
ATOM      5  C   UNL     1       4.978   3.728  18.768  0.00  0.00    +0.000 A 
ATOM      6  C   UNL     1       5.205   5.054  18.387  0.00  0.00    +0.000 A 
ATOM      7  C   UNL     1       4.232   6.006  18.724  0.00  0.00    +0.000 A 
ATOM      8  C   UNL     1       3.061   5.668  19.424  0.00  0.00    +0.000 A 
BRANCH   3  10
ATOM      9  C   UNL     1       1.956   3.097  21.627  0.00  0.00    +0.000 C 
ATOM     10  O   UNL     1       1.753   4.006  20.548  0.00  0.00    +0.000 OA
ENDBRANCH   3  10
BRANCH   8  11
ATOM     11  O   UNL     1       2.258   6.760  19.624  0.00  0.00    +0.000 OA
ATOM     12  C   UNL     1       2.309   7.837  18.702  0.00  0.00    +0.000 C 
ENDBRANCH   8  11
ENDBRANCH   1   6
BRANCH   1  13
ATOM     13  N   UNL     1       6.526   4.748  16.368  0.00  0.00    +0.000 N 
ATOM     14  C   UNL     1       6.082   5.363  15.215  0.00  0.00    +0.000 C 
ATOM     15  O   UNL     1       5.608   6.496  15.217  0.00  0.00    +0.000 OA
ATOM     16  H   UNL     1       6.919   3.817  16.324  0.00  0.00    +0.000 HD
BRANCH  14  17
ATOM     17  C   UNL     1       6.235   4.634  13.920  0.00  0.00    +0.000 A 
ATOM     18  C   UNL     1       5.209   3.716  13.612  0.00  0.00    +0.000 A 
ATOM     19  C   UNL     1       5.235   2.966  12.433  0.00  0.00    +0.000 A 
ATOM     20  C   UNL     1       6.287   3.119  11.540  0.00  0.00    +0.000 A 
ATOM     21  C   UNL     1       7.315   4.016  11.829  0.00  0.00    +0.000 A 
ATOM     22  C   UNL     1       7.298   4.774  13.014  0.00  0.00    +0.000 A 
ATOM     23 CL   UNL     1       8.655   5.812  13.269  0.00  0.00    +0.000 Cl
ENDBRANCH  14  17
ENDBRANCH   1  13
TORSDOF 5
ENDMDL
MODEL 7
REMARK VINA RESULT:      -6.5      3.592      5.215
REMARK  Name = 
REMARK  8 active torsions:
REMARK  status: ('A' for Active; 'I' for Inactive)
REMARK    1  A    between atoms: C_1  and  O_2
REMARK    2  A    between atoms: O_2  and  C_3
REMARK    3  A    between atoms: C_6  and  C_7
REMARK    4  A    between atoms: C_7  and  C_8
REMARK    5  A    between atoms: C_7  and  N_9
REMARK    6  A    between atoms: C_10  and  C_12
REMARK    7  A    between atoms: C_20  and  O_21
REMARK    8  A    between atoms: O_21  and  C_22
REMARK                            x       y       z     vdW  Elec       q    Type
REMARK                         _______ _______ _______ _____ _____    ______ ____
ROOT
ATOM      1  C   UNL     1       5.438   6.710  16.901  0.00  0.00    +0.000 C 
ATOM      2  C   UNL     1       6.766   6.693  17.668  0.00  0.00    +0.000 C 
ENDROOT
BRANCH   1   6
ATOM      3  C   UNL     1       2.136   4.698  18.907  0.00  0.00    +0.000 A 
ATOM      4  C   UNL     1       2.473   6.028  19.205  0.00  0.00    +0.000 A 
ATOM      5  C   UNL     1       3.530   6.669  18.550  0.00  0.00    +0.000 A 
ATOM      6  C   UNL     1       4.311   5.982  17.616  0.00  0.00    +0.000 A 
ATOM      7  C   UNL     1       3.994   4.641  17.358  0.00  0.00    +0.000 A 
ATOM      8  C   UNL     1       2.931   3.984  18.001  0.00  0.00    +0.000 A 
BRANCH   3  10
ATOM      9  C   UNL     1       1.308   3.563  20.815  0.00  0.00    +0.000 C 
ATOM     10  O   UNL     1       1.072   4.082  19.508  0.00  0.00    +0.000 OA
ENDBRANCH   3  10
BRANCH   8  11
ATOM     11  O   UNL     1       2.826   2.678  17.599  0.00  0.00    +0.000 OA
ATOM     12  C   UNL     1       3.485   1.668  18.345  0.00  0.00    +0.000 C 
ENDBRANCH   8  11
ENDBRANCH   1   6
BRANCH   1  13
ATOM     13  N   UNL     1       5.608   6.159  15.567  0.00  0.00    +0.000 N 
ATOM     14  C   UNL     1       6.564   5.204  15.287  0.00  0.00    +0.000 C 
ATOM     15  O   UNL     1       7.341   4.785  16.140  0.00  0.00    +0.000 OA
ATOM     16  H   UNL     1       4.981   6.472  14.838  0.00  0.00    +0.000 HD
BRANCH  14  17
ATOM     17  C   UNL     1       6.613   4.633  13.907  0.00  0.00    +0.000 A 
ATOM     18  C   UNL     1       5.586   3.720  13.588  0.00  0.00    +0.000 A 
ATOM     19  C   UNL     1       5.519   3.111  12.333  0.00  0.00    +0.000 A 
ATOM     20  C   UNL     1       6.477   3.404  11.371  0.00  0.00    +0.000 A 
ATOM     21  C   UNL     1       7.505   4.298  11.669  0.00  0.00    +0.000 A 
ATOM     22  C   UNL     1       7.581   4.915  12.930  0.00  0.00    +0.000 A 
ATOM     23 CL   UNL     1       8.929   5.966  13.181  0.00  0.00    +0.000 Cl
ENDBRANCH  14  17
ENDBRANCH   1  13
TORSDOF 5
ENDMDL
MODEL 8
REMARK VINA RESULT:      -6.5      4.643      7.881
REMARK  Name = 
REMARK  8 active torsions:
REMARK  status: ('A' for Active; 'I' for Inactive)
REMARK    1  A    between atoms: C_1  and  O_2
REMARK    2  A    between atoms: O_2  and  C_3
REMARK    3  A    between atoms: C_6  and  C_7
REMARK    4  A    between atoms: C_7  and  C_8
REMARK    5  A    between atoms: C_7  and  N_9
REMARK    6  A    between atoms: C_10  and  C_12
REMARK    7  A    between atoms: C_20  and  O_21
REMARK    8  A    between atoms: O_21  and  C_22
REMARK                            x       y       z     vdW  Elec       q    Type
REMARK                         _______ _______ _______ _____ _____    ______ ____
ROOT
ATOM      1  C   UNL     1       5.731   5.789  17.582  0.00  0.00    +0.000 C 
ATOM      2  C   UNL     1       5.667   7.321  17.551  0.00  0.00    +0.000 C 
ENDROOT
BRANCH   1   6
ATOM      3  C   UNL     1       6.342   4.022  13.649  0.00  0.00    +0.000 A 
ATOM      4  C   UNL     1       5.290   3.610  14.481  0.00  0.00    +0.000 A 
ATOM      5  C   UNL     1       5.096   4.188  15.740  0.00  0.00    +0.000 A 
ATOM      6  C   UNL     1       5.979   5.160  16.222  0.00  0.00    +0.000 A 
ATOM      7  C   UNL     1       7.052   5.533  15.400  0.00  0.00    +0.000 A 
ATOM      8  C   UNL     1       7.257   4.967  14.130  0.00  0.00    +0.000 A 
BRANCH   3  10
ATOM      9  C   UNL     1       5.363   2.857  11.834  0.00  0.00    +0.000 C 
ATOM     10  O   UNL     1       6.507   3.496  12.396  0.00  0.00    +0.000 OA
ENDBRANCH   3  10
BRANCH   8  11
ATOM     11  O   UNL     1       8.376   5.477  13.525  0.00  0.00    +0.000 OA
ATOM     12  C   UNL     1       8.268   6.039  12.227  0.00  0.00    +0.000 C 
ENDBRANCH   8  11
ENDBRANCH   1   6
BRANCH   1  13
ATOM     13  N   UNL     1       4.518   5.237  18.164  0.00  0.00    +0.000 N 
ATOM     14  C   UNL     1       4.550   4.191  19.065  0.00  0.00    +0.000 C 
ATOM     15  O   UNL     1       5.600   3.653  19.406  0.00  0.00    +0.000 OA
ATOM     16  H   UNL     1       3.634   5.660  17.916  0.00  0.00    +0.000 HD
BRANCH  14  17
ATOM     17  C   UNL     1       3.263   3.743  19.676  0.00  0.00    +0.000 A 
ATOM     18  C   UNL     1       3.361   3.194  20.971  0.00  0.00    +0.000 A 
ATOM     19  C   UNL     1       2.232   2.732  21.652  0.00  0.00    +0.000 A 
ATOM     20  C   UNL     1       0.983   2.811  21.052  0.00  0.00    +0.000 A 
ATOM     21  C   UNL     1       0.865   3.344  19.769  0.00  0.00    +0.000 A 
ATOM     22  C   UNL     1       1.996   3.810  19.075  0.00  0.00    +0.000 A 
ATOM     23 CL   UNL     1       1.714   4.403  17.476  0.00  0.00    +0.000 Cl
ENDBRANCH  14  17
ENDBRANCH   1  13
TORSDOF 5
ENDMDL
MODEL 9
REMARK VINA RESULT:      -6.4      3.471      7.484
REMARK  Name = 
REMARK  8 active torsions:
REMARK  status: ('A' for Active; 'I' for Inactive)
REMARK    1  A    between atoms: C_1  and  O_2
REMARK    2  A    between atoms: O_2  and  C_3
REMARK    3  A    between atoms: C_6  and  C_7
REMARK    4  A    between atoms: C_7  and  C_8
REMARK    5  A    between atoms: C_7  and  N_9
REMARK    6  A    between atoms: C_10  and  C_12
REMARK    7  A    between atoms: C_20  and  O_21
REMARK    8  A    between atoms: O_21  and  C_22
REMARK                            x       y       z     vdW  Elec       q    Type
REMARK                         _______ _______ _______ _____ _____    ______ ____
ROOT
ATOM      1  C   UNL     1       2.696   7.856  18.339  0.00  0.00    +0.000 C 
ATOM      2  C   UNL     1       3.665   7.806  17.152  0.00  0.00    +0.000 C 
ENDROOT
BRANCH   1   6
ATOM      3  C   UNL     1       1.536   3.973  19.935  0.00  0.00    +0.000 A 
ATOM      4  C   UNL     1       1.726   5.082  20.774  0.00  0.00    +0.000 A 
ATOM      5  C   UNL     1       2.091   6.327  20.252  0.00  0.00    +0.000 A 
ATOM      6  C   UNL     1       2.325   6.486  18.883  0.00  0.00    +0.000 A 
ATOM      7  C   UNL     1       2.175   5.361  18.059  0.00  0.00    +0.000 A 
ATOM      8  C   UNL     1       1.801   4.104  18.566  0.00  0.00    +0.000 A 
BRANCH   3  10
ATOM      9  C   UNL     1       1.570   2.456  21.755  0.00  0.00    +0.000 C 
ATOM     10  O   UNL     1       1.130   2.765  20.434  0.00  0.00    +0.000 OA
ENDBRANCH   3  10
BRANCH   8  11
ATOM     11  O   UNL     1       1.735   3.160  17.575  0.00  0.00    +0.000 OA
ATOM     12  C   UNL     1       2.719   2.140  17.522  0.00  0.00    +0.000 C 
ENDBRANCH   8  11
ENDBRANCH   1   6
BRANCH   1  13
ATOM     13  N   UNL     1       1.490   8.588  17.988  0.00  0.00    +0.000 N 
ATOM     14  C   UNL     1       0.913   9.500  18.847  0.00  0.00    +0.000 C 
ATOM     15  O   UNL     1       1.369   9.727  19.964  0.00  0.00    +0.000 OA
ATOM     16  H   UNL     1       1.090   8.435  17.072  0.00  0.00    +0.000 HD
BRANCH  14  17
ATOM     17  C   UNL     1      -0.277  10.267  18.370  0.00  0.00    +0.000 A 
ATOM     18  C   UNL     1      -1.097   9.602  17.434  0.00  0.00    +0.000 A 
ATOM     19  C   UNL     1      -2.238  10.211  16.905  0.00  0.00    +0.000 A 
ATOM     20  C   UNL     1      -2.582  11.496  17.303  0.00  0.00    +0.000 A 
ATOM     21  C   UNL     1      -1.782  12.173  18.222  0.00  0.00    +0.000 A 
ATOM     22  C   UNL     1      -0.631  11.569  18.758  0.00  0.00    +0.000 A 
ATOM     23 CL   UNL     1       0.295  12.536  19.851  0.00  0.00    +0.000 Cl
ENDBRANCH  14  17
ENDBRANCH   1  13
TORSDOF 5
ENDMDL
