MODEL 1
REMARK VINA RESULT:      -5.3      0.000      0.000
REMARK  Name = 
REMARK  0 active torsions:
REMARK  status: ('A' for Active; 'I' for Inactive)
REMARK                            x       y       z     vdW  Elec       q    Type
REMARK                         _______ _______ _______ _____ _____    ______ ____
ROOT
ATOM      1  C   UNL     1       2.193   6.908  20.135  0.00  0.00    +0.000 A 
ATOM      2  C   UNL     1       1.635   5.711  20.557  0.00  0.00    +0.000 A 
ATOM      3  C   UNL     1       1.651   4.618  19.687  0.00  0.00    +0.000 A 
ATOM      4  C   UNL     1       2.261   4.763  18.433  0.00  0.00    +0.000 A 
ATOM      5  C   UNL     1       2.781   6.013  18.103  0.00  0.00    +0.000 A 
ATOM      6  N   UNL     1       2.762   7.086  18.925  0.00  0.00    +0.000 NA
ATOM      7  C   UNL     1       2.312   3.639  17.434  0.00  0.00    +0.000 C 
ATOM      8  C   UNL     1       2.054   2.272  18.068  0.00  0.00    +0.000 C 
ATOM      9  C   UNL     1       0.831   2.332  18.975  0.00  0.00    +0.000 C 
ATOM     10  C   UNL     1       1.072   3.299  20.133  0.00  0.00    +0.000 C 
ENDROOT
TORSDOF 0
ENDMDL
MODEL 2
REMARK VINA RESULT:      -5.2      0.627      2.124
REMARK  Name = 
REMARK  0 active torsions:
REMARK  status: ('A' for Active; 'I' for Inactive)
REMARK                            x       y       z     vdW  Elec       q    Type
REMARK                         _______ _______ _______ _____ _____    ______ ____
ROOT
ATOM      1  C   UNL     1       2.613   7.180  18.891  0.00  0.00    +0.000 A 
ATOM      2  C   UNL     1       2.645   6.116  18.004  0.00  0.00    +0.000 A 
ATOM      3  C   UNL     1       2.182   4.870  18.432  0.00  0.00    +0.000 A 
ATOM      4  C   UNL     1       1.672   4.749  19.732  0.00  0.00    +0.000 A 
ATOM      5  C   UNL     1       1.697   5.879  20.547  0.00  0.00    +0.000 A 
ATOM      6  N   UNL     1       2.154   7.089  20.157  0.00  0.00    +0.000 NA
ATOM      7  C   UNL     1       1.163   3.441  20.273  0.00  0.00    +0.000 C 
ATOM      8  C   UNL     1       0.855   2.425  19.173  0.00  0.00    +0.000 C 
ATOM      9  C   UNL     1       2.006   2.357  18.176  0.00  0.00    +0.000 C 
ATOM     10  C   UNL     1       2.185   3.703  17.475  0.00  0.00    +0.000 C 
ENDROOT
TORSDOF 0
ENDMDL
MODEL 3
REMARK VINA RESULT:      -5.2      1.779      2.999
REMARK  Name = 
REMARK  0 active torsions:
REMARK  status: ('A' for Active; 'I' for Inactive)
REMARK                            x       y       z     vdW  Elec       q    Type
REMARK                         _______ _______ _______ _____ _____    ______ ____
ROOT
ATOM      1  C   UNL     1       4.823   4.424  17.147  0.00  0.00    +0.000 A 
ATOM      2  C   UNL     1       3.605   3.762  17.148  0.00  0.00    +0.000 A 
ATOM      3  C   UNL     1       2.808   3.821  18.293  0.00  0.00    +0.000 A 
ATOM      4  C   UNL     1       3.254   4.576  19.388  0.00  0.00    +0.000 A 
ATOM      5  C   UNL     1       4.499   5.192  19.287  0.00  0.00    +0.000 A 
ATOM      6  N   UNL     1       5.291   5.134  18.194  0.00  0.00    +0.000 NA
ATOM      7  C   UNL     1       2.460   4.682  20.662  0.00  0.00    +0.000 C 
ATOM      8  C   UNL     1       0.995   4.285  20.481  0.00  0.00    +0.000 C 
ATOM      9  C   UNL     1       0.893   2.971  19.715  0.00  0.00    +0.000 C 
ATOM     10  C   UNL     1       1.468   3.129  18.307  0.00  0.00    +0.000 C 
ENDROOT
TORSDOF 0
ENDMDL
MODEL 4
REMARK VINA RESULT:      -5.2      3.156      4.582
REMARK  Name = 
REMARK  0 active torsions:
REMARK  status: ('A' for Active; 'I' for Inactive)
REMARK                            x       y       z     vdW  Elec       q    Type
REMARK                         _______ _______ _______ _____ _____    ______ ____
ROOT
ATOM      1  C   UNL     1       6.916   4.623  15.563  0.00  0.00    +0.000 A 
ATOM      2  C   UNL     1       5.789   3.875  15.865  0.00  0.00    +0.000 A 
ATOM      3  C   UNL     1       4.800   4.444  16.671  0.00  0.00    +0.000 A 
ATOM      4  C   UNL     1       4.969   5.762  17.118  0.00  0.00    +0.000 A 
ATOM      5  C   UNL     1       6.145   6.420  16.767  0.00  0.00    +0.000 A 
ATOM      6  N   UNL     1       7.119   5.883  16.000  0.00  0.00    +0.000 NA
ATOM      7  C   UNL     1       3.957   6.444  17.998  0.00  0.00    +0.000 C 
ATOM      8  C   UNL     1       2.593   5.753  17.976  0.00  0.00    +0.000 C 
ATOM      9  C   UNL     1       2.759   4.249  18.156  0.00  0.00    +0.000 C 
ATOM     10  C   UNL     1       3.554   3.657  16.992  0.00  0.00    +0.000 C 
ENDROOT
TORSDOF 0
ENDMDL
MODEL 5
REMARK VINA RESULT:      -5.2      2.418      3.404
REMARK  Name = 
REMARK  0 active torsions:
REMARK  status: ('A' for Active; 'I' for Inactive)
REMARK                            x       y       z     vdW  Elec       q    Type
REMARK                         _______ _______ _______ _____ _____    ______ ____
ROOT
ATOM      1  C   UNL     1       1.352   2.938  21.596  0.00  0.00    +0.000 A 
ATOM      2  C   UNL     1       1.094   3.653  20.437  0.00  0.00    +0.000 A 
ATOM      3  C   UNL     1       2.132   3.850  19.523  0.00  0.00    +0.000 A 
ATOM      4  C   UNL     1       3.387   3.289  19.796  0.00  0.00    +0.000 A 
ATOM      5  C   UNL     1       3.543   2.599  20.997  0.00  0.00    +0.000 A 
ATOM      6  N   UNL     1       2.556   2.410  21.900  0.00  0.00    +0.000 NA
ATOM      7  C   UNL     1       4.560   3.464  18.870  0.00  0.00    +0.000 C 
ATOM      8  C   UNL     1       4.143   3.898  17.464  0.00  0.00    +0.000 C 
ATOM      9  C   UNL     1       3.148   5.050  17.539  0.00  0.00    +0.000 C 
ATOM     10  C   UNL     1       1.867   4.603  18.243  0.00  0.00    +0.000 C 
ENDROOT
TORSDOF 0
ENDMDL
MODEL 6
REMARK VINA RESULT:      -5.2      3.707      4.949
REMARK  Name = 
REMARK  0 active torsions:
REMARK  status: ('A' for Active; 'I' for Inactive)
REMARK                            x       y       z     vdW  Elec       q    Type
REMARK                         _______ _______ _______ _____ _____    ______ ____
ROOT
ATOM      1  C   UNL     1       6.644   4.861  14.844  0.00  0.00    +0.000 A 
ATOM      2  C   UNL     1       5.466   4.272  15.276  0.00  0.00    +0.000 A 
ATOM      3  C   UNL     1       5.112   4.386  16.622  0.00  0.00    +0.000 A 
ATOM      4  C   UNL     1       5.944   5.120  17.479  0.00  0.00    +0.000 A 
ATOM      5  C   UNL     1       7.111   5.661  16.945  0.00  0.00    +0.000 A 
ATOM      6  N   UNL     1       7.479   5.550  15.650  0.00  0.00    +0.000 NA
ATOM      7  C   UNL     1       5.640   5.282  18.944  0.00  0.00    +0.000 C 
ATOM      8  C   UNL     1       4.182   4.970  19.283  0.00  0.00    +0.000 C 
ATOM      9  C   UNL     1       3.755   3.660  18.632  0.00  0.00    +0.000 C 
ATOM     10  C   UNL     1       3.822   3.774  17.110  0.00  0.00    +0.000 C 
ENDROOT
TORSDOF 0
ENDMDL
MODEL 7
REMARK VINA RESULT:      -5.1      2.255      3.167
REMARK  Name = 
REMARK  0 active torsions:
REMARK  status: ('A' for Active; 'I' for Inactive)
REMARK                            x       y       z     vdW  Elec       q    Type
REMARK                         _______ _______ _______ _____ _____    ______ ____
ROOT
ATOM      1  C   UNL     1       5.065   4.416  17.489  0.00  0.00    +0.000 A 
ATOM      2  C   UNL     1       3.706   4.284  17.252  0.00  0.00    +0.000 A 
ATOM      3  C   UNL     1       2.892   3.779  18.268  0.00  0.00    +0.000 A 
ATOM      4  C   UNL     1       3.475   3.454  19.501  0.00  0.00    +0.000 A 
ATOM      5  C   UNL     1       4.852   3.612  19.630  0.00  0.00    +0.000 A 
ATOM      6  N   UNL     1       5.659   4.086  18.655  0.00  0.00    +0.000 NA
ATOM      7  C   UNL     1       2.670   2.894  20.643  0.00  0.00    +0.000 C 
ATOM      8  C   UNL     1       1.169   3.134  20.482  0.00  0.00    +0.000 C 
ATOM      9  C   UNL     1       0.720   2.759  19.075  0.00  0.00    +0.000 C 
ATOM     10  C   UNL     1       1.406   3.650  18.040  0.00  0.00    +0.000 C 
ENDROOT
TORSDOF 0
ENDMDL
MODEL 8
REMARK VINA RESULT:      -5.1      1.979      2.714
REMARK  Name = 
REMARK  0 active torsions:
REMARK  status: ('A' for Active; 'I' for Inactive)
REMARK                            x       y       z     vdW  Elec       q    Type
REMARK                         _______ _______ _______ _____ _____    ______ ____
ROOT
ATOM      1  C   UNL     1       5.311   4.830  18.133  0.00  0.00    +0.000 A 
ATOM      2  C   UNL     1       4.601   5.000  19.311  0.00  0.00    +0.000 A 
ATOM      3  C   UNL     1       3.313   4.466  19.403  0.00  0.00    +0.000 A 
ATOM      4  C   UNL     1       2.800   3.750  18.312  0.00  0.00    +0.000 A 
ATOM      5  C   UNL     1       3.592   3.650  17.171  0.00  0.00    +0.000 A 
ATOM      6  N   UNL     1       4.833   4.171  17.057  0.00  0.00    +0.000 NA
ATOM      7  C   UNL     1       1.419   3.153  18.326  0.00  0.00    +0.000 C 
ATOM      8  C   UNL     1       0.846   3.020  19.738  0.00  0.00    +0.000 C 
ATOM      9  C   UNL     1       1.043   4.318  20.513  0.00  0.00    +0.000 C 
ATOM     10  C   UNL     1       2.532   4.616  20.684  0.00  0.00    +0.000 C 
ENDROOT
TORSDOF 0
ENDMDL
MODEL 9
REMARK VINA RESULT:      -5.1      1.960      2.772
REMARK  Name = 
REMARK  0 active torsions:
REMARK  status: ('A' for Active; 'I' for Inactive)
REMARK                            x       y       z     vdW  Elec       q    Type
REMARK                         _______ _______ _______ _____ _____    ______ ____
ROOT
ATOM      1  C   UNL     1       3.724   5.304  17.478  0.00  0.00    +0.000 A 
ATOM      2  C   UNL     1       2.532   5.249  18.182  0.00  0.00    +0.000 A 
ATOM      3  C   UNL     1       2.414   4.341  19.237  0.00  0.00    +0.000 A 
ATOM      4  C   UNL     1       3.518   3.541  19.564  0.00  0.00    +0.000 A 
ATOM      5  C   UNL     1       4.665   3.665  18.784  0.00  0.00    +0.000 A 
ATOM      6  N   UNL     1       4.793   4.528  17.752  0.00  0.00    +0.000 NA
ATOM      7  C   UNL     1       3.470   2.530  20.678  0.00  0.00    +0.000 C 
ATOM      8  C   UNL     1       2.317   2.777  21.651  0.00  0.00    +0.000 C 
ATOM      9  C   UNL     1       1.021   3.019  20.887  0.00  0.00    +0.000 C 
ATOM     10  C   UNL     1       1.134   4.282  20.033  0.00  0.00    +0.000 C 
ENDROOT
TORSDOF 0
ENDMDL
