MODEL 1
REMARK VINA RESULT:      -8.0      0.000      0.000
REMARK  Name = 
REMARK  5 active torsions:
REMARK  status: ('A' for Active; 'I' for Inactive)
REMARK    1  A    between atoms: C_1  and  O_2
REMARK    2  A    between atoms: O_2  and  C_3
REMARK    3  A    between atoms: C_6  and  C_7
REMARK    4  A    between atoms: C_13  and  C_14
REMARK    5  A    between atoms: C_17  and  C_18
REMARK                            x       y       z     vdW  Elec       q    Type
REMARK                         _______ _______ _______ _____ _____    ______ ____
ROOT
ATOM      1  C   UNL     1       1.744   7.479  19.846  0.00  0.00    +0.000 A 
ATOM      2  C   UNL     1       2.377   8.279  18.883  0.00  0.00    +0.000 A 
ATOM      3  C   UNL     1       3.370   7.764  18.042  0.00  0.00    +0.000 A 
ATOM      4  C   UNL     1       3.790   6.424  18.141  0.00  0.00    +0.000 A 
ATOM      5  C   UNL     1       3.157   5.602  19.086  0.00  0.00    +0.000 A 
ATOM      6  N   UNL     1       3.313   4.270  19.390  0.00  0.00    +0.000 NA
ATOM      7  C   UNL     1       2.446   4.045  20.366  0.00  0.00    +0.000 A 
ATOM      8  O   UNL     1       1.724   5.160  20.732  0.00  0.00    +0.000 OA
ATOM      9  C   UNL     1       2.177   6.151  19.901  0.00  0.00    +0.000 A 
ENDROOT
BRANCH   4  10
ATOM     10  C   UNL     1       4.875   5.925  17.250  0.00  0.00    +0.000 C 
ATOM     11  N   UNL     1       4.860   6.345  16.022  0.00  0.00    +0.000 NA
ATOM     12  N   UNL     1       5.810   5.933  15.162  0.00  0.00    +0.000 N 
ATOM     13  C   UNL     1       6.833   5.073  15.411  0.00  0.00    +0.000 C 
ATOM     14  O   UNL     1       7.626   4.769  14.526  0.00  0.00    +0.000 OA
ATOM     15  C   UNL     1       6.960   4.515  16.793  0.00  0.00    +0.000 C 
ATOM     16  C   UNL     1       5.939   4.994  17.819  0.00  0.00    +0.000 C 
ATOM     17  C   UNL     1       6.661   5.654  19.002  0.00  0.00    +0.000 C 
ATOM     18  H   UNL     1       5.736   6.277  14.211  0.00  0.00    +0.000 HD
ENDBRANCH   4  10
BRANCH   7  19
ATOM     19  C   UNL     1       2.146   2.769  21.088  0.00  0.00    +0.000 C 
ATOM     20  F   UNL     1       3.222   2.305  21.783  0.00  0.00    +0.000 F 
ATOM     21  F   UNL     1       1.140   2.910  21.993  0.00  0.00    +0.000 F 
ATOM     22  F   UNL     1       1.778   1.771  20.241  0.00  0.00    +0.000 F 
ENDBRANCH   7  19
BRANCH   1  24
ATOM     23  C   UNL     1       1.253   8.782  21.750  0.00  0.00    +0.000 C 
ATOM     24  O   UNL     1       0.790   7.911  20.722  0.00  0.00    +0.000 OA
ENDBRANCH   1  24
TORSDOF 3
ENDMDL
MODEL 2
REMARK VINA RESULT:      -7.9      3.947      7.048
REMARK  Name = 
REMARK  5 active torsions:
REMARK  status: ('A' for Active; 'I' for Inactive)
REMARK    1  A    between atoms: C_1  and  O_2
REMARK    2  A    between atoms: O_2  and  C_3
REMARK    3  A    between atoms: C_6  and  C_7
REMARK    4  A    between atoms: C_13  and  C_14
REMARK    5  A    between atoms: C_17  and  C_18
REMARK                            x       y       z     vdW  Elec       q    Type
REMARK                         _______ _______ _______ _____ _____    ______ ____
ROOT
ATOM      1  C   UNL     1       6.593   4.728  14.720  0.00  0.00    +0.000 A 
ATOM      2  C   UNL     1       5.662   3.679  14.780  0.00  0.00    +0.000 A 
ATOM      3  C   UNL     1       4.914   3.431  15.936  0.00  0.00    +0.000 A 
ATOM      4  C   UNL     1       5.078   4.212  17.096  0.00  0.00    +0.000 A 
ATOM      5  C   UNL     1       5.991   5.276  17.050  0.00  0.00    +0.000 A 
ATOM      6  N   UNL     1       6.340   6.222  17.986  0.00  0.00    +0.000 NA
ATOM      7  C   UNL     1       7.251   6.970  17.382  0.00  0.00    +0.000 A 
ATOM      8  O   UNL     1       7.532   6.569  16.095  0.00  0.00    +0.000 OA
ATOM      9  C   UNL     1       6.714   5.489  15.885  0.00  0.00    +0.000 A 
ENDROOT
BRANCH   4  10
ATOM     10  C   UNL     1       4.287   3.891  18.317  0.00  0.00    +0.000 C 
ATOM     11  N   UNL     1       4.917   3.286  19.277  0.00  0.00    +0.000 NA
ATOM     12  N   UNL     1       4.263   2.965  20.409  0.00  0.00    +0.000 N 
ATOM     13  C   UNL     1       2.951   3.182  20.695  0.00  0.00    +0.000 C 
ATOM     14  O   UNL     1       2.476   2.824  21.767  0.00  0.00    +0.000 OA
ATOM     15  C   UNL     1       2.114   3.873  19.667  0.00  0.00    +0.000 C 
ATOM     16  C   UNL     1       2.822   4.306  18.388  0.00  0.00    +0.000 C 
ATOM     17  C   UNL     1       2.678   5.822  18.202  0.00  0.00    +0.000 C 
ATOM     18  H   UNL     1       4.800   2.475  21.116  0.00  0.00    +0.000 HD
ENDBRANCH   4  10
BRANCH   7  19
ATOM     19  C   UNL     1       7.980   8.172  17.897  0.00  0.00    +0.000 C 
ATOM     20  F   UNL     1       8.850   8.679  16.980  0.00  0.00    +0.000 F 
ATOM     21  F   UNL     1       7.138   9.187  18.226  0.00  0.00    +0.000 F 
ATOM     22  F   UNL     1       8.714   7.892  19.008  0.00  0.00    +0.000 F 
ENDBRANCH   7  19
BRANCH   1  24
ATOM     23  C   UNL     1       7.097   4.273  12.461  0.00  0.00    +0.000 C 
ATOM     24  O   UNL     1       7.380   5.018  13.643  0.00  0.00    +0.000 OA
ENDBRANCH   1  24
TORSDOF 3
ENDMDL
MODEL 3
REMARK VINA RESULT:      -7.9      3.516      6.612
REMARK  Name = 
REMARK  5 active torsions:
REMARK  status: ('A' for Active; 'I' for Inactive)
REMARK    1  A    between atoms: C_1  and  O_2
REMARK    2  A    between atoms: O_2  and  C_3
REMARK    3  A    between atoms: C_6  and  C_7
REMARK    4  A    between atoms: C_13  and  C_14
REMARK    5  A    between atoms: C_17  and  C_18
REMARK                            x       y       z     vdW  Elec       q    Type
REMARK                         _______ _______ _______ _____ _____    ______ ____
ROOT
ATOM      1  C   UNL     1       6.820   4.908  14.789  0.00  0.00    +0.000 A 
ATOM      2  C   UNL     1       5.662   4.380  14.199  0.00  0.00    +0.000 A 
ATOM      3  C   UNL     1       4.581   3.945  14.974  0.00  0.00    +0.000 A 
ATOM      4  C   UNL     1       4.618   4.000  16.381  0.00  0.00    +0.000 A 
ATOM      5  C   UNL     1       5.761   4.542  16.988  0.00  0.00    +0.000 A 
ATOM      6  N   UNL     1       6.076   4.763  18.309  0.00  0.00    +0.000 NA
ATOM      7  C   UNL     1       7.288   5.298  18.279  0.00  0.00    +0.000 A 
ATOM      8  O   UNL     1       7.799   5.439  17.007  0.00  0.00    +0.000 OA
ATOM      9  C   UNL     1       6.811   4.962  16.185  0.00  0.00    +0.000 A 
ENDROOT
BRANCH   4  10
ATOM     10  C   UNL     1       3.460   3.494  17.169  0.00  0.00    +0.000 C 
ATOM     11  N   UNL     1       3.551   2.282  17.626  0.00  0.00    +0.000 NA
ATOM     12  N   UNL     1       2.541   1.760  18.345  0.00  0.00    +0.000 N 
ATOM     13  C   UNL     1       1.359   2.354  18.661  0.00  0.00    +0.000 C 
ATOM     14  O   UNL     1       0.512   1.755  19.316  0.00  0.00    +0.000 OA
ATOM     15  C   UNL     1       1.129   3.754  18.190  0.00  0.00    +0.000 C 
ATOM     16  C   UNL     1       2.268   4.410  17.417  0.00  0.00    +0.000 C 
ATOM     17  C   UNL     1       2.711   5.694  18.133  0.00  0.00    +0.000 C 
ATOM     18  H   UNL     1       2.659   0.803  18.659  0.00  0.00    +0.000 HD
ENDBRANCH   4  10
BRANCH   7  19
ATOM     19  C   UNL     1       8.141   5.771  19.414  0.00  0.00    +0.000 C 
ATOM     20  F   UNL     1       8.686   6.995  19.173  0.00  0.00    +0.000 F 
ATOM     21  F   UNL     1       7.441   5.886  20.574  0.00  0.00    +0.000 F 
ATOM     22  F   UNL     1       9.181   4.930  19.662  0.00  0.00    +0.000 F 
ENDBRANCH   7  19
BRANCH   1  24
ATOM     23  C   UNL     1       7.854   5.202  12.689  0.00  0.00    +0.000 C 
ATOM     24  O   UNL     1       7.926   5.327  14.107  0.00  0.00    +0.000 OA
ENDBRANCH   1  24
TORSDOF 3
ENDMDL
MODEL 4
REMARK VINA RESULT:      -7.9      2.999      4.078
REMARK  Name = 
REMARK  5 active torsions:
REMARK  status: ('A' for Active; 'I' for Inactive)
REMARK    1  A    between atoms: C_1  and  O_2
REMARK    2  A    between atoms: O_2  and  C_3
REMARK    3  A    between atoms: C_6  and  C_7
REMARK    4  A    between atoms: C_13  and  C_14
REMARK    5  A    between atoms: C_17  and  C_18
REMARK                            x       y       z     vdW  Elec       q    Type
REMARK                         _______ _______ _______ _____ _____    ______ ____
ROOT
ATOM      1  C   UNL     1       2.881   4.327  20.224  0.00  0.00    +0.000 A 
ATOM      2  C   UNL     1       3.755   3.302  19.832  0.00  0.00    +0.000 A 
ATOM      3  C   UNL     1       4.557   3.422  18.692  0.00  0.00    +0.000 A 
ATOM      4  C   UNL     1       4.507   4.569  17.878  0.00  0.00    +0.000 A 
ATOM      5  C   UNL     1       3.652   5.613  18.263  0.00  0.00    +0.000 A 
ATOM      6  N   UNL     1       3.412   6.850  17.710  0.00  0.00    +0.000 NA
ATOM      7  C   UNL     1       2.509   7.402  18.505  0.00  0.00    +0.000 A 
ATOM      8  O   UNL     1       2.128   6.596  19.556  0.00  0.00    +0.000 OA
ATOM      9  C   UNL     1       2.872   5.455  19.400  0.00  0.00    +0.000 A 
ENDROOT
BRANCH   4  10
ATOM     10  C   UNL     1       5.352   4.641  16.653  0.00  0.00    +0.000 C 
ATOM     11  N   UNL     1       4.753   4.438  15.519  0.00  0.00    +0.000 NA
ATOM     12  N   UNL     1       5.457   4.487  14.373  0.00  0.00    +0.000 N 
ATOM     13  C   UNL     1       6.790   4.713  14.231  0.00  0.00    +0.000 C 
ATOM     14  O   UNL     1       7.310   4.716  13.120  0.00  0.00    +0.000 OA
ATOM     15  C   UNL     1       7.595   4.960  15.466  0.00  0.00    +0.000 C 
ATOM     16  C   UNL     1       6.834   4.970  16.787  0.00  0.00    +0.000 C 
ATOM     17  C   UNL     1       7.028   6.320  17.490  0.00  0.00    +0.000 C 
ATOM     18  H   UNL     1       4.941   4.301  13.520  0.00  0.00    +0.000 HD
ENDBRANCH   4  10
BRANCH   7  19
ATOM     19  C   UNL     1       1.879   8.758  18.422  0.00  0.00    +0.000 C 
ATOM     20  F   UNL     1       1.438   9.196  19.634  0.00  0.00    +0.000 F 
ATOM     21  F   UNL     1       2.743   9.703  17.965  0.00  0.00    +0.000 F 
ATOM     22  F   UNL     1       0.801   8.775  17.593  0.00  0.00    +0.000 F 
ENDBRANCH   7  19
BRANCH   1  24
ATOM     23  C   UNL     1       1.615   2.973  21.682  0.00  0.00    +0.000 C 
ATOM     24  O   UNL     1       2.046   4.277  21.303  0.00  0.00    +0.000 OA
ENDBRANCH   1  24
TORSDOF 3
ENDMDL
MODEL 5
REMARK VINA RESULT:      -7.6      4.264      6.678
REMARK  Name = 
REMARK  5 active torsions:
REMARK  status: ('A' for Active; 'I' for Inactive)
REMARK    1  A    between atoms: C_1  and  O_2
REMARK    2  A    between atoms: O_2  and  C_3
REMARK    3  A    between atoms: C_6  and  C_7
REMARK    4  A    between atoms: C_13  and  C_14
REMARK    5  A    between atoms: C_17  and  C_18
REMARK                            x       y       z     vdW  Elec       q    Type
REMARK                         _______ _______ _______ _____ _____    ______ ____
ROOT
ATOM      1  C   UNL     1       6.956   6.371  17.159  0.00  0.00    +0.000 A 
ATOM      2  C   UNL     1       6.327   6.370  18.412  0.00  0.00    +0.000 A 
ATOM      3  C   UNL     1       5.215   5.561  18.671  0.00  0.00    +0.000 A 
ATOM      4  C   UNL     1       4.668   4.727  17.677  0.00  0.00    +0.000 A 
ATOM      5  C   UNL     1       5.295   4.700  16.422  0.00  0.00    +0.000 A 
ATOM      6  N   UNL     1       5.029   3.977  15.283  0.00  0.00    +0.000 NA
ATOM      7  C   UNL     1       5.952   4.366  14.416  0.00  0.00    +0.000 A 
ATOM      8  O   UNL     1       6.815   5.316  14.916  0.00  0.00    +0.000 OA
ATOM      9  C   UNL     1       6.395   5.517  16.205  0.00  0.00    +0.000 A 
ENDROOT
BRANCH   4  10
ATOM     10  C   UNL     1       3.462   3.908  17.985  0.00  0.00    +0.000 C 
ATOM     11  N   UNL     1       3.657   2.643  18.202  0.00  0.00    +0.000 NA
ATOM     12  N   UNL     1       2.611   1.844  18.484  0.00  0.00    +0.000 N 
ATOM     13  C   UNL     1       1.300   2.195  18.558  0.00  0.00    +0.000 C 
ATOM     14  O   UNL     1       0.440   1.358  18.812  0.00  0.00    +0.000 OA
ATOM     15  C   UNL     1       0.943   3.629  18.326  0.00  0.00    +0.000 C 
ATOM     16  C   UNL     1       2.099   4.585  18.057  0.00  0.00    +0.000 C 
ATOM     17  C   UNL     1       2.104   5.704  19.107  0.00  0.00    +0.000 C 
ATOM     18  H   UNL     1       2.820   0.861  18.624  0.00  0.00    +0.000 HD
ENDBRANCH   4  10
BRANCH   7  19
ATOM     19  C   UNL     1       6.181   3.907  13.010  0.00  0.00    +0.000 C 
ATOM     20  F   UNL     1       6.558   2.600  12.950  0.00  0.00    +0.000 F 
ATOM     21  F   UNL     1       5.066   4.019  12.240  0.00  0.00    +0.000 F 
ATOM     22  F   UNL     1       7.161   4.617  12.389  0.00  0.00    +0.000 F 
ENDBRANCH   7  19
BRANCH   1  24
ATOM     23  C   UNL     1       8.142   8.374  17.535  0.00  0.00    +0.000 C 
ATOM     24  O   UNL     1       8.025   7.149  16.818  0.00  0.00    +0.000 OA
ENDBRANCH   1  24
TORSDOF 3
ENDMDL
MODEL 6
REMARK VINA RESULT:      -7.5      3.412      6.205
REMARK  Name = 
REMARK  5 active torsions:
REMARK  status: ('A' for Active; 'I' for Inactive)
REMARK    1  A    between atoms: C_1  and  O_2
REMARK    2  A    between atoms: O_2  and  C_3
REMARK    3  A    between atoms: C_6  and  C_7
REMARK    4  A    between atoms: C_13  and  C_14
REMARK    5  A    between atoms: C_17  and  C_18
REMARK                            x       y       z     vdW  Elec       q    Type
REMARK                         _______ _______ _______ _____ _____    ______ ____
ROOT
ATOM      1  C   UNL     1       3.303   3.173  17.947  0.00  0.00    +0.000 A 
ATOM      2  C   UNL     1       1.948   3.526  18.035  0.00  0.00    +0.000 A 
ATOM      3  C   UNL     1       1.549   4.782  18.505  0.00  0.00    +0.000 A 
ATOM      4  C   UNL     1       2.490   5.738  18.930  0.00  0.00    +0.000 A 
ATOM      5  C   UNL     1       3.851   5.411  18.833  0.00  0.00    +0.000 A 
ATOM      6  N   UNL     1       4.988   6.129  19.126  0.00  0.00    +0.000 NA
ATOM      7  C   UNL     1       5.986   5.309  18.835  0.00  0.00    +0.000 A 
ATOM      8  O   UNL     1       5.575   4.079  18.370  0.00  0.00    +0.000 OA
ATOM      9  C   UNL     1       4.206   4.155  18.362  0.00  0.00    +0.000 A 
ENDROOT
BRANCH   4  10
ATOM     10  C   UNL     1       2.021   7.050  19.457  0.00  0.00    +0.000 C 
ATOM     11  N   UNL     1       1.947   7.166  20.748  0.00  0.00    +0.000 NA
ATOM     12  N   UNL     1       1.529   8.324  21.293  0.00  0.00    +0.000 N 
ATOM     13  C   UNL     1       1.132   9.448  20.640  0.00  0.00    +0.000 C 
ATOM     14  O   UNL     1       0.759  10.437  21.263  0.00  0.00    +0.000 OA
ATOM     15  C   UNL     1       1.170   9.442  19.145  0.00  0.00    +0.000 C 
ATOM     16  C   UNL     1       1.689   8.172  18.480  0.00  0.00    +0.000 C 
ATOM     17  C   UNL     1       2.902   8.502  17.601  0.00  0.00    +0.000 C 
ATOM     18  H   UNL     1       1.472   8.351  22.305  0.00  0.00    +0.000 HD
ENDBRANCH   4  10
BRANCH   7  19
ATOM     19  C   UNL     1       7.461   5.546  18.927  0.00  0.00    +0.000 C 
ATOM     20  F   UNL     1       8.178   4.598  18.262  0.00  0.00    +0.000 F 
ATOM     21  F   UNL     1       7.828   6.743  18.398  0.00  0.00    +0.000 F 
ATOM     22  F   UNL     1       7.906   5.530  20.212  0.00  0.00    +0.000 F 
ENDBRANCH   7  19
BRANCH   1  24
ATOM     23  C   UNL     1       3.945   0.985  18.550  0.00  0.00    +0.000 C 
ATOM     24  O   UNL     1       3.773   1.962  17.527  0.00  0.00    +0.000 OA
ENDBRANCH   1  24
TORSDOF 3
ENDMDL
MODEL 7
REMARK VINA RESULT:      -7.5      2.322      5.636
REMARK  Name = 
REMARK  5 active torsions:
REMARK  status: ('A' for Active; 'I' for Inactive)
REMARK    1  A    between atoms: C_1  and  O_2
REMARK    2  A    between atoms: O_2  and  C_3
REMARK    3  A    between atoms: C_6  and  C_7
REMARK    4  A    between atoms: C_13  and  C_14
REMARK    5  A    between atoms: C_17  and  C_18
REMARK                            x       y       z     vdW  Elec       q    Type
REMARK                         _______ _______ _______ _____ _____    ______ ____
ROOT
ATOM      1  C   UNL     1       4.448   5.463  16.901  0.00  0.00    +0.000 A 
ATOM      2  C   UNL     1       4.593   6.858  16.915  0.00  0.00    +0.000 A 
ATOM      3  C   UNL     1       3.768   7.671  17.699  0.00  0.00    +0.000 A 
ATOM      4  C   UNL     1       2.742   7.124  18.493  0.00  0.00    +0.000 A 
ATOM      5  C   UNL     1       2.592   5.729  18.507  0.00  0.00    +0.000 A 
ATOM      6  N   UNL     1       1.727   4.909  19.194  0.00  0.00    +0.000 NA
ATOM      7  C   UNL     1       2.051   3.684  18.809  0.00  0.00    +0.000 A 
ATOM      8  O   UNL     1       3.082   3.644  17.896  0.00  0.00    +0.000 OA
ATOM      9  C   UNL     1       3.430   4.958  17.715  0.00  0.00    +0.000 A 
ENDROOT
BRANCH   4  10
ATOM     10  C   UNL     1       1.863   8.029  19.286  0.00  0.00    +0.000 C 
ATOM     11  N   UNL     1       1.814   7.820  20.566  0.00  0.00    +0.000 NA
ATOM     12  N   UNL     1       1.039   8.600  21.343  0.00  0.00    +0.000 N 
ATOM     13  C   UNL     1       0.238   9.624  20.946  0.00  0.00    +0.000 C 
ATOM     14  O   UNL     1      -0.432  10.248  21.762  0.00  0.00    +0.000 OA
ATOM     15  C   UNL     1       0.203   9.965  19.490  0.00  0.00    +0.000 C 
ATOM     16  C   UNL     1       1.107   9.145  18.575  0.00  0.00    +0.000 C 
ATOM     17  C   UNL     1       2.079  10.074  17.837  0.00  0.00    +0.000 C 
ATOM     18  H   UNL     1       1.025   8.378  22.332  0.00  0.00    +0.000 HD
ENDBRANCH   4  10
BRANCH   7  19
ATOM     19  C   UNL     1       1.469   2.374  19.240  0.00  0.00    +0.000 C 
ATOM     20  F   UNL     1       2.323   1.335  19.023  0.00  0.00    +0.000 F 
ATOM     21  F   UNL     1       1.170   2.351  20.566  0.00  0.00    +0.000 F 
ATOM     22  F   UNL     1       0.324   2.074  18.571  0.00  0.00    +0.000 F 
ENDBRANCH   7  19
BRANCH   1  24
ATOM     23  C   UNL     1       6.537   4.419  16.574  0.00  0.00    +0.000 C 
ATOM     24  O   UNL     1       5.191   4.603  16.144  0.00  0.00    +0.000 OA
ENDBRANCH   1  24
TORSDOF 3
ENDMDL
MODEL 8
REMARK VINA RESULT:      -7.4      3.636      6.272
REMARK  Name = 
REMARK  5 active torsions:
REMARK  status: ('A' for Active; 'I' for Inactive)
REMARK    1  A    between atoms: C_1  and  O_2
REMARK    2  A    between atoms: O_2  and  C_3
REMARK    3  A    between atoms: C_6  and  C_7
REMARK    4  A    between atoms: C_13  and  C_14
REMARK    5  A    between atoms: C_17  and  C_18
REMARK                            x       y       z     vdW  Elec       q    Type
REMARK                         _______ _______ _______ _____ _____    ______ ____
ROOT
ATOM      1  C   UNL     1       5.628   6.381  17.253  0.00  0.00    +0.000 A 
ATOM      2  C   UNL     1       5.958   5.075  17.644  0.00  0.00    +0.000 A 
ATOM      3  C   UNL     1       5.111   4.321  18.463  0.00  0.00    +0.000 A 
ATOM      4  C   UNL     1       3.899   4.850  18.948  0.00  0.00    +0.000 A 
ATOM      5  C   UNL     1       3.543   6.149  18.554  0.00  0.00    +0.000 A 
ATOM      6  N   UNL     1       2.432   6.913  18.823  0.00  0.00    +0.000 NA
ATOM      7  C   UNL     1       2.646   8.053  18.183  0.00  0.00    +0.000 A 
ATOM      8  O   UNL     1       3.846   8.091  17.507  0.00  0.00    +0.000 OA
ATOM      9  C   UNL     1       4.411   6.864  17.741  0.00  0.00    +0.000 A 
ENDROOT
BRANCH   4  10
ATOM     10  C   UNL     1       3.044   4.026  19.847  0.00  0.00    +0.000 C 
ATOM     11  N   UNL     1       3.041   4.348  21.104  0.00  0.00    +0.000 NA
ATOM     12  N   UNL     1       2.291   3.645  21.973  0.00  0.00    +0.000 N 
ATOM     13  C   UNL     1       1.505   2.569  21.704  0.00  0.00    +0.000 C 
ATOM     14  O   UNL     1       0.881   2.009  22.599  0.00  0.00    +0.000 OA
ATOM     15  C   UNL     1       1.423   2.096  20.288  0.00  0.00    +0.000 C 
ATOM     16  C   UNL     1       2.212   2.894  19.255  0.00  0.00    +0.000 C 
ATOM     17  C   UNL     1       1.264   3.426  18.173  0.00  0.00    +0.000 C 
ATOM     18  H   UNL     1       2.343   3.929  22.946  0.00  0.00    +0.000 HD
ENDBRANCH   4  10
BRANCH   7  19
ATOM     19  C   UNL     1       1.771   9.263  18.088  0.00  0.00    +0.000 C 
ATOM     20  F   UNL     1       0.650   9.031  17.349  0.00  0.00    +0.000 F 
ATOM     21  F   UNL     1       1.343   9.690  19.306  0.00  0.00    +0.000 F 
ATOM     22  F   UNL     1       2.405  10.314  17.502  0.00  0.00    +0.000 F 
ENDBRANCH   7  19
BRANCH   1  24
ATOM     23  C   UNL     1       7.520   7.787  17.149  0.00  0.00    +0.000 C 
ATOM     24  O   UNL     1       6.411   7.191  16.481  0.00  0.00    +0.000 OA
ENDBRANCH   1  24
TORSDOF 3
ENDMDL
MODEL 9
REMARK VINA RESULT:      -7.4      3.501      5.991
REMARK  Name = 
REMARK  5 active torsions:
REMARK  status: ('A' for Active; 'I' for Inactive)
REMARK    1  A    between atoms: C_1  and  O_2
REMARK    2  A    between atoms: O_2  and  C_3
REMARK    3  A    between atoms: C_6  and  C_7
REMARK    4  A    between atoms: C_13  and  C_14
REMARK    5  A    between atoms: C_17  and  C_18
REMARK                            x       y       z     vdW  Elec       q    Type
REMARK                         _______ _______ _______ _____ _____    ______ ____
ROOT
ATOM      1  C   UNL     1       3.334   3.278  17.761  0.00  0.00    +0.000 A 
ATOM      2  C   UNL     1       1.997   3.693  17.674  0.00  0.00    +0.000 A 
ATOM      3  C   UNL     1       1.626   5.020  17.920  0.00  0.00    +0.000 A 
ATOM      4  C   UNL     1       2.578   5.991  18.286  0.00  0.00    +0.000 A 
ATOM      5  C   UNL     1       3.923   5.599  18.361  0.00  0.00    +0.000 A 
ATOM      6  N   UNL     1       5.067   6.307  18.648  0.00  0.00    +0.000 NA
ATOM      7  C   UNL     1       6.042   5.414  18.570  0.00  0.00    +0.000 A 
ATOM      8  O   UNL     1       5.607   4.146  18.252  0.00  0.00    +0.000 OA
ATOM      9  C   UNL     1       4.250   4.274  18.110  0.00  0.00    +0.000 A 
ENDROOT
BRANCH   4  10
ATOM     10  C   UNL     1       2.135   7.384  18.574  0.00  0.00    +0.000 C 
ATOM     11  N   UNL     1       1.860   8.131  17.549  0.00  0.00    +0.000 NA
ATOM     12  N   UNL     1       1.456   9.401  17.736  0.00  0.00    +0.000 N 
ATOM     13  C   UNL     1       1.305  10.054  18.919  0.00  0.00    +0.000 C 
ATOM     14  O   UNL     1       0.939  11.225  18.947  0.00  0.00    +0.000 OA
ATOM     15  C   UNL     1       1.592   9.300  20.179  0.00  0.00    +0.000 C 
ATOM     16  C   UNL     1       2.001   7.840  20.022  0.00  0.00    +0.000 C 
ATOM     17  C   UNL     1       1.021   6.940  20.786  0.00  0.00    +0.000 C 
ATOM     18  H   UNL     1       1.275   9.945  16.899  0.00  0.00    +0.000 HD
ENDBRANCH   4  10
BRANCH   7  19
ATOM     19  C   UNL     1       7.514   5.604  18.760  0.00  0.00    +0.000 C 
ATOM     20  F   UNL     1       8.241   4.608  18.181  0.00  0.00    +0.000 F 
ATOM     21  F   UNL     1       7.961   6.767  18.218  0.00  0.00    +0.000 F 
ATOM     22  F   UNL     1       7.867   5.620  20.074  0.00  0.00    +0.000 F 
ENDBRANCH   7  19
BRANCH   1  24
ATOM     23  C   UNL     1       3.755   1.163  18.717  0.00  0.00    +0.000 C 
ATOM     24  O   UNL     1       3.774   2.000  17.564  0.00  0.00    +0.000 OA
ENDBRANCH   1  24
TORSDOF 3
ENDMDL
