MODEL 1
REMARK VINA RESULT:      -7.6      0.000      0.000
REMARK  Name = 
REMARK  9 active torsions:
REMARK  status: ('A' for Active; 'I' for Inactive)
REMARK    1  A    between atoms: C_1  and  C_2
REMARK    2  A    between atoms: C_5  and  C_6
REMARK    3  A    between atoms: C_6  and  N_7
REMARK    4  A    between atoms: N_7  and  S_8
REMARK    5  A    between atoms: S_8  and  C_11
REMARK    6  A    between atoms: C_13  and  C_14
REMARK    7  A    between atoms: C_17  and  C_18
REMARK    8  A    between atoms: C_19  and  C_20
REMARK    9  A    between atoms: C_22  and  C_23
REMARK                            x       y       z     vdW  Elec       q    Type
REMARK                         _______ _______ _______ _____ _____    ______ ____
ROOT
ATOM      1  S   UNL     1       2.611   5.367  19.915  0.00  0.00    +0.000 S 
ATOM      2  O   UNL     1       2.022   4.716  18.769  0.00  0.00    +0.000 OA
ATOM      3  O   UNL     1       2.242   5.029  21.270  0.00  0.00    +0.000 OA
ENDROOT
BRANCH   1   4
ATOM      4  C   UNL     1       2.146   7.028  19.737  0.00  0.00    +0.000 A 
ATOM      5  C   UNL     1       1.412   7.749  20.729  0.00  0.00    +0.000 A 
ATOM      6  C   UNL     1       1.113   9.036  20.331  0.00  0.00    +0.000 A 
ATOM      7  S   UNL     1       1.818   9.388  18.815  0.00  0.00    +0.000 S 
ATOM      8  C   UNL     1       2.449   7.811  18.638  0.00  0.00    +0.000 A 
ATOM      9  C   UNL     1       3.216   7.464  17.405  0.00  0.00    +0.000 C 
BRANCH   6  10
ATOM     10  C   UNL     1       0.342   9.998  21.073  0.00  0.00    +0.000 A 
ATOM     11  O   UNL     1       0.553  10.198  22.412  0.00  0.00    +0.000 OA
ATOM     12  N   UNL     1      -0.310  11.153  22.900  0.00  0.00    +0.000 NA
ATOM     13  C   UNL     1      -1.062  11.526  21.862  0.00  0.00    +0.000 A 
ATOM     14  C   UNL     1      -2.129  12.539  22.039  0.00  0.00    +0.000 C 
ATOM     15  C   UNL     1      -0.702  10.824  20.679  0.00  0.00    +0.000 A 
ATOM     16  C   UNL     1      -1.342  10.939  19.345  0.00  0.00    +0.000 C 
ENDBRANCH   6  10
ENDBRANCH   1   4
BRANCH   1  17
ATOM     17  N   UNL     1       4.279   5.220  19.752  0.00  0.00    +0.000 NA
ATOM     18  H   UNL     1       4.657   6.052  19.297  0.00  0.00    +0.000 HD
BRANCH  17  19
ATOM     19  C   UNL     1       4.766   3.963  19.167  0.00  0.00    +0.000 C 
BRANCH  19  24
ATOM     20  C   UNL     1       7.248   4.955  13.977  0.00  0.00    +0.000 C 
ATOM     21  C   UNL     1       6.607   4.676  15.304  0.00  0.00    +0.000 A 
ATOM     22  C   UNL     1       5.282   4.237  15.390  0.00  0.00    +0.000 A 
ATOM     23  C   UNL     1       4.691   3.997  16.634  0.00  0.00    +0.000 A 
ATOM     24  C   UNL     1       5.413   4.192  17.820  0.00  0.00    +0.000 A 
ATOM     25  C   UNL     1       6.745   4.624  17.730  0.00  0.00    +0.000 A 
ATOM     26  C   UNL     1       7.334   4.864  16.485  0.00  0.00    +0.000 A 
ENDBRANCH  19  24
ENDBRANCH  17  19
ENDBRANCH   1  17
TORSDOF 5
ENDMDL
MODEL 2
REMARK VINA RESULT:      -7.6      2.728      3.732
REMARK  Name = 
REMARK  9 active torsions:
REMARK  status: ('A' for Active; 'I' for Inactive)
REMARK    1  A    between atoms: C_1  and  C_2
REMARK    2  A    between atoms: C_5  and  C_6
REMARK    3  A    between atoms: C_6  and  N_7
REMARK    4  A    between atoms: N_7  and  S_8
REMARK    5  A    between atoms: S_8  and  C_11
REMARK    6  A    between atoms: C_13  and  C_14
REMARK    7  A    between atoms: C_17  and  C_18
REMARK    8  A    between atoms: C_19  and  C_20
REMARK    9  A    between atoms: C_22  and  C_23
REMARK                            x       y       z     vdW  Elec       q    Type
REMARK                         _______ _______ _______ _____ _____    ______ ____
ROOT
ATOM      1  S   UNL     1       3.679   3.154  18.579  0.00  0.00    +0.000 S 
ATOM      2  O   UNL     1       2.613   2.184  18.477  0.00  0.00    +0.000 OA
ATOM      3  O   UNL     1       4.836   2.944  19.417  0.00  0.00    +0.000 OA
ENDROOT
BRANCH   1   4
ATOM      4  C   UNL     1       2.907   4.556  19.242  0.00  0.00    +0.000 A 
ATOM      5  C   UNL     1       2.786   5.794  18.538  0.00  0.00    +0.000 A 
ATOM      6  C   UNL     1       2.183   6.776  19.298  0.00  0.00    +0.000 A 
ATOM      7  S   UNL     1       1.673   6.157  20.807  0.00  0.00    +0.000 S 
ATOM      8  C   UNL     1       2.325   4.610  20.496  0.00  0.00    +0.000 A 
ATOM      9  C   UNL     1       2.203   3.543  21.534  0.00  0.00    +0.000 C 
BRANCH   6  10
ATOM     10  C   UNL     1       1.963   8.142  18.903  0.00  0.00    +0.000 A 
ATOM     11  O   UNL     1       2.474   8.634  17.731  0.00  0.00    +0.000 OA
ATOM     12  N   UNL     1       2.143   9.963  17.580  0.00  0.00    +0.000 NA
ATOM     13  C   UNL     1       1.443  10.288  18.669  0.00  0.00    +0.000 A 
ATOM     14  C   UNL     1       0.942  11.671  18.849  0.00  0.00    +0.000 C 
ATOM     15  C   UNL     1       1.302   9.179  19.548  0.00  0.00    +0.000 A 
ATOM     16  C   UNL     1       0.630   9.170  20.871  0.00  0.00    +0.000 C 
ENDBRANCH   6  10
ENDBRANCH   1   4
BRANCH   1  17
ATOM     17  N   UNL     1       4.195   3.473  17.009  0.00  0.00    +0.000 NA
ATOM     18  H   UNL     1       3.695   2.871  16.353  0.00  0.00    +0.000 HD
BRANCH  17  19
ATOM     19  C   UNL     1       5.648   3.490  16.794  0.00  0.00    +0.000 C 
BRANCH  19  24
ATOM     20  C   UNL     1       7.997   8.715  17.915  0.00  0.00    +0.000 C 
ATOM     21  C   UNL     1       7.386   7.371  17.651  0.00  0.00    +0.000 A 
ATOM     22  C   UNL     1       7.874   6.220  18.277  0.00  0.00    +0.000 A 
ATOM     23  C   UNL     1       7.307   4.970  18.010  0.00  0.00    +0.000 A 
ATOM     24  C   UNL     1       6.241   4.845  17.108  0.00  0.00    +0.000 A 
ATOM     25  C   UNL     1       5.749   6.002  16.488  0.00  0.00    +0.000 A 
ATOM     26  C   UNL     1       6.317   7.251  16.756  0.00  0.00    +0.000 A 
ENDBRANCH  19  24
ENDBRANCH  17  19
ENDBRANCH   1  17
TORSDOF 5
ENDMDL
MODEL 3
REMARK VINA RESULT:      -7.6      2.713      3.714
REMARK  Name = 
REMARK  9 active torsions:
REMARK  status: ('A' for Active; 'I' for Inactive)
REMARK    1  A    between atoms: C_1  and  C_2
REMARK    2  A    between atoms: C_5  and  C_6
REMARK    3  A    between atoms: C_6  and  N_7
REMARK    4  A    between atoms: N_7  and  S_8
REMARK    5  A    between atoms: S_8  and  C_11
REMARK    6  A    between atoms: C_13  and  C_14
REMARK    7  A    between atoms: C_17  and  C_18
REMARK    8  A    between atoms: C_19  and  C_20
REMARK    9  A    between atoms: C_22  and  C_23
REMARK                            x       y       z     vdW  Elec       q    Type
REMARK                         _______ _______ _______ _____ _____    ______ ____
ROOT
ATOM      1  S   UNL     1       3.985   3.272  18.637  0.00  0.00    +0.000 S 
ATOM      2  O   UNL     1       2.979   2.266  18.385  0.00  0.00    +0.000 OA
ATOM      3  O   UNL     1       5.050   3.076  19.591  0.00  0.00    +0.000 OA
ENDROOT
BRANCH   1   4
ATOM      4  C   UNL     1       3.084   4.616  19.257  0.00  0.00    +0.000 A 
ATOM      5  C   UNL     1       2.958   5.863  18.569  0.00  0.00    +0.000 A 
ATOM      6  C   UNL     1       2.241   6.794  19.293  0.00  0.00    +0.000 A 
ATOM      7  S   UNL     1       1.637   6.114  20.739  0.00  0.00    +0.000 S 
ATOM      8  C   UNL     1       2.395   4.610  20.457  0.00  0.00    +0.000 A 
ATOM      9  C   UNL     1       2.242   3.514  21.460  0.00  0.00    +0.000 C 
BRANCH   6  10
ATOM     10  C   UNL     1       1.982   8.155  18.906  0.00  0.00    +0.000 A 
ATOM     11  O   UNL     1       2.507   8.679  17.754  0.00  0.00    +0.000 OA
ATOM     12  N   UNL     1       2.132   9.997  17.608  0.00  0.00    +0.000 NA
ATOM     13  C   UNL     1       1.392  10.284  18.680  0.00  0.00    +0.000 A 
ATOM     14  C   UNL     1       0.837  11.646  18.861  0.00  0.00    +0.000 C 
ATOM     15  C   UNL     1       1.267   9.161  19.544  0.00  0.00    +0.000 A 
ATOM     16  C   UNL     1       0.560   9.113  20.847  0.00  0.00    +0.000 C 
ENDBRANCH   6  10
ENDBRANCH   1   4
BRANCH   1  17
ATOM     17  N   UNL     1       4.655   3.671  17.146  0.00  0.00    +0.000 NA
ATOM     18  H   UNL     1       4.218   3.115  16.411  0.00  0.00    +0.000 HD
BRANCH  17  19
ATOM     19  C   UNL     1       6.123   3.680  17.076  0.00  0.00    +0.000 C 
BRANCH  19  24
ATOM     20  C   UNL     1       8.216   9.020  18.164  0.00  0.00    +0.000 C 
ATOM     21  C   UNL     1       7.689   7.648  17.861  0.00  0.00    +0.000 A 
ATOM     22  C   UNL     1       6.764   7.440  16.833  0.00  0.00    +0.000 A 
ATOM     23  C   UNL     1       6.267   6.159  16.572  0.00  0.00    +0.000 A 
ATOM     24  C   UNL     1       6.684   5.060  17.336  0.00  0.00    +0.000 A 
ATOM     25  C   UNL     1       7.617   5.271  18.361  0.00  0.00    +0.000 A 
ATOM     26  C   UNL     1       8.113   6.552  18.621  0.00  0.00    +0.000 A 
ENDBRANCH  19  24
ENDBRANCH  17  19
ENDBRANCH   1  17
TORSDOF 5
ENDMDL
MODEL 4
REMARK VINA RESULT:      -7.5      0.941      1.223
REMARK  Name = 
REMARK  9 active torsions:
REMARK  status: ('A' for Active; 'I' for Inactive)
REMARK    1  A    between atoms: C_1  and  C_2
REMARK    2  A    between atoms: C_5  and  C_6
REMARK    3  A    between atoms: C_6  and  N_7
REMARK    4  A    between atoms: N_7  and  S_8
REMARK    5  A    between atoms: S_8  and  C_11
REMARK    6  A    between atoms: C_13  and  C_14
REMARK    7  A    between atoms: C_17  and  C_18
REMARK    8  A    between atoms: C_19  and  C_20
REMARK    9  A    between atoms: C_22  and  C_23
REMARK                            x       y       z     vdW  Elec       q    Type
REMARK                         _______ _______ _______ _____ _____    ______ ____
ROOT
ATOM      1  S   UNL     1       2.553   5.479  19.934  0.00  0.00    +0.000 S 
ATOM      2  O   UNL     1       1.972   4.746  18.833  0.00  0.00    +0.000 OA
ATOM      3  O   UNL     1       2.182   5.231  21.307  0.00  0.00    +0.000 OA
ENDROOT
BRANCH   1   4
ATOM      4  C   UNL     1       2.077   7.119  19.640  0.00  0.00    +0.000 A 
ATOM      5  C   UNL     1       1.253   7.871  20.535  0.00  0.00    +0.000 A 
ATOM      6  C   UNL     1       0.966   9.132  20.053  0.00  0.00    +0.000 A 
ATOM      7  S   UNL     1       1.787   9.429  18.584  0.00  0.00    +0.000 S 
ATOM      8  C   UNL     1       2.455   7.858  18.534  0.00  0.00    +0.000 A 
ATOM      9  C   UNL     1       3.327   7.470  17.384  0.00  0.00    +0.000 C 
BRANCH   6  10
ATOM     10  C   UNL     1       0.123  10.112  20.684  0.00  0.00    +0.000 A 
ATOM     11  O   UNL     1      -0.427  11.143  19.970  0.00  0.00    +0.000 OA
ATOM     12  N   UNL     1      -1.180  11.952  20.791  0.00  0.00    +0.000 NA
ATOM     13  C   UNL     1      -1.077  11.426  22.013  0.00  0.00    +0.000 A 
ATOM     14  C   UNL     1      -1.754  12.070  23.163  0.00  0.00    +0.000 C 
ATOM     15  C   UNL     1      -0.258  10.263  22.011  0.00  0.00    +0.000 A 
ATOM     16  C   UNL     1       0.121   9.439  23.185  0.00  0.00    +0.000 C 
ENDBRANCH   6  10
ENDBRANCH   1   4
BRANCH   1  17
ATOM     17  N   UNL     1       4.223   5.332  19.786  0.00  0.00    +0.000 NA
ATOM     18  H   UNL     1       4.600   6.150  19.305  0.00  0.00    +0.000 HD
BRANCH  17  19
ATOM     19  C   UNL     1       4.717   4.058  19.246  0.00  0.00    +0.000 C 
BRANCH  19  24
ATOM     20  C   UNL     1       7.158   4.872  14.006  0.00  0.00    +0.000 C 
ATOM     21  C   UNL     1       6.528   4.639  15.347  0.00  0.00    +0.000 A 
ATOM     22  C   UNL     1       5.197   4.225  15.458  0.00  0.00    +0.000 A 
ATOM     23  C   UNL     1       4.616   4.027  16.714  0.00  0.00    +0.000 A 
ATOM     24  C   UNL     1       5.354   4.241  17.887  0.00  0.00    +0.000 A 
ATOM     25  C   UNL     1       6.691   4.648  17.772  0.00  0.00    +0.000 A 
ATOM     26  C   UNL     1       7.271   4.845  16.515  0.00  0.00    +0.000 A 
ENDBRANCH  19  24
ENDBRANCH  17  19
ENDBRANCH   1  17
TORSDOF 5
ENDMDL
MODEL 5
REMARK VINA RESULT:      -7.5      2.722      3.968
REMARK  Name = 
REMARK  9 active torsions:
REMARK  status: ('A' for Active; 'I' for Inactive)
REMARK    1  A    between atoms: C_1  and  C_2
REMARK    2  A    between atoms: C_5  and  C_6
REMARK    3  A    between atoms: C_6  and  N_7
REMARK    4  A    between atoms: N_7  and  S_8
REMARK    5  A    between atoms: S_8  and  C_11
REMARK    6  A    between atoms: C_13  and  C_14
REMARK    7  A    between atoms: C_17  and  C_18
REMARK    8  A    between atoms: C_19  and  C_20
REMARK    9  A    between atoms: C_22  and  C_23
REMARK                            x       y       z     vdW  Elec       q    Type
REMARK                         _______ _______ _______ _____ _____    ______ ____
ROOT
ATOM      1  S   UNL     1       4.633   3.125  19.049  0.00  0.00    +0.000 S 
ATOM      2  O   UNL     1       4.312   2.757  17.689  0.00  0.00    +0.000 OA
ATOM      3  O   UNL     1       4.783   2.145  20.098  0.00  0.00    +0.000 OA
ENDROOT
BRANCH   1   4
ATOM      4  C   UNL     1       3.287   4.098  19.548  0.00  0.00    +0.000 A 
ATOM      5  C   UNL     1       3.259   5.522  19.428  0.00  0.00    +0.000 A 
ATOM      6  C   UNL     1       2.104   6.072  19.947  0.00  0.00    +0.000 A 
ATOM      7  S   UNL     1       1.025   4.853  20.467  0.00  0.00    +0.000 S 
ATOM      8  C   UNL     1       2.118   3.596  20.089  0.00  0.00    +0.000 A 
ATOM      9  C   UNL     1       1.724   2.180  20.356  0.00  0.00    +0.000 C 
BRANCH   6  10
ATOM     10  C   UNL     1       1.793   7.473  20.029  0.00  0.00    +0.000 A 
ATOM     11  O   UNL     1       1.304   8.027  21.183  0.00  0.00    +0.000 OA
ATOM     12  N   UNL     1       1.071   9.373  21.012  0.00  0.00    +0.000 NA
ATOM     13  C   UNL     1       1.400   9.641  19.747  0.00  0.00    +0.000 A 
ATOM     14  C   UNL     1       1.247  11.013  19.210  0.00  0.00    +0.000 C 
ATOM     15  C   UNL     1       1.857   8.476  19.070  0.00  0.00    +0.000 A 
ATOM     16  C   UNL     1       2.267   8.375  17.648  0.00  0.00    +0.000 C 
ENDBRANCH   6  10
ENDBRANCH   1   4
BRANCH   1  17
ATOM     17  N   UNL     1       6.025   4.067  18.980  0.00  0.00    +0.000 NA
ATOM     18  H   UNL     1       6.032   4.731  19.756  0.00  0.00    +0.000 HD
BRANCH  17  19
ATOM     19  C   UNL     1       6.328   4.684  17.682  0.00  0.00    +0.000 C 
BRANCH  19  24
ATOM     20  C   UNL     1       8.811   9.917  18.410  0.00  0.00    +0.000 C 
ATOM     21  C   UNL     1       8.183   8.571  18.200  0.00  0.00    +0.000 A 
ATOM     22  C   UNL     1       7.225   8.368  17.201  0.00  0.00    +0.000 A 
ATOM     23  C   UNL     1       6.635   7.113  17.027  0.00  0.00    +0.000 A 
ATOM     24  C   UNL     1       6.989   6.034  17.849  0.00  0.00    +0.000 A 
ATOM     25  C   UNL     1       7.956   6.239  18.844  0.00  0.00    +0.000 A 
ATOM     26  C   UNL     1       8.546   7.495  19.017  0.00  0.00    +0.000 A 
ENDBRANCH  19  24
ENDBRANCH  17  19
ENDBRANCH   1  17
TORSDOF 5
ENDMDL
MODEL 6
REMARK VINA RESULT:      -7.4      2.521      3.805
REMARK  Name = 
REMARK  9 active torsions:
REMARK  status: ('A' for Active; 'I' for Inactive)
REMARK    1  A    between atoms: C_1  and  C_2
REMARK    2  A    between atoms: C_5  and  C_6
REMARK    3  A    between atoms: C_6  and  N_7
REMARK    4  A    between atoms: N_7  and  S_8
REMARK    5  A    between atoms: S_8  and  C_11
REMARK    6  A    between atoms: C_13  and  C_14
REMARK    7  A    between atoms: C_17  and  C_18
REMARK    8  A    between atoms: C_19  and  C_20
REMARK    9  A    between atoms: C_22  and  C_23
REMARK                            x       y       z     vdW  Elec       q    Type
REMARK                         _______ _______ _______ _____ _____    ______ ____
ROOT
ATOM      1  S   UNL     1       3.156   2.641  17.897  0.00  0.00    +0.000 S 
ATOM      2  O   UNL     1       2.301   2.934  16.771  0.00  0.00    +0.000 OA
ATOM      3  O   UNL     1       3.084   1.390  18.615  0.00  0.00    +0.000 OA
ENDROOT
BRANCH   1   4
ATOM      4  C   UNL     1       2.729   3.843  19.070  0.00  0.00    +0.000 A 
ATOM      5  C   UNL     1       2.356   5.180  18.726  0.00  0.00    +0.000 A 
ATOM      6  C   UNL     1       2.118   5.963  19.838  0.00  0.00    +0.000 A 
ATOM      7  S   UNL     1       2.240   5.044  21.273  0.00  0.00    +0.000 S 
ATOM      8  C   UNL     1       2.694   3.626  20.436  0.00  0.00    +0.000 A 
ATOM      9  C   UNL     1       2.979   2.380  21.209  0.00  0.00    +0.000 C 
BRANCH   6  10
ATOM     10  C   UNL     1       1.778   7.361  19.836  0.00  0.00    +0.000 A 
ATOM     11  O   UNL     1       1.120   7.934  20.891  0.00  0.00    +0.000 OA
ATOM     12  N   UNL     1       0.895   9.271  20.652  0.00  0.00    +0.000 NA
ATOM     13  C   UNL     1       1.400   9.513  19.441  0.00  0.00    +0.000 A 
ATOM     14  C   UNL     1       1.307  10.868  18.850  0.00  0.00    +0.000 C 
ATOM     15  C   UNL     1       1.967   8.340  18.870  0.00  0.00    +0.000 A 
ATOM     16  C   UNL     1       2.579   8.211  17.525  0.00  0.00    +0.000 C 
ENDBRANCH   6  10
ENDBRANCH   1   4
BRANCH   1  17
ATOM     17  N   UNL     1       4.738   2.882  17.380  0.00  0.00    +0.000 NA
ATOM     18  H   UNL     1       5.356   2.969  18.188  0.00  0.00    +0.000 HD
BRANCH  17  19
ATOM     19  C   UNL     1       4.940   3.935  16.376  0.00  0.00    +0.000 C 
BRANCH  19  24
ATOM     20  C   UNL     1       8.383   8.163  18.461  0.00  0.00    +0.000 C 
ATOM     21  C   UNL     1       7.507   7.081  17.902  0.00  0.00    +0.000 A 
ATOM     22  C   UNL     1       6.503   7.371  16.974  0.00  0.00    +0.000 A 
ATOM     23  C   UNL     1       5.682   6.356  16.473  0.00  0.00    +0.000 A 
ATOM     24  C   UNL     1       5.848   5.029  16.892  0.00  0.00    +0.000 A 
ATOM     25  C   UNL     1       6.861   4.740  17.817  0.00  0.00    +0.000 A 
ATOM     26  C   UNL     1       7.681   5.756  18.317  0.00  0.00    +0.000 A 
ENDBRANCH  19  24
ENDBRANCH  17  19
ENDBRANCH   1  17
TORSDOF 5
ENDMDL
MODEL 7
REMARK VINA RESULT:      -7.3      2.285      3.367
REMARK  Name = 
REMARK  9 active torsions:
REMARK  status: ('A' for Active; 'I' for Inactive)
REMARK    1  A    between atoms: C_1  and  C_2
REMARK    2  A    between atoms: C_5  and  C_6
REMARK    3  A    between atoms: C_6  and  N_7
REMARK    4  A    between atoms: N_7  and  S_8
REMARK    5  A    between atoms: S_8  and  C_11
REMARK    6  A    between atoms: C_13  and  C_14
REMARK    7  A    between atoms: C_17  and  C_18
REMARK    8  A    between atoms: C_19  and  C_20
REMARK    9  A    between atoms: C_22  and  C_23
REMARK                            x       y       z     vdW  Elec       q    Type
REMARK                         _______ _______ _______ _____ _____    ______ ____
ROOT
ATOM      1  S   UNL     1       4.852   3.494  19.285  0.00  0.00    +0.000 S 
ATOM      2  O   UNL     1       4.834   2.363  20.184  0.00  0.00    +0.000 OA
ATOM      3  O   UNL     1       5.905   4.482  19.310  0.00  0.00    +0.000 OA
ENDROOT
BRANCH   1   4
ATOM      4  C   UNL     1       3.416   4.376  19.694  0.00  0.00    +0.000 A 
ATOM      5  C   UNL     1       3.336   5.803  19.668  0.00  0.00    +0.000 A 
ATOM      6  C   UNL     1       2.107   6.269  20.089  0.00  0.00    +0.000 A 
ATOM      7  S   UNL     1       1.035   4.975  20.402  0.00  0.00    +0.000 S 
ATOM      8  C   UNL     1       2.219   3.791  20.066  0.00  0.00    +0.000 A 
ATOM      9  C   UNL     1       1.864   2.346  20.192  0.00  0.00    +0.000 C 
BRANCH   6  10
ATOM     10  C   UNL     1       1.723   7.648  20.230  0.00  0.00    +0.000 A 
ATOM     11  O   UNL     1       1.324   8.156  21.438  0.00  0.00    +0.000 OA
ATOM     12  N   UNL     1       0.996   9.488  21.318  0.00  0.00    +0.000 NA
ATOM     13  C   UNL     1       1.177   9.791  20.031  0.00  0.00    +0.000 A 
ATOM     14  C   UNL     1       0.889  11.159  19.539  0.00  0.00    +0.000 C 
ATOM     15  C   UNL     1       1.629   8.665  19.289  0.00  0.00    +0.000 A 
ATOM     16  C   UNL     1       1.895   8.608  17.831  0.00  0.00    +0.000 C 
ENDBRANCH   6  10
ENDBRANCH   1   4
BRANCH   1  17
ATOM     17  N   UNL     1       4.720   2.877  17.726  0.00  0.00    +0.000 NA
ATOM     18  H   UNL     1       5.610   2.464  17.441  0.00  0.00    +0.000 HD
BRANCH  17  19
ATOM     19  C   UNL     1       4.147   3.778  16.717  0.00  0.00    +0.000 C 
BRANCH  19  24
ATOM     20  C   UNL     1       8.226   5.408  12.872  0.00  0.00    +0.000 C 
ATOM     21  C   UNL     1       7.167   5.012  13.858  0.00  0.00    +0.000 A 
ATOM     22  C   UNL     1       7.072   5.637  15.106  0.00  0.00    +0.000 A 
ATOM     23  C   UNL     1       6.092   5.248  16.023  0.00  0.00    +0.000 A 
ATOM     24  C   UNL     1       5.187   4.223  15.713  0.00  0.00    +0.000 A 
ATOM     25  C   UNL     1       5.281   3.603  14.459  0.00  0.00    +0.000 A 
ATOM     26  C   UNL     1       6.262   3.994  13.542  0.00  0.00    +0.000 A 
ENDBRANCH  19  24
ENDBRANCH  17  19
ENDBRANCH   1  17
TORSDOF 5
ENDMDL
MODEL 8
REMARK VINA RESULT:      -7.3      2.804      8.178
REMARK  Name = 
REMARK  9 active torsions:
REMARK  status: ('A' for Active; 'I' for Inactive)
REMARK    1  A    between atoms: C_1  and  C_2
REMARK    2  A    between atoms: C_5  and  C_6
REMARK    3  A    between atoms: C_6  and  N_7
REMARK    4  A    between atoms: N_7  and  S_8
REMARK    5  A    between atoms: S_8  and  C_11
REMARK    6  A    between atoms: C_13  and  C_14
REMARK    7  A    between atoms: C_17  and  C_18
REMARK    8  A    between atoms: C_19  and  C_20
REMARK    9  A    between atoms: C_22  and  C_23
REMARK                            x       y       z     vdW  Elec       q    Type
REMARK                         _______ _______ _______ _____ _____    ______ ____
ROOT
ATOM      1  S   UNL     1       0.767   9.302  20.980  0.00  0.00    +0.000 S 
ATOM      2  O   UNL     1       1.722   9.658  22.004  0.00  0.00    +0.000 OA
ATOM      3  O   UNL     1      -0.417   8.528  21.265  0.00  0.00    +0.000 OA
ENDROOT
BRANCH   1   4
ATOM      4  C   UNL     1       1.680   8.318  19.883  0.00  0.00    +0.000 A 
ATOM      5  C   UNL     1       1.988   6.944  20.130  0.00  0.00    +0.000 A 
ATOM      6  C   UNL     1       2.774   6.393  19.138  0.00  0.00    +0.000 A 
ATOM      7  S   UNL     1       3.033   7.509  17.871  0.00  0.00    +0.000 S 
ATOM      8  C   UNL     1       2.181   8.755  18.670  0.00  0.00    +0.000 A 
ATOM      9  C   UNL     1       2.064  10.095  18.020  0.00  0.00    +0.000 C 
BRANCH   6  10
ATOM     10  C   UNL     1       3.298   5.054  19.115  0.00  0.00    +0.000 A 
ATOM     11  O   UNL     1       4.573   4.782  19.538  0.00  0.00    +0.000 OA
ATOM     12  N   UNL     1       4.849   3.439  19.407  0.00  0.00    +0.000 NA
ATOM     13  C   UNL     1       3.750   2.891  18.887  0.00  0.00    +0.000 A 
ATOM     14  C   UNL     1       3.707   1.441  18.588  0.00  0.00    +0.000 C 
ATOM     15  C   UNL     1       2.735   3.865  18.672  0.00  0.00    +0.000 A 
ATOM     16  C   UNL     1       1.398   3.639  18.070  0.00  0.00    +0.000 C 
ENDBRANCH   6  10
ENDBRANCH   1   4
BRANCH   1  17
ATOM     17  N   UNL     1       0.314  10.734  20.221  0.00  0.00    +0.000 NA
ATOM     18  H   UNL     1       0.939  11.489  20.507  0.00  0.00    +0.000 HD
BRANCH  17  19
ATOM     19  C   UNL     1      -1.109  11.091  20.306  0.00  0.00    +0.000 C 
BRANCH  19  24
ATOM     20  C   UNL     1      -3.728  10.468  15.126  0.00  0.00    +0.000 C 
ATOM     21  C   UNL     1      -3.075  10.620  16.468  0.00  0.00    +0.000 A 
ATOM     22  C   UNL     1      -3.559  11.536  17.407  0.00  0.00    +0.000 A 
ATOM     23  C   UNL     1      -2.933  11.681  18.649  0.00  0.00    +0.000 A 
ATOM     24  C   UNL     1      -1.807  10.912  18.977  0.00  0.00    +0.000 A 
ATOM     25  C   UNL     1      -1.329   9.989  18.036  0.00  0.00    +0.000 A 
ATOM     26  C   UNL     1      -1.957   9.845  16.795  0.00  0.00    +0.000 A 
ENDBRANCH  19  24
ENDBRANCH  17  19
ENDBRANCH   1  17
TORSDOF 5
ENDMDL
MODEL 9
REMARK VINA RESULT:      -7.3      0.953      1.501
REMARK  Name = 
REMARK  9 active torsions:
REMARK  status: ('A' for Active; 'I' for Inactive)
REMARK    1  A    between atoms: C_1  and  C_2
REMARK    2  A    between atoms: C_5  and  C_6
REMARK    3  A    between atoms: C_6  and  N_7
REMARK    4  A    between atoms: N_7  and  S_8
REMARK    5  A    between atoms: S_8  and  C_11
REMARK    6  A    between atoms: C_13  and  C_14
REMARK    7  A    between atoms: C_17  and  C_18
REMARK    8  A    between atoms: C_19  and  C_20
REMARK    9  A    between atoms: C_22  and  C_23
REMARK                            x       y       z     vdW  Elec       q    Type
REMARK                         _______ _______ _______ _____ _____    ______ ____
ROOT
ATOM      1  S   UNL     1       2.612   5.458  19.786  0.00  0.00    +0.000 S 
ATOM      2  O   UNL     1       1.996   4.759  18.681  0.00  0.00    +0.000 OA
ATOM      3  O   UNL     1       2.226   5.224  21.157  0.00  0.00    +0.000 OA
ENDROOT
BRANCH   1   4
ATOM      4  C   UNL     1       2.219   7.121  19.498  0.00  0.00    +0.000 A 
ATOM      5  C   UNL     1       1.496   7.931  20.429  0.00  0.00    +0.000 A 
ATOM      6  C   UNL     1       1.258   9.202  19.947  0.00  0.00    +0.000 A 
ATOM      7  S   UNL     1       2.007   9.433  18.429  0.00  0.00    +0.000 S 
ATOM      8  C   UNL     1       2.576   7.824  18.361  0.00  0.00    +0.000 A 
ATOM      9  C   UNL     1       3.353   7.373  17.169  0.00  0.00    +0.000 C 
BRANCH   6  10
ATOM     10  C   UNL     1       0.514  10.238  20.613  0.00  0.00    +0.000 A 
ATOM     11  O   UNL     1       0.460  11.511  20.109  0.00  0.00    +0.000 OA
ATOM     12  N   UNL     1      -0.297  12.322  20.925  0.00  0.00    +0.000 NA
ATOM     13  C   UNL     1      -0.693  11.549  21.938  0.00  0.00    +0.000 A 
ATOM     14  C   UNL     1      -1.518  12.114  23.031  0.00  0.00    +0.000 C 
ATOM     15  C   UNL     1      -0.205  10.220  21.801  0.00  0.00    +0.000 A 
ATOM     16  C   UNL     1      -0.400   9.096  22.750  0.00  0.00    +0.000 C 
ENDBRANCH   6  10
ENDBRANCH   1   4
BRANCH   1  17
ATOM     17  N   UNL     1       4.272   5.228  19.640  0.00  0.00    +0.000 NA
ATOM     18  H   UNL     1       4.702   6.061  19.236  0.00  0.00    +0.000 HD
BRANCH  17  19
ATOM     19  C   UNL     1       4.700   3.979  18.995  0.00  0.00    +0.000 C 
BRANCH  19  24
ATOM     20  C   UNL     1       7.302   4.884  13.848  0.00  0.00    +0.000 C 
ATOM     21  C   UNL     1       6.635   4.676  15.176  0.00  0.00    +0.000 A 
ATOM     22  C   UNL     1       7.316   4.920  16.373  0.00  0.00    +0.000 A 
ATOM     23  C   UNL     1       6.690   4.706  17.604  0.00  0.00    +0.000 A 
ATOM     24  C   UNL     1       5.368   4.242  17.665  0.00  0.00    +0.000 A 
ATOM     25  C   UNL     1       4.686   4.005  16.463  0.00  0.00    +0.000 A 
ATOM     26  C   UNL     1       5.314   4.220  15.232  0.00  0.00    +0.000 A 
ENDBRANCH  19  24
ENDBRANCH  17  19
ENDBRANCH   1  17
TORSDOF 5
ENDMDL
