MODEL 1
REMARK VINA RESULT:      -7.9      0.000      0.000
REMARK  Name = 
REMARK  6 active torsions:
REMARK  status: ('A' for Active; 'I' for Inactive)
REMARK    1  A    between atoms: C_1  and  C_2
REMARK    2  A    between atoms: C_2  and  C_8
REMARK    3  A    between atoms: N_3  and  N_4
REMARK    4  A    between atoms: N_10  and  S_11
REMARK    5  A    between atoms: S_11  and  C_14
REMARK    6  A    between atoms: C_17  and  C_18
REMARK                            x       y       z     vdW  Elec       q    Type
REMARK                         _______ _______ _______ _____ _____    ______ ____
ROOT
ATOM      1  C   UNL     1       2.640   6.922  19.197  0.00  0.00    +0.000 A 
ATOM      2  C   UNL     1       3.983   6.772  18.875  0.00  0.00    +0.000 A 
ATOM      3  N   UNL     1       4.356   5.475  19.144  0.00  0.00    +0.000 N 
ATOM      4  C   UNL     1       3.329   4.775  19.728  0.00  0.00    +0.000 A 
ATOM      5  C   UNL     1       3.235   3.459  20.224  0.00  0.00    +0.000 A 
ATOM      6  C   UNL     1       2.006   3.008  20.711  0.00  0.00    +0.000 A 
ATOM      7  C   UNL     1       0.888   3.821  20.666  0.00  0.00    +0.000 A 
ATOM      8  C   UNL     1       0.975   5.106  20.127  0.00  0.00    +0.000 A 
ATOM      9  C   UNL     1       2.216   5.635  19.703  0.00  0.00    +0.000 A 
ENDROOT
BRANCH   1  11
ATOM     10  C   UNL     1       1.785   8.675  17.526  0.00  0.00    +0.000 C 
ATOM     11  C   UNL     1       1.869   8.155  18.950  0.00  0.00    +0.000 C 
ATOM     12  N   UNL     1       1.217   8.845  19.840  0.00  0.00    +0.000 NA
BRANCH  12  13
ATOM     13  N   UNL     1       1.379   8.588  21.171  0.00  0.00    +0.000 N 
ATOM     14  C   UNL     1       1.038   9.502  22.139  0.00  0.00    +0.000 C 
ATOM     15  N   UNL     1       0.594  10.692  21.666  0.00  0.00    +0.000 N 
ATOM     16  O   UNL     1       1.057   9.243  23.335  0.00  0.00    +0.000 OA
ATOM     17  H   UNL     1       1.598   7.654  21.485  0.00  0.00    +0.000 HD
ATOM     18  H   UNL     1       0.830  10.908  20.708  0.00  0.00    +0.000 HD
ATOM     19  H   UNL     1       0.421  11.432  22.329  0.00  0.00    +0.000 HD
ENDBRANCH  12  13
ENDBRANCH   1  11
BRANCH   3  20
ATOM     20  S   UNL     1       5.929   4.868  18.831  0.00  0.00    +0.000 S 
ATOM     21  O   UNL     1       6.848   5.938  19.170  0.00  0.00    +0.000 OA
ATOM     22  O   UNL     1       5.992   3.574  19.487  0.00  0.00    +0.000 OA
BRANCH  20  23
ATOM     23  C   UNL     1       5.980   4.590  17.082  0.00  0.00    +0.000 A 
ATOM     24  C   UNL     1       4.872   4.050  16.424  0.00  0.00    +0.000 A 
ATOM     25  C   UNL     1       4.935   3.810  15.049  0.00  0.00    +0.000 A 
ATOM     26  C   UNL     1       6.099   4.111  14.328  0.00  0.00    +0.000 A 
ATOM     27  C   UNL     1       6.207   3.790  12.866  0.00  0.00    +0.000 C 
ATOM     28  C   UNL     1       7.175   4.717  14.990  0.00  0.00    +0.000 A 
ATOM     29  C   UNL     1       7.119   4.960  16.363  0.00  0.00    +0.000 A 
ENDBRANCH  20  23
ENDBRANCH   3  20
TORSDOF 4
ENDMDL
MODEL 2
REMARK VINA RESULT:      -7.8      3.310      4.648
REMARK  Name = 
REMARK  6 active torsions:
REMARK  status: ('A' for Active; 'I' for Inactive)
REMARK    1  A    between atoms: C_1  and  C_2
REMARK    2  A    between atoms: C_2  and  C_8
REMARK    3  A    between atoms: N_3  and  N_4
REMARK    4  A    between atoms: N_10  and  S_11
REMARK    5  A    between atoms: S_11  and  C_14
REMARK    6  A    between atoms: C_17  and  C_18
REMARK                            x       y       z     vdW  Elec       q    Type
REMARK                         _______ _______ _______ _____ _____    ______ ____
ROOT
ATOM      1  C   UNL     1       4.385   3.623  18.917  0.00  0.00    +0.000 A 
ATOM      2  C   UNL     1       5.504   3.625  18.094  0.00  0.00    +0.000 A 
ATOM      3  N   UNL     1       5.613   4.866  17.508  0.00  0.00    +0.000 N 
ATOM      4  C   UNL     1       4.548   5.666  17.839  0.00  0.00    +0.000 A 
ATOM      5  C   UNL     1       4.185   6.974  17.458  0.00  0.00    +0.000 A 
ATOM      6  C   UNL     1       3.049   7.552  18.030  0.00  0.00    +0.000 A 
ATOM      7  C   UNL     1       2.317   6.872  18.987  0.00  0.00    +0.000 A 
ATOM      8  C   UNL     1       2.710   5.597  19.397  0.00  0.00    +0.000 A 
ATOM      9  C   UNL     1       3.801   4.939  18.783  0.00  0.00    +0.000 A 
ENDROOT
BRANCH   1  11
ATOM     10  C   UNL     1       4.995   2.035  20.842  0.00  0.00    +0.000 C 
ATOM     11  C   UNL     1       4.006   2.490  19.784  0.00  0.00    +0.000 C 
ATOM     12  N   UNL     1       2.877   1.843  19.753  0.00  0.00    +0.000 NA
BRANCH  12  13
ATOM     13  N   UNL     1       1.998   2.034  18.726  0.00  0.00    +0.000 N 
ATOM     14  C   UNL     1       0.771   2.624  18.916  0.00  0.00    +0.000 C 
ATOM     15  N   UNL     1       0.483   2.938  20.203  0.00  0.00    +0.000 N 
ATOM     16  O   UNL     1       0.024   2.917  17.991  0.00  0.00    +0.000 OA
ATOM     17  H   UNL     1       2.293   1.898  17.771  0.00  0.00    +0.000 HD
ATOM     18  H   UNL     1       1.024   2.461  20.910  0.00  0.00    +0.000 HD
ATOM     19  H   UNL     1      -0.441   3.285  20.412  0.00  0.00    +0.000 HD
ENDBRANCH  12  13
ENDBRANCH   1  11
BRANCH   3  20
ATOM     20  S   UNL     1       6.900   5.297  16.459  0.00  0.00    +0.000 S 
ATOM     21  O   UNL     1       6.893   6.745  16.389  0.00  0.00    +0.000 OA
ATOM     22  O   UNL     1       8.059   4.562  16.933  0.00  0.00    +0.000 OA
BRANCH  20  23
ATOM     23  C   UNL     1       6.451   4.635  14.878  0.00  0.00    +0.000 A 
ATOM     24  C   UNL     1       5.168   4.125  14.669  0.00  0.00    +0.000 A 
ATOM     25  C   UNL     1       4.835   3.580  13.425  0.00  0.00    +0.000 A 
ATOM     26  C   UNL     1       5.779   3.549  12.389  0.00  0.00    +0.000 A 
ATOM     27  C   UNL     1       5.459   2.901  11.072  0.00  0.00    +0.000 C 
ATOM     28  C   UNL     1       7.038   4.129  12.592  0.00  0.00    +0.000 A 
ATOM     29  C   UNL     1       7.377   4.674  13.832  0.00  0.00    +0.000 A 
ENDBRANCH  20  23
ENDBRANCH   3  20
TORSDOF 4
ENDMDL
MODEL 3
REMARK VINA RESULT:      -7.6      3.674      5.544
REMARK  Name = 
REMARK  6 active torsions:
REMARK  status: ('A' for Active; 'I' for Inactive)
REMARK    1  A    between atoms: C_1  and  C_2
REMARK    2  A    between atoms: C_2  and  C_8
REMARK    3  A    between atoms: N_3  and  N_4
REMARK    4  A    between atoms: N_10  and  S_11
REMARK    5  A    between atoms: S_11  and  C_14
REMARK    6  A    between atoms: C_17  and  C_18
REMARK                            x       y       z     vdW  Elec       q    Type
REMARK                         _______ _______ _______ _____ _____    ______ ____
ROOT
ATOM      1  C   UNL     1       4.267   3.608  18.973  0.00  0.00    +0.000 A 
ATOM      2  C   UNL     1       5.318   3.745  18.075  0.00  0.00    +0.000 A 
ATOM      3  N   UNL     1       5.335   5.042  17.615  0.00  0.00    +0.000 N 
ATOM      4  C   UNL     1       4.268   5.755  18.104  0.00  0.00    +0.000 A 
ATOM      5  C   UNL     1       3.827   7.077  17.888  0.00  0.00    +0.000 A 
ATOM      6  C   UNL     1       2.716   7.541  18.597  0.00  0.00    +0.000 A 
ATOM      7  C   UNL     1       2.086   6.735  19.529  0.00  0.00    +0.000 A 
ATOM      8  C   UNL     1       2.558   5.445  19.774  0.00  0.00    +0.000 A 
ATOM      9  C   UNL     1       3.624   4.903  19.019  0.00  0.00    +0.000 A 
ENDROOT
BRANCH   1  11
ATOM     10  C   UNL     1       5.053   1.906  20.729  0.00  0.00    +0.000 C 
ATOM     11  C   UNL     1       3.999   2.378  19.742  0.00  0.00    +0.000 C 
ATOM     12  N   UNL     1       2.920   1.653  19.681  0.00  0.00    +0.000 NA
BRANCH  12  13
ATOM     13  N   UNL     1       1.997   1.867  18.699  0.00  0.00    +0.000 N 
ATOM     14  C   UNL     1       0.782   2.455  18.955  0.00  0.00    +0.000 C 
ATOM     15  N   UNL     1       0.552   2.743  20.259  0.00  0.00    +0.000 N 
ATOM     16  O   UNL     1      -0.005   2.769  18.070  0.00  0.00    +0.000 OA
ATOM     17  H   UNL     1       2.250   1.750  17.729  0.00  0.00    +0.000 HD
ATOM     18  H   UNL     1       1.122   2.250  20.932  0.00  0.00    +0.000 HD
ATOM     19  H   UNL     1      -0.361   3.087  20.516  0.00  0.00    +0.000 HD
ENDBRANCH  12  13
ENDBRANCH   1  11
BRANCH   3  20
ATOM     20  S   UNL     1       6.520   5.635  16.526  0.00  0.00    +0.000 S 
ATOM     21  O   UNL     1       7.473   4.558  16.344  0.00  0.00    +0.000 OA
ATOM     22  O   UNL     1       5.783   6.197  15.408  0.00  0.00    +0.000 OA
BRANCH  20  23
ATOM     23  C   UNL     1       7.308   6.972  17.380  0.00  0.00    +0.000 A 
ATOM     24  C   UNL     1       7.157   8.284  16.923  0.00  0.00    +0.000 A 
ATOM     25  C   UNL     1       7.806   9.326  17.590  0.00  0.00    +0.000 A 
ATOM     26  C   UNL     1       8.603   9.064  18.714  0.00  0.00    +0.000 A 
ATOM     27  C   UNL     1       9.365  10.163  19.395  0.00  0.00    +0.000 C 
ATOM     28  C   UNL     1       8.686   7.752  19.201  0.00  0.00    +0.000 A 
ATOM     29  C   UNL     1       8.040   6.706  18.540  0.00  0.00    +0.000 A 
ENDBRANCH  20  23
ENDBRANCH   3  20
TORSDOF 4
ENDMDL
MODEL 4
REMARK VINA RESULT:      -7.5      4.728      7.488
REMARK  Name = 
REMARK  6 active torsions:
REMARK  status: ('A' for Active; 'I' for Inactive)
REMARK    1  A    between atoms: C_1  and  C_2
REMARK    2  A    between atoms: C_2  and  C_8
REMARK    3  A    between atoms: N_3  and  N_4
REMARK    4  A    between atoms: N_10  and  S_11
REMARK    5  A    between atoms: S_11  and  C_14
REMARK    6  A    between atoms: C_17  and  C_18
REMARK                            x       y       z     vdW  Elec       q    Type
REMARK                         _______ _______ _______ _____ _____    ______ ____
ROOT
ATOM      1  C   UNL     1      -1.837  11.415  18.781  0.00  0.00    +0.000 A 
ATOM      2  C   UNL     1      -1.483  10.269  19.481  0.00  0.00    +0.000 A 
ATOM      3  N   UNL     1      -0.220  10.447  20.000  0.00  0.00    +0.000 N 
ATOM      4  C   UNL     1       0.322  11.639  19.588  0.00  0.00    +0.000 A 
ATOM      5  C   UNL     1       1.580  12.237  19.804  0.00  0.00    +0.000 A 
ATOM      6  C   UNL     1       1.814  13.518  19.295  0.00  0.00    +0.000 A 
ATOM      7  C   UNL     1       0.814  14.206  18.631  0.00  0.00    +0.000 A 
ATOM      8  C   UNL     1      -0.445  13.628  18.464  0.00  0.00    +0.000 A 
ATOM      9  C   UNL     1      -0.700  12.302  18.885  0.00  0.00    +0.000 A 
ENDROOT
BRANCH   1  11
ATOM     10  C   UNL     1      -4.301  12.085  19.062  0.00  0.00    +0.000 C 
ATOM     11  C   UNL     1      -3.163  11.626  18.168  0.00  0.00    +0.000 C 
ATOM     12  N   UNL     1      -3.460  11.482  16.909  0.00  0.00    +0.000 NA
BRANCH  12  13
ATOM     13  N   UNL     1      -2.576  10.892  16.053  0.00  0.00    +0.000 N 
ATOM     14  C   UNL     1      -2.985  10.252  14.907  0.00  0.00    +0.000 C 
ATOM     15  N   UNL     1      -4.329  10.199  14.733  0.00  0.00    +0.000 N 
ATOM     16  O   UNL     1      -2.203   9.829  14.066  0.00  0.00    +0.000 OA
ATOM     17  H   UNL     1      -1.585  11.054  16.153  0.00  0.00    +0.000 HD
ATOM     18  H   UNL     1      -4.891  10.349  15.559  0.00  0.00    +0.000 HD
ATOM     19  H   UNL     1      -4.687   9.660  13.960  0.00  0.00    +0.000 HD
ENDBRANCH  12  13
ENDBRANCH   1  11
BRANCH   3  20
ATOM     20  S   UNL     1       0.562   9.277  20.981  0.00  0.00    +0.000 S 
ATOM     21  O   UNL     1       1.415  10.021  21.889  0.00  0.00    +0.000 OA
ATOM     22  O   UNL     1      -0.489   8.402  21.468  0.00  0.00    +0.000 OA
BRANCH  20  23
ATOM     23  C   UNL     1       1.574   8.340  19.869  0.00  0.00    +0.000 A 
ATOM     24  C   UNL     1       2.084   7.100  20.259  0.00  0.00    +0.000 A 
ATOM     25  C   UNL     1       2.904   6.383  19.383  0.00  0.00    +0.000 A 
ATOM     26  C   UNL     1       3.211   6.899  18.116  0.00  0.00    +0.000 A 
ATOM     27  C   UNL     1       4.149   6.176  17.194  0.00  0.00    +0.000 C 
ATOM     28  C   UNL     1       2.634   8.111  17.713  0.00  0.00    +0.000 A 
ATOM     29  C   UNL     1       1.815   8.832  18.583  0.00  0.00    +0.000 A 
ENDBRANCH  20  23
ENDBRANCH   3  20
TORSDOF 4
ENDMDL
MODEL 5
REMARK VINA RESULT:      -7.5      3.139      6.696
REMARK  Name = 
REMARK  6 active torsions:
REMARK  status: ('A' for Active; 'I' for Inactive)
REMARK    1  A    between atoms: C_1  and  C_2
REMARK    2  A    between atoms: C_2  and  C_8
REMARK    3  A    between atoms: N_3  and  N_4
REMARK    4  A    between atoms: N_10  and  S_11
REMARK    5  A    between atoms: S_11  and  C_14
REMARK    6  A    between atoms: C_17  and  C_18
REMARK                            x       y       z     vdW  Elec       q    Type
REMARK                         _______ _______ _______ _____ _____    ______ ____
ROOT
ATOM      1  C   UNL     1       6.658   5.669  18.526  0.00  0.00    +0.000 A 
ATOM      2  C   UNL     1       5.419   5.648  19.153  0.00  0.00    +0.000 A 
ATOM      3  N   UNL     1       4.499   5.105  18.287  0.00  0.00    +0.000 N 
ATOM      4  C   UNL     1       5.063   4.848  17.062  0.00  0.00    +0.000 A 
ATOM      5  C   UNL     1       4.532   4.350  15.854  0.00  0.00    +0.000 A 
ATOM      6  C   UNL     1       5.395   4.134  14.777  0.00  0.00    +0.000 A 
ATOM      7  C   UNL     1       6.753   4.360  14.904  0.00  0.00    +0.000 A 
ATOM      8  C   UNL     1       7.280   4.805  16.117  0.00  0.00    +0.000 A 
ATOM      9  C   UNL     1       6.435   5.120  17.207  0.00  0.00    +0.000 A 
ENDROOT
BRANCH   1  11
ATOM     10  C   UNL     1       8.492   5.197  20.262  0.00  0.00    +0.000 C 
ATOM     11  C   UNL     1       7.907   6.096  19.188  0.00  0.00    +0.000 C 
ATOM     12  N   UNL     1       8.587   7.173  18.923  0.00  0.00    +0.000 NA
BRANCH  12  13
ATOM     13  N   UNL     1       8.061   8.144  18.121  0.00  0.00    +0.000 N 
ATOM     14  C   UNL     1       8.392   9.471  18.268  0.00  0.00    +0.000 C 
ATOM     15  N   UNL     1       9.224   9.739  19.304  0.00  0.00    +0.000 N 
ATOM     16  O   UNL     1       8.030  10.337  17.482  0.00  0.00    +0.000 OA
ATOM     17  H   UNL     1       7.543   7.895  17.292  0.00  0.00    +0.000 HD
ATOM     18  H   UNL     1       9.280   9.033  20.025  0.00  0.00    +0.000 HD
ATOM     19  H   UNL     1       9.423  10.704  19.515  0.00  0.00    +0.000 HD
ENDBRANCH  12  13
ENDBRANCH   1  11
BRANCH   3  20
ATOM     20  S   UNL     1       2.854   4.852  18.703  0.00  0.00    +0.000 S 
ATOM     21  O   UNL     1       2.187   4.450  17.480  0.00  0.00    +0.000 OA
ATOM     22  O   UNL     1       2.870   3.999  19.878  0.00  0.00    +0.000 OA
BRANCH  20  23
ATOM     23  C   UNL     1       2.251   6.442  19.199  0.00  0.00    +0.000 A 
ATOM     24  C   UNL     1       1.801   6.647  20.505  0.00  0.00    +0.000 A 
ATOM     25  C   UNL     1       1.302   7.899  20.875  0.00  0.00    +0.000 A 
ATOM     26  C   UNL     1       1.255   8.948  19.946  0.00  0.00    +0.000 A 
ATOM     27  C   UNL     1       0.654  10.275  20.308  0.00  0.00    +0.000 C 
ATOM     28  C   UNL     1       1.777   8.747  18.661  0.00  0.00    +0.000 A 
ATOM     29  C   UNL     1       2.276   7.499  18.284  0.00  0.00    +0.000 A 
ENDBRANCH  20  23
ENDBRANCH   3  20
TORSDOF 4
ENDMDL
MODEL 6
REMARK VINA RESULT:      -7.4      4.520      7.234
REMARK  Name = 
REMARK  6 active torsions:
REMARK  status: ('A' for Active; 'I' for Inactive)
REMARK    1  A    between atoms: C_1  and  C_2
REMARK    2  A    between atoms: C_2  and  C_8
REMARK    3  A    between atoms: N_3  and  N_4
REMARK    4  A    between atoms: N_10  and  S_11
REMARK    5  A    between atoms: S_11  and  C_14
REMARK    6  A    between atoms: C_17  and  C_18
REMARK                            x       y       z     vdW  Elec       q    Type
REMARK                         _______ _______ _______ _____ _____    ______ ____
ROOT
ATOM      1  C   UNL     1      -1.590  11.193  18.313  0.00  0.00    +0.000 A 
ATOM      2  C   UNL     1      -1.230  10.063  19.035  0.00  0.00    +0.000 A 
ATOM      3  N   UNL     1      -0.141  10.373  19.817  0.00  0.00    +0.000 N 
ATOM      4  C   UNL     1       0.301  11.649  19.570  0.00  0.00    +0.000 A 
ATOM      5  C   UNL     1       1.389  12.393  20.069  0.00  0.00    +0.000 A 
ATOM      6  C   UNL     1       1.539  13.722  19.664  0.00  0.00    +0.000 A 
ATOM      7  C   UNL     1       0.612  14.312  18.824  0.00  0.00    +0.000 A 
ATOM      8  C   UNL     1      -0.491  13.586  18.373  0.00  0.00    +0.000 A 
ATOM      9  C   UNL     1      -0.636  12.214  18.687  0.00  0.00    +0.000 A 
ENDROOT
BRANCH   1  11
ATOM     10  C   UNL     1      -2.643  10.773  16.008  0.00  0.00    +0.000 C 
ATOM     11  C   UNL     1      -2.777  11.265  17.438  0.00  0.00    +0.000 C 
ATOM     12  N   UNL     1      -3.958  11.691  17.779  0.00  0.00    +0.000 NA
BRANCH  12  13
ATOM     13  N   UNL     1      -4.146  12.333  18.969  0.00  0.00    +0.000 N 
ATOM     14  C   UNL     1      -5.300  12.189  19.702  0.00  0.00    +0.000 C 
ATOM     15  N   UNL     1      -6.252  11.419  19.120  0.00  0.00    +0.000 N 
ATOM     16  O   UNL     1      -5.436  12.654  20.826  0.00  0.00    +0.000 OA
ATOM     17  H   UNL     1      -3.375  12.798  19.424  0.00  0.00    +0.000 HD
ATOM     18  H   UNL     1      -6.164  11.278  18.124  0.00  0.00    +0.000 HD
ATOM     19  H   UNL     1      -7.153  11.358  19.569  0.00  0.00    +0.000 HD
ENDBRANCH  12  13
ENDBRANCH   1  11
BRANCH   3  20
ATOM     20  S   UNL     1       0.579   9.258  20.905  0.00  0.00    +0.000 S 
ATOM     21  O   UNL     1       1.416  10.045  21.791  0.00  0.00    +0.000 OA
ATOM     22  O   UNL     1      -0.508   8.440  21.410  0.00  0.00    +0.000 OA
BRANCH  20  23
ATOM     23  C   UNL     1       1.608   8.226  19.898  0.00  0.00    +0.000 A 
ATOM     24  C   UNL     1       2.067   8.684  18.660  0.00  0.00    +0.000 A 
ATOM     25  C   UNL     1       2.855   7.849  17.863  0.00  0.00    +0.000 A 
ATOM     26  C   UNL     1       3.191   6.560  18.301  0.00  0.00    +0.000 A 
ATOM     27  C   UNL     1       3.974   5.627  17.424  0.00  0.00    +0.000 C 
ATOM     28  C   UNL     1       2.783   6.142  19.575  0.00  0.00    +0.000 A 
ATOM     29  C   UNL     1       1.995   6.971  20.376  0.00  0.00    +0.000 A 
ENDBRANCH  20  23
ENDBRANCH   3  20
TORSDOF 4
ENDMDL
MODEL 7
REMARK VINA RESULT:      -7.4      3.151      4.765
REMARK  Name = 
REMARK  6 active torsions:
REMARK  status: ('A' for Active; 'I' for Inactive)
REMARK    1  A    between atoms: C_1  and  C_2
REMARK    2  A    between atoms: C_2  and  C_8
REMARK    3  A    between atoms: N_3  and  N_4
REMARK    4  A    between atoms: N_10  and  S_11
REMARK    5  A    between atoms: S_11  and  C_14
REMARK    6  A    between atoms: C_17  and  C_18
REMARK                            x       y       z     vdW  Elec       q    Type
REMARK                         _______ _______ _______ _____ _____    ______ ____
ROOT
ATOM      1  C   UNL     1       3.715   4.767  19.517  0.00  0.00    +0.000 A 
ATOM      2  C   UNL     1       4.975   4.505  18.994  0.00  0.00    +0.000 A 
ATOM      3  N   UNL     1       5.331   5.548  18.169  0.00  0.00    +0.000 N 
ATOM      4  C   UNL     1       4.309   6.456  18.047  0.00  0.00    +0.000 A 
ATOM      5  C   UNL     1       4.170   7.638  17.292  0.00  0.00    +0.000 A 
ATOM      6  C   UNL     1       3.005   8.397  17.434  0.00  0.00    +0.000 A 
ATOM      7  C   UNL     1       2.024   8.020  18.334  0.00  0.00    +0.000 A 
ATOM      8  C   UNL     1       2.189   6.876  19.115  0.00  0.00    +0.000 A 
ATOM      9  C   UNL     1       3.311   6.031  18.942  0.00  0.00    +0.000 A 
ENDROOT
BRANCH   1  11
ATOM     10  C   UNL     1       2.275   4.591  21.636  0.00  0.00    +0.000 C 
ATOM     11  C   UNL     1       3.049   3.914  20.519  0.00  0.00    +0.000 C 
ATOM     12  N   UNL     1       3.033   2.613  20.532  0.00  0.00    +0.000 NA
BRANCH  12  13
ATOM     13  N   UNL     1       3.847   1.902  19.699  0.00  0.00    +0.000 N 
ATOM     14  C   UNL     1       3.407   1.408  18.494  0.00  0.00    +0.000 C 
ATOM     15  N   UNL     1       2.095   1.625  18.235  0.00  0.00    +0.000 N 
ATOM     16  O   UNL     1       4.153   0.880  17.680  0.00  0.00    +0.000 OA
ATOM     17  H   UNL     1       4.841   1.864  19.869  0.00  0.00    +0.000 HD
ATOM     18  H   UNL     1       1.513   1.843  19.031  0.00  0.00    +0.000 HD
ATOM     19  H   UNL     1       1.697   1.202  17.410  0.00  0.00    +0.000 HD
ENDBRANCH  12  13
ENDBRANCH   1  11
BRANCH   3  20
ATOM     20  S   UNL     1       6.846   5.634  17.368  0.00  0.00    +0.000 S 
ATOM     21  O   UNL     1       7.150   7.046  17.234  0.00  0.00    +0.000 OA
ATOM     22  O   UNL     1       7.725   4.730  18.088  0.00  0.00    +0.000 OA
BRANCH  20  23
ATOM     23  C   UNL     1       6.561   4.945  15.761  0.00  0.00    +0.000 A 
ATOM     24  C   UNL     1       5.403   4.206  15.509  0.00  0.00    +0.000 A 
ATOM     25  C   UNL     1       5.204   3.645  14.244  0.00  0.00    +0.000 A 
ATOM     26  C   UNL     1       6.156   3.822  13.231  0.00  0.00    +0.000 A 
ATOM     27  C   UNL     1       5.991   3.164  11.892  0.00  0.00    +0.000 C 
ATOM     28  C   UNL     1       7.277   4.624  13.479  0.00  0.00    +0.000 A 
ATOM     29  C   UNL     1       7.483   5.188  14.739  0.00  0.00    +0.000 A 
ENDBRANCH  20  23
ENDBRANCH   3  20
TORSDOF 4
ENDMDL
MODEL 8
REMARK VINA RESULT:      -7.3      2.928      7.230
REMARK  Name = 
REMARK  6 active torsions:
REMARK  status: ('A' for Active; 'I' for Inactive)
REMARK    1  A    between atoms: C_1  and  C_2
REMARK    2  A    between atoms: C_2  and  C_8
REMARK    3  A    between atoms: N_3  and  N_4
REMARK    4  A    between atoms: N_10  and  S_11
REMARK    5  A    between atoms: S_11  and  C_14
REMARK    6  A    between atoms: C_17  and  C_18
REMARK                            x       y       z     vdW  Elec       q    Type
REMARK                         _______ _______ _______ _____ _____    ______ ____
ROOT
ATOM      1  C   UNL     1       5.110   5.494  18.358  0.00  0.00    +0.000 A 
ATOM      2  C   UNL     1       4.535   6.683  17.929  0.00  0.00    +0.000 A 
ATOM      3  N   UNL     1       3.190   6.649  18.220  0.00  0.00    +0.000 N 
ATOM      4  C   UNL     1       2.828   5.433  18.745  0.00  0.00    +0.000 A 
ATOM      5  C   UNL     1       1.584   4.902  19.145  0.00  0.00    +0.000 A 
ATOM      6  C   UNL     1       1.548   3.626  19.714  0.00  0.00    +0.000 A 
ATOM      7  C   UNL     1       2.716   2.915  19.925  0.00  0.00    +0.000 A 
ATOM      8  C   UNL     1       3.948   3.467  19.572  0.00  0.00    +0.000 A 
ATOM      9  C   UNL     1       4.025   4.716  18.915  0.00  0.00    +0.000 A 
ENDROOT
BRANCH   1  11
ATOM     10  C   UNL     1       7.457   5.867  19.334  0.00  0.00    +0.000 C 
ATOM     11  C   UNL     1       6.558   5.214  18.299  0.00  0.00    +0.000 C 
ATOM     12  N   UNL     1       7.154   4.428  17.451  0.00  0.00    +0.000 NA
BRANCH  12  13
ATOM     13  N   UNL     1       6.483   3.944  16.366  0.00  0.00    +0.000 N 
ATOM     14  C   UNL     1       6.732   4.396  15.092  0.00  0.00    +0.000 C 
ATOM     15  N   UNL     1       7.642   5.398  15.011  0.00  0.00    +0.000 N 
ATOM     16  O   UNL     1       6.233   3.887  14.096  0.00  0.00    +0.000 OA
ATOM     17  H   UNL     1       5.905   3.122  16.450  0.00  0.00    +0.000 HD
ATOM     18  H   UNL     1       7.820   5.909  15.864  0.00  0.00    +0.000 HD
ATOM     19  H   UNL     1       7.792   5.832  14.113  0.00  0.00    +0.000 HD
ENDBRANCH  12  13
ENDBRANCH   1  11
BRANCH   3  20
ATOM     20  S   UNL     1       2.128   7.957  17.898  0.00  0.00    +0.000 S 
ATOM     21  O   UNL     1       2.949   9.012  17.335  0.00  0.00    +0.000 OA
ATOM     22  O   UNL     1       1.011   7.388  17.166  0.00  0.00    +0.000 OA
BRANCH  20  23
ATOM     23  C   UNL     1       1.529   8.470  19.484  0.00  0.00    +0.000 A 
ATOM     24  C   UNL     1       1.888   7.762  20.634  0.00  0.00    +0.000 A 
ATOM     25  C   UNL     1       1.386   8.160  21.876  0.00  0.00    +0.000 A 
ATOM     26  C   UNL     1       0.529   9.266  21.974  0.00  0.00    +0.000 A 
ATOM     27  C   UNL     1      -0.076   9.660  23.289  0.00  0.00    +0.000 C 
ATOM     28  C   UNL     1       0.236  10.008  20.821  0.00  0.00    +0.000 A 
ATOM     29  C   UNL     1       0.734   9.615  19.578  0.00  0.00    +0.000 A 
ENDBRANCH  20  23
ENDBRANCH   3  20
TORSDOF 4
ENDMDL
MODEL 9
REMARK VINA RESULT:      -7.1      7.153     10.596
REMARK  Name = 
REMARK  6 active torsions:
REMARK  status: ('A' for Active; 'I' for Inactive)
REMARK    1  A    between atoms: C_1  and  C_2
REMARK    2  A    between atoms: C_2  and  C_8
REMARK    3  A    between atoms: N_3  and  N_4
REMARK    4  A    between atoms: N_10  and  S_11
REMARK    5  A    between atoms: S_11  and  C_14
REMARK    6  A    between atoms: C_17  and  C_18
REMARK                            x       y       z     vdW  Elec       q    Type
REMARK                         _______ _______ _______ _____ _____    ______ ____
ROOT
ATOM      1  C   UNL     1      -5.037  12.427  19.566  0.00  0.00    +0.000 A 
ATOM      2  C   UNL     1      -3.768  12.796  19.994  0.00  0.00    +0.000 A 
ATOM      3  N   UNL     1      -3.792  12.937  21.363  0.00  0.00    +0.000 N 
ATOM      4  C   UNL     1      -5.062  12.766  21.856  0.00  0.00    +0.000 A 
ATOM      5  C   UNL     1      -5.598  12.860  23.157  0.00  0.00    +0.000 A 
ATOM      6  C   UNL     1      -6.948  12.559  23.353  0.00  0.00    +0.000 A 
ATOM      7  C   UNL     1      -7.736  12.132  22.299  0.00  0.00    +0.000 A 
ATOM      8  C   UNL     1      -7.187  11.993  21.023  0.00  0.00    +0.000 A 
ATOM      9  C   UNL     1      -5.849  12.369  20.761  0.00  0.00    +0.000 A 
ENDROOT
BRANCH   1  11
ATOM     10  C   UNL     1      -6.608  12.715  17.554  0.00  0.00    +0.000 C 
ATOM     11  C   UNL     1      -5.366  12.092  18.166  0.00  0.00    +0.000 C 
ATOM     12  N   UNL     1      -4.674  11.323  17.377  0.00  0.00    +0.000 NA
BRANCH  12  13
ATOM     13  N   UNL     1      -3.656  10.561  17.871  0.00  0.00    +0.000 N 
ATOM     14  C   UNL     1      -2.380  10.630  17.365  0.00  0.00    +0.000 C 
ATOM     15  N   UNL     1      -2.233  11.460  16.303  0.00  0.00    +0.000 N 
ATOM     16  O   UNL     1      -1.429  10.051  17.874  0.00  0.00    +0.000 OA
ATOM     17  H   UNL     1      -3.775  10.048  18.732  0.00  0.00    +0.000 HD
ATOM     18  H   UNL     1      -3.079  11.704  15.807  0.00  0.00    +0.000 HD
ATOM     19  H   UNL     1      -1.341  11.477  15.833  0.00  0.00    +0.000 HD
ENDBRANCH  12  13
ENDBRANCH   1  11
BRANCH   3  20
ATOM     20  S   UNL     1      -2.404  13.333  22.288  0.00  0.00    +0.000 S 
ATOM     21  O   UNL     1      -1.814  14.495  21.651  0.00  0.00    +0.000 OA
ATOM     22  O   UNL     1      -2.846  13.366  23.671  0.00  0.00    +0.000 OA
BRANCH  20  23
ATOM     23  C   UNL     1      -1.312  11.951  22.103  0.00  0.00    +0.000 A 
ATOM     24  C   UNL     1      -0.457  11.874  21.001  0.00  0.00    +0.000 A 
ATOM     25  C   UNL     1       0.380  10.764  20.852  0.00  0.00    +0.000 A 
ATOM     26  C   UNL     1       0.369   9.734  21.803  0.00  0.00    +0.000 A 
ATOM     27  C   UNL     1       1.207   8.503  21.618  0.00  0.00    +0.000 C 
ATOM     28  C   UNL     1      -0.442   9.860  22.938  0.00  0.00    +0.000 A 
ATOM     29  C   UNL     1      -1.281  10.966  23.093  0.00  0.00    +0.000 A 
ENDBRANCH  20  23
ENDBRANCH   3  20
TORSDOF 4
ENDMDL
