MODEL 1
REMARK VINA RESULT:      -8.0      0.000      0.000
REMARK  Name = 
REMARK  5 active torsions:
REMARK  status: ('A' for Active; 'I' for Inactive)
REMARK    1  A    between atoms: N_2  and  C_4
REMARK    2  A    between atoms: C_7  and  C_8
REMARK    3  A    between atoms: C_8  and  O_9
REMARK    4  A    between atoms: C_8  and  C_10
REMARK    5  A    between atoms: C_10  and  C_11
REMARK                            x       y       z     vdW  Elec       q    Type
REMARK                         _______ _______ _______ _____ _____    ______ ____
ROOT
ATOM      1  C   UNL     1       1.804   8.858  17.916  0.00  0.00    +0.000 C 
ENDROOT
BRANCH   1   5
ATOM      2  C   UNL     1       0.170   9.715  21.846  0.00  0.00    +0.000 A 
ATOM      3  C   UNL     1      -0.177  10.524  20.759  0.00  0.00    +0.000 A 
ATOM      4  C   UNL     1       0.328  10.217  19.488  0.00  0.00    +0.000 A 
ATOM      5  C   UNL     1       1.167   9.101  19.284  0.00  0.00    +0.000 A 
ATOM      6  C   UNL     1       1.518   8.325  20.400  0.00  0.00    +0.000 A 
ATOM      7  C   UNL     1       1.019   8.620  21.671  0.00  0.00    +0.000 A 
BRANCH   2   9
ATOM      8  O   UNL     1       0.347   9.662  24.156  0.00  0.00    +0.000 OA
ATOM      9  N   UNL     1      -0.332  10.030  23.187  0.00  0.00    +0.000 N 
ATOM     10  O   UNL     1      -1.406  10.645  23.274  0.00  0.00    +0.000 OA
ENDBRANCH   2   9
ENDBRANCH   1   5
BRANCH   1  11
ATOM     11  O   UNL     1       1.853  10.140  17.282  0.00  0.00    +0.000 OA
ATOM     12  H   UNL     1       2.723  10.535  17.421  0.00  0.00    +0.000 HD
ENDBRANCH   1  11
BRANCH   1  13
ATOM     13  C   UNL     1       3.221   8.212  17.933  0.00  0.00    +0.000 C 
BRANCH  13  14
ATOM     14  C   UNL     1       3.346   6.706  17.730  0.00  0.00    +0.000 A 
ATOM     15  C   UNL     1       4.532   6.114  17.318  0.00  0.00    +0.000 A 
ATOM     16  C   UNL     1       4.608   4.736  17.196  0.00  0.00    +0.000 A 
ATOM     17  C   UNL     1       3.543   3.949  17.610  0.00  0.00    +0.000 A 
ATOM     18  C   UNL     1       3.675   2.552  17.623  0.00  0.00    +0.000 A 
ATOM     19  C   UNL     1       2.686   1.762  18.189  0.00  0.00    +0.000 A 
ATOM     20  C   UNL     1       1.539   2.371  18.680  0.00  0.00    +0.000 A 
ATOM     21  C   UNL     1       1.388   3.766  18.600  0.00  0.00    +0.000 A 
ATOM     22  C   UNL     1       2.382   4.591  18.085  0.00  0.00    +0.000 A 
ATOM     23  N   UNL     1       2.272   5.946  18.098  0.00  0.00    +0.000 NA
ENDBRANCH  13  14
ENDBRANCH   1  13
TORSDOF 5
ENDMDL
MODEL 2
REMARK VINA RESULT:      -7.9      0.185      1.239
REMARK  Name = 
REMARK  5 active torsions:
REMARK  status: ('A' for Active; 'I' for Inactive)
REMARK    1  A    between atoms: N_2  and  C_4
REMARK    2  A    between atoms: C_7  and  C_8
REMARK    3  A    between atoms: C_8  and  O_9
REMARK    4  A    between atoms: C_8  and  C_10
REMARK    5  A    between atoms: C_10  and  C_11
REMARK                            x       y       z     vdW  Elec       q    Type
REMARK                         _______ _______ _______ _____ _____    ______ ____
ROOT
ATOM      1  C   UNL     1       1.859   8.716  17.975  0.00  0.00    +0.000 C 
ENDROOT
BRANCH   1   5
ATOM      2  C   UNL     1       0.285   9.687  21.903  0.00  0.00    +0.000 A 
ATOM      3  C   UNL     1       1.092   8.557  21.739  0.00  0.00    +0.000 A 
ATOM      4  C   UNL     1       1.625   8.273  20.473  0.00  0.00    +0.000 A 
ATOM      5  C   UNL     1       1.372   9.112  19.368  0.00  0.00    +0.000 A 
ATOM      6  C   UNL     1       0.535  10.224  19.559  0.00  0.00    +0.000 A 
ATOM      7  C   UNL     1       0.001  10.518  20.816  0.00  0.00    +0.000 A 
BRANCH   2   9
ATOM      8  O   UNL     1      -1.357  10.634  23.236  0.00  0.00    +0.000 OA
ATOM      9  N   UNL     1      -0.297   9.992  23.213  0.00  0.00    +0.000 N 
ATOM     10  O   UNL     1       0.305   9.590  24.221  0.00  0.00    +0.000 OA
ENDBRANCH   2   9
ENDBRANCH   1   5
BRANCH   1  11
ATOM     11  O   UNL     1       1.823   9.918  17.198  0.00  0.00    +0.000 OA
ATOM     12  H   UNL     1       2.338  10.603  17.642  0.00  0.00    +0.000 HD
ENDBRANCH   1  11
BRANCH   1  13
ATOM     13  C   UNL     1       3.277   8.076  17.909  0.00  0.00    +0.000 C 
BRANCH  13  14
ATOM     14  C   UNL     1       3.395   6.561  17.773  0.00  0.00    +0.000 A 
ATOM     15  C   UNL     1       4.609   5.937  17.520  0.00  0.00    +0.000 A 
ATOM     16  C   UNL     1       4.672   4.555  17.455  0.00  0.00    +0.000 A 
ATOM     17  C   UNL     1       3.552   3.799  17.770  0.00  0.00    +0.000 A 
ATOM     18  C   UNL     1       3.656   2.402  17.845  0.00  0.00    +0.000 A 
ATOM     19  C   UNL     1       2.593   1.648  18.321  0.00  0.00    +0.000 A 
ATOM     20  C   UNL     1       1.410   2.291  18.655  0.00  0.00    +0.000 A 
ATOM     21  C   UNL     1       1.295   3.685  18.511  0.00  0.00    +0.000 A 
ATOM     22  C   UNL     1       2.358   4.475  18.086  0.00  0.00    +0.000 A 
ATOM     23  N   UNL     1       2.272   5.832  18.040  0.00  0.00    +0.000 NA
ENDBRANCH  13  14
ENDBRANCH   1  13
TORSDOF 5
ENDMDL
MODEL 3
REMARK VINA RESULT:      -7.9      3.276      7.997
REMARK  Name = 
REMARK  5 active torsions:
REMARK  status: ('A' for Active; 'I' for Inactive)
REMARK    1  A    between atoms: N_2  and  C_4
REMARK    2  A    between atoms: C_7  and  C_8
REMARK    3  A    between atoms: C_8  and  O_9
REMARK    4  A    between atoms: C_8  and  C_10
REMARK    5  A    between atoms: C_10  and  C_11
REMARK                            x       y       z     vdW  Elec       q    Type
REMARK                         _______ _______ _______ _____ _____    ______ ____
ROOT
ATOM      1  C   UNL     1       2.308   5.668  18.495  0.00  0.00    +0.000 C 
ENDROOT
BRANCH   1   5
ATOM      2  C   UNL     1       5.628   5.038  15.768  0.00  0.00    +0.000 A 
ATOM      3  C   UNL     1       5.318   6.332  16.197  0.00  0.00    +0.000 A 
ATOM      4  C   UNL     1       4.267   6.521  17.105  0.00  0.00    +0.000 A 
ATOM      5  C   UNL     1       3.527   5.428  17.604  0.00  0.00    +0.000 A 
ATOM      6  C   UNL     1       3.845   4.144  17.134  0.00  0.00    +0.000 A 
ATOM      7  C   UNL     1       4.892   3.944  16.231  0.00  0.00    +0.000 A 
BRANCH   2   9
ATOM      8  O   UNL     1       6.541   3.956  13.934  0.00  0.00    +0.000 OA
ATOM      9  N   UNL     1       6.711   4.821  14.806  0.00  0.00    +0.000 N 
ATOM     10  O   UNL     1       7.734   5.515  14.917  0.00  0.00    +0.000 OA
ENDBRANCH   2   9
ENDBRANCH   1   5
BRANCH   1  11
ATOM     11  O   UNL     1       1.771   4.370  18.769  0.00  0.00    +0.000 OA
ATOM     12  H   UNL     1       2.492   3.757  18.962  0.00  0.00    +0.000 HD
ENDBRANCH   1  11
BRANCH   1  13
ATOM     13  C   UNL     1       2.580   6.429  19.825  0.00  0.00    +0.000 C 
BRANCH  13  14
ATOM     14  C   UNL     1       1.898   7.774  20.057  0.00  0.00    +0.000 A 
ATOM     15  C   UNL     1       1.640   8.657  19.018  0.00  0.00    +0.000 A 
ATOM     16  C   UNL     1       0.974   9.845  19.274  0.00  0.00    +0.000 A 
ATOM     17  C   UNL     1       0.455  10.084  20.538  0.00  0.00    +0.000 A 
ATOM     18  C   UNL     1      -0.343  11.218  20.758  0.00  0.00    +0.000 A 
ATOM     19  C   UNL     1      -1.004  11.382  21.966  0.00  0.00    +0.000 A 
ATOM     20  C   UNL     1      -0.809  10.445  22.971  0.00  0.00    +0.000 A 
ATOM     21  C   UNL     1       0.047   9.349  22.763  0.00  0.00    +0.000 A 
ATOM     22  C   UNL     1       0.684   9.128  21.546  0.00  0.00    +0.000 A 
ATOM     23  N   UNL     1       1.434   8.017  21.318  0.00  0.00    +0.000 NA
ENDBRANCH  13  14
ENDBRANCH   1  13
TORSDOF 5
ENDMDL
MODEL 4
REMARK VINA RESULT:      -7.8      4.688      6.513
REMARK  Name = 
REMARK  5 active torsions:
REMARK  status: ('A' for Active; 'I' for Inactive)
REMARK    1  A    between atoms: N_2  and  C_4
REMARK    2  A    between atoms: C_7  and  C_8
REMARK    3  A    between atoms: C_8  and  O_9
REMARK    4  A    between atoms: C_8  and  C_10
REMARK    5  A    between atoms: C_10  and  C_11
REMARK                            x       y       z     vdW  Elec       q    Type
REMARK                         _______ _______ _______ _____ _____    ______ ____
ROOT
ATOM      1  C   UNL     1       6.335   5.729  19.006  0.00  0.00    +0.000 C 
ENDROOT
BRANCH   1   5
ATOM      2  C   UNL     1       2.647   3.616  19.892  0.00  0.00    +0.000 A 
ATOM      3  C   UNL     1       3.841   2.900  19.754  0.00  0.00    +0.000 A 
ATOM      4  C   UNL     1       5.032   3.596  19.503  0.00  0.00    +0.000 A 
ATOM      5  C   UNL     1       5.050   5.003  19.402  0.00  0.00    +0.000 A 
ATOM      6  C   UNL     1       3.831   5.690  19.519  0.00  0.00    +0.000 A 
ATOM      7  C   UNL     1       2.638   5.008  19.771  0.00  0.00    +0.000 A 
BRANCH   2   9
ATOM      8  O   UNL     1       1.018   2.780  21.312  0.00  0.00    +0.000 OA
ATOM      9  N   UNL     1       1.388   2.907  20.136  0.00  0.00    +0.000 N 
ATOM     10  O   UNL     1       0.766   2.476  19.152  0.00  0.00    +0.000 OA
ENDBRANCH   2   9
ENDBRANCH   1   5
BRANCH   1  11
ATOM     11  O   UNL     1       7.374   4.748  19.094  0.00  0.00    +0.000 OA
ATOM     12  H   UNL     1       7.597   4.436  18.208  0.00  0.00    +0.000 HD
ENDBRANCH   1  11
BRANCH   1  13
ATOM     13  C   UNL     1       6.335   6.387  17.595  0.00  0.00    +0.000 C 
BRANCH  13  14
ATOM     14  C   UNL     1       6.248   5.491  16.364  0.00  0.00    +0.000 A 
ATOM     15  C   UNL     1       5.197   4.603  16.173  0.00  0.00    +0.000 A 
ATOM     16  C   UNL     1       5.138   3.847  15.014  0.00  0.00    +0.000 A 
ATOM     17  C   UNL     1       6.054   4.073  13.997  0.00  0.00    +0.000 A 
ATOM     18  C   UNL     1       5.906   3.411  12.768  0.00  0.00    +0.000 A 
ATOM     19  C   UNL     1       6.711   3.750  11.691  0.00  0.00    +0.000 A 
ATOM     20  C   UNL     1       7.703   4.704  11.868  0.00  0.00    +0.000 A 
ATOM     21  C   UNL     1       7.886   5.312  13.122  0.00  0.00    +0.000 A 
ATOM     22  C   UNL     1       7.064   5.031  14.208  0.00  0.00    +0.000 A 
ATOM     23  N   UNL     1       7.185   5.692  15.391  0.00  0.00    +0.000 NA
ENDBRANCH  13  14
ENDBRANCH   1  13
TORSDOF 5
ENDMDL
MODEL 5
REMARK VINA RESULT:      -7.8      3.638      8.088
REMARK  Name = 
REMARK  5 active torsions:
REMARK  status: ('A' for Active; 'I' for Inactive)
REMARK    1  A    between atoms: N_2  and  C_4
REMARK    2  A    between atoms: C_7  and  C_8
REMARK    3  A    between atoms: C_8  and  O_9
REMARK    4  A    between atoms: C_8  and  C_10
REMARK    5  A    between atoms: C_10  and  C_11
REMARK                            x       y       z     vdW  Elec       q    Type
REMARK                         _______ _______ _______ _____ _____    ______ ____
ROOT
ATOM      1  C   UNL     1       4.809   4.481  18.845  0.00  0.00    +0.000 C 
ENDROOT
BRANCH   1   5
ATOM      2  C   UNL     1       6.638   4.803  14.920  0.00  0.00    +0.000 A 
ATOM      3  C   UNL     1       5.330   4.322  15.039  0.00  0.00    +0.000 A 
ATOM      4  C   UNL     1       4.736   4.256  16.308  0.00  0.00    +0.000 A 
ATOM      5  C   UNL     1       5.429   4.678  17.462  0.00  0.00    +0.000 A 
ATOM      6  C   UNL     1       6.750   5.130  17.313  0.00  0.00    +0.000 A 
ATOM      7  C   UNL     1       7.351   5.203  16.053  0.00  0.00    +0.000 A 
BRANCH   2   9
ATOM      8  O   UNL     1       8.202   5.680  13.454  0.00  0.00    +0.000 OA
ATOM      9  N   UNL     1       7.283   4.863  13.606  0.00  0.00    +0.000 N 
ATOM     10  O   UNL     1       6.873   4.093  12.724  0.00  0.00    +0.000 OA
ENDBRANCH   2   9
ENDBRANCH   1   5
BRANCH   1  11
ATOM     11  O   UNL     1       5.531   5.355  19.718  0.00  0.00    +0.000 OA
ATOM     12  H   UNL     1       6.446   5.427  19.418  0.00  0.00    +0.000 HD
ENDBRANCH   1  11
BRANCH   1  13
ATOM     13  C   UNL     1       3.281   4.760  18.949  0.00  0.00    +0.000 C 
BRANCH  13  14
ATOM     14  C   UNL     1       2.797   6.206  18.988  0.00  0.00    +0.000 A 
ATOM     15  C   UNL     1       2.763   7.002  17.851  0.00  0.00    +0.000 A 
ATOM     16  C   UNL     1       2.268   8.293  17.929  0.00  0.00    +0.000 A 
ATOM     17  C   UNL     1       1.692   8.739  19.110  0.00  0.00    +0.000 A 
ATOM     18  C   UNL     1       1.062   9.993  19.146  0.00  0.00    +0.000 A 
ATOM     19  C   UNL     1       0.339  10.379  20.265  0.00  0.00    +0.000 A 
ATOM     20  C   UNL     1       0.306   9.537  21.367  0.00  0.00    +0.000 A 
ATOM     21  C   UNL     1       0.998   8.313  21.345  0.00  0.00    +0.000 A 
ATOM     22  C   UNL     1       1.689   7.873  20.221  0.00  0.00    +0.000 A 
ATOM     23  N   UNL     1       2.276   6.647  20.171  0.00  0.00    +0.000 NA
ENDBRANCH  13  14
ENDBRANCH   1  13
TORSDOF 5
ENDMDL
MODEL 6
REMARK VINA RESULT:      -7.7      4.722      6.419
REMARK  Name = 
REMARK  5 active torsions:
REMARK  status: ('A' for Active; 'I' for Inactive)
REMARK    1  A    between atoms: N_2  and  C_4
REMARK    2  A    between atoms: C_7  and  C_8
REMARK    3  A    between atoms: C_8  and  O_9
REMARK    4  A    between atoms: C_8  and  C_10
REMARK    5  A    between atoms: C_10  and  C_11
REMARK                            x       y       z     vdW  Elec       q    Type
REMARK                         _______ _______ _______ _____ _____    ______ ____
ROOT
ATOM      1  C   UNL     1       6.290   5.664  18.943  0.00  0.00    +0.000 C 
ENDROOT
BRANCH   1   5
ATOM      2  C   UNL     1       2.689   3.637  20.273  0.00  0.00    +0.000 A 
ATOM      3  C   UNL     1       2.672   5.021  20.072  0.00  0.00    +0.000 A 
ATOM      4  C   UNL     1       3.830   5.660  19.608  0.00  0.00    +0.000 A 
ATOM      5  C   UNL     1       5.005   4.932  19.328  0.00  0.00    +0.000 A 
ATOM      6  C   UNL     1       4.998   3.548  19.565  0.00  0.00    +0.000 A 
ATOM      7  C   UNL     1       3.850   2.899  20.025  0.00  0.00    +0.000 A 
BRANCH   2   9
ATOM      8  O   UNL     1       0.493   2.932  20.044  0.00  0.00    +0.000 OA
ATOM      9  N   UNL     1       1.495   2.952  20.775  0.00  0.00    +0.000 N 
ATOM     10  O   UNL     1       1.555   2.431  21.900  0.00  0.00    +0.000 OA
ENDBRANCH   2   9
ENDBRANCH   1   5
BRANCH   1  11
ATOM     11  O   UNL     1       7.331   4.686  19.027  0.00  0.00    +0.000 OA
ATOM     12  H   UNL     1       6.940   3.806  19.103  0.00  0.00    +0.000 HD
ENDBRANCH   1  11
BRANCH   1  13
ATOM     13  C   UNL     1       6.294   6.334  17.537  0.00  0.00    +0.000 C 
BRANCH  13  14
ATOM     14  C   UNL     1       6.216   5.447  16.298  0.00  0.00    +0.000 A 
ATOM     15  C   UNL     1       5.162   4.568  16.087  0.00  0.00    +0.000 A 
ATOM     16  C   UNL     1       5.112   3.820  14.923  0.00  0.00    +0.000 A 
ATOM     17  C   UNL     1       6.043   4.046  13.919  0.00  0.00    +0.000 A 
ATOM     18  C   UNL     1       5.906   3.394  12.684  0.00  0.00    +0.000 A 
ATOM     19  C   UNL     1       6.727   3.735  11.619  0.00  0.00    +0.000 A 
ATOM     20  C   UNL     1       7.724   4.680  11.816  0.00  0.00    +0.000 A 
ATOM     21  C   UNL     1       7.896   5.278  13.077  0.00  0.00    +0.000 A 
ATOM     22  C   UNL     1       7.057   4.996  14.150  0.00  0.00    +0.000 A 
ATOM     23  N   UNL     1       7.167   5.647  15.339  0.00  0.00    +0.000 NA
ENDBRANCH  13  14
ENDBRANCH   1  13
TORSDOF 5
ENDMDL
MODEL 7
REMARK VINA RESULT:      -7.7      3.229      7.981
REMARK  Name = 
REMARK  5 active torsions:
REMARK  status: ('A' for Active; 'I' for Inactive)
REMARK    1  A    between atoms: N_2  and  C_4
REMARK    2  A    between atoms: C_7  and  C_8
REMARK    3  A    between atoms: C_8  and  O_9
REMARK    4  A    between atoms: C_8  and  C_10
REMARK    5  A    between atoms: C_10  and  C_11
REMARK                            x       y       z     vdW  Elec       q    Type
REMARK                         _______ _______ _______ _____ _____    ______ ____
ROOT
ATOM      1  C   UNL     1       2.193   5.623  18.698  0.00  0.00    +0.000 C 
ENDROOT
BRANCH   1   5
ATOM      2  C   UNL     1       5.533   5.050  15.984  0.00  0.00    +0.000 A 
ATOM      3  C   UNL     1       4.744   3.956  16.354  0.00  0.00    +0.000 A 
ATOM      4  C   UNL     1       3.647   4.158  17.202  0.00  0.00    +0.000 A 
ATOM      5  C   UNL     1       3.316   5.445  17.677  0.00  0.00    +0.000 A 
ATOM      6  C   UNL     1       4.143   6.518  17.309  0.00  0.00    +0.000 A 
ATOM      7  C   UNL     1       5.238   6.329  16.462  0.00  0.00    +0.000 A 
BRANCH   2   9
ATOM      8  O   UNL     1       7.641   5.650  15.232  0.00  0.00    +0.000 OA
ATOM      9  N   UNL     1       6.695   4.857  15.113  0.00  0.00    +0.000 N 
ATOM     10  O   UNL     1       6.667   3.913  14.309  0.00  0.00    +0.000 OA
ENDBRANCH   2   9
ENDBRANCH   1   5
BRANCH   1  11
ATOM     11  O   UNL     1       1.802   4.299  19.075  0.00  0.00    +0.000 OA
ATOM     12  H   UNL     1       1.445   4.312  19.971  0.00  0.00    +0.000 HD
ENDBRANCH   1  11
BRANCH   1  13
ATOM     13  C   UNL     1       2.550   6.458  19.962  0.00  0.00    +0.000 C 
BRANCH  13  14
ATOM     14  C   UNL     1       1.860   7.801  20.177  0.00  0.00    +0.000 A 
ATOM     15  C   UNL     1       1.608   8.676  19.129  0.00  0.00    +0.000 A 
ATOM     16  C   UNL     1       0.933   9.862  19.369  0.00  0.00    +0.000 A 
ATOM     17  C   UNL     1       0.401  10.108  20.626  0.00  0.00    +0.000 A 
ATOM     18  C   UNL     1      -0.406  11.239  20.830  0.00  0.00    +0.000 A 
ATOM     19  C   UNL     1      -1.079  11.408  22.031  0.00  0.00    +0.000 A 
ATOM     20  C   UNL     1      -0.889  10.480  23.045  0.00  0.00    +0.000 A 
ATOM     21  C   UNL     1      -0.026   9.387  22.853  0.00  0.00    +0.000 A 
ATOM     22  C   UNL     1       0.624   9.160  21.644  0.00  0.00    +0.000 A 
ATOM     23  N   UNL     1       1.382   8.051  21.432  0.00  0.00    +0.000 NA
ENDBRANCH  13  14
ENDBRANCH   1  13
TORSDOF 5
ENDMDL
MODEL 8
REMARK VINA RESULT:      -7.7      3.630      8.119
REMARK  Name = 
REMARK  5 active torsions:
REMARK  status: ('A' for Active; 'I' for Inactive)
REMARK    1  A    between atoms: N_2  and  C_4
REMARK    2  A    between atoms: C_7  and  C_8
REMARK    3  A    between atoms: C_8  and  O_9
REMARK    4  A    between atoms: C_8  and  C_10
REMARK    5  A    between atoms: C_10  and  C_11
REMARK                            x       y       z     vdW  Elec       q    Type
REMARK                         _______ _______ _______ _____ _____    ______ ____
ROOT
ATOM      1  C   UNL     1       4.870   4.287  19.012  0.00  0.00    +0.000 C 
ENDROOT
BRANCH   1   5
ATOM      2  C   UNL     1       6.660   4.685  15.076  0.00  0.00    +0.000 A 
ATOM      3  C   UNL     1       7.384   5.067  16.210  0.00  0.00    +0.000 A 
ATOM      4  C   UNL     1       6.811   4.901  17.478  0.00  0.00    +0.000 A 
ATOM      5  C   UNL     1       5.524   4.344  17.632  0.00  0.00    +0.000 A 
ATOM      6  C   UNL     1       4.812   3.995  16.473  0.00  0.00    +0.000 A 
ATOM      7  C   UNL     1       5.374   4.154  15.204  0.00  0.00    +0.000 A 
BRANCH   2   9
ATOM      8  O   UNL     1       6.743   4.213  12.810  0.00  0.00    +0.000 OA
ATOM      9  N   UNL     1       7.234   4.868  13.741  0.00  0.00    +0.000 N 
ATOM     10  O   UNL     1       8.176   5.666  13.619  0.00  0.00    +0.000 OA
ENDBRANCH   2   9
ENDBRANCH   1   5
BRANCH   1  11
ATOM     11  O   UNL     1       5.375   5.421  19.724  0.00  0.00    +0.000 OA
ATOM     12  H   UNL     1       5.406   5.221  20.668  0.00  0.00    +0.000 HD
ENDBRANCH   1  11
BRANCH   1  13
ATOM     13  C   UNL     1       3.313   4.292  19.026  0.00  0.00    +0.000 C 
BRANCH  13  14
ATOM     14  C   UNL     1       2.584   5.599  19.320  0.00  0.00    +0.000 A 
ATOM     15  C   UNL     1       2.020   5.865  20.560  0.00  0.00    +0.000 A 
ATOM     16  C   UNL     1       1.411   7.087  20.791  0.00  0.00    +0.000 A 
ATOM     17  C   UNL     1       1.482   8.085  19.830  0.00  0.00    +0.000 A 
ATOM     18  C   UNL     1       0.993   9.368  20.122  0.00  0.00    +0.000 A 
ATOM     19  C   UNL     1       1.208  10.414  19.236  0.00  0.00    +0.000 A 
ATOM     20  C   UNL     1       1.852  10.156  18.035  0.00  0.00    +0.000 A 
ATOM     21  C   UNL     1       2.277   8.853  17.724  0.00  0.00    +0.000 A 
ATOM     22  C   UNL     1       2.123   7.793  18.610  0.00  0.00    +0.000 A 
ATOM     23  N   UNL     1       2.621   6.555  18.345  0.00  0.00    +0.000 NA
ENDBRANCH  13  14
ENDBRANCH   1  13
TORSDOF 5
ENDMDL
MODEL 9
REMARK VINA RESULT:      -7.6      3.532      8.081
REMARK  Name = 
REMARK  5 active torsions:
REMARK  status: ('A' for Active; 'I' for Inactive)
REMARK    1  A    between atoms: N_2  and  C_4
REMARK    2  A    between atoms: C_7  and  C_8
REMARK    3  A    between atoms: C_8  and  O_9
REMARK    4  A    between atoms: C_8  and  C_10
REMARK    5  A    between atoms: C_10  and  C_11
REMARK                            x       y       z     vdW  Elec       q    Type
REMARK                         _______ _______ _______ _____ _____    ______ ____
ROOT
ATOM      1  C   UNL     1       3.108   4.963  18.172  0.00  0.00    +0.000 C 
ENDROOT
BRANCH   1   5
ATOM      2  C   UNL     1       6.080   4.914  15.007  0.00  0.00    +0.000 A 
ATOM      3  C   UNL     1       5.512   6.128  15.408  0.00  0.00    +0.000 A 
ATOM      4  C   UNL     1       4.580   6.137  16.455  0.00  0.00    +0.000 A 
ATOM      5  C   UNL     1       4.215   4.947  17.120  0.00  0.00    +0.000 A 
ATOM      6  C   UNL     1       4.782   3.741  16.676  0.00  0.00    +0.000 A 
ATOM      7  C   UNL     1       5.714   3.721  15.635  0.00  0.00    +0.000 A 
BRANCH   2   9
ATOM      8  O   UNL     1       8.011   5.651  13.962  0.00  0.00    +0.000 OA
ATOM      9  N   UNL     1       7.041   4.881  13.903  0.00  0.00    +0.000 N 
ATOM     10  O   UNL     1       6.831   4.085  12.975  0.00  0.00    +0.000 OA
ENDBRANCH   2   9
ENDBRANCH   1   5
BRANCH   1  11
ATOM     11  O   UNL     1       3.082   3.643  18.724  0.00  0.00    +0.000 OA
ATOM     12  H   UNL     1       2.542   3.071  18.164  0.00  0.00    +0.000 HD
ENDBRANCH   1  11
BRANCH   1  13
ATOM     13  C   UNL     1       3.266   6.017  19.308  0.00  0.00    +0.000 C 
BRANCH  13  14
ATOM     14  C   UNL     1       2.503   7.333  19.203  0.00  0.00    +0.000 A 
ATOM     15  C   UNL     1       2.246   7.940  17.980  0.00  0.00    +0.000 A 
ATOM     16  C   UNL     1       1.506   9.110  17.935  0.00  0.00    +0.000 A 
ATOM     17  C   UNL     1       0.917   9.597  19.093  0.00  0.00    +0.000 A 
ATOM     18  C   UNL     1       0.050  10.698  19.021  0.00  0.00    +0.000 A 
ATOM     19  C   UNL     1      -0.674  11.091  20.138  0.00  0.00    +0.000 A 
ATOM     20  C   UNL     1      -0.475  10.421  21.337  0.00  0.00    +0.000 A 
ATOM     21  C   UNL     1       0.447   9.363  21.413  0.00  0.00    +0.000 A 
ATOM     22  C   UNL     1       1.150   8.911  20.301  0.00  0.00    +0.000 A 
ATOM     23  N   UNL     1       1.969   7.827  20.359  0.00  0.00    +0.000 NA
ENDBRANCH  13  14
ENDBRANCH   1  13
TORSDOF 5
ENDMDL
