MODEL 1
REMARK VINA RESULT:      -8.5      0.000      0.000
REMARK  Name = 
REMARK  5 active torsions:
REMARK  status: ('A' for Active; 'I' for Inactive)
REMARK    1  A    between atoms: C_1  and  C_2
REMARK    2  A    between atoms: N_7  and  C_8
REMARK    3  A    between atoms: C_20  and  C_21
REMARK    4  A    between atoms: C_21  and  O_22
REMARK    5  A    between atoms: C_21  and  C_23
REMARK                            x       y       z     vdW  Elec       q    Type
REMARK                         _______ _______ _______ _____ _____    ______ ____
ROOT
ATOM      1  C   UNL     1      -0.686  14.366  22.646  0.00  0.00    +0.000 C 
ATOM      2  C   UNL     1      -1.881  13.340  22.010  0.00  0.00    +0.000 C 
ATOM      3  C   UNL     1      -1.835  12.288  23.090  0.00  0.00    +0.000 C 
ATOM      4  C   UNL     1      -1.041  11.217  22.560  0.00  0.00    +0.000 A 
ATOM      5  C   UNL     1      -0.704  10.037  23.182  0.00  0.00    +0.000 A 
ATOM      6  N   UNL     1       0.016   9.293  22.379  0.00  0.00    +0.000 NA
ATOM      7  N   UNL     1       0.196  10.003  21.207  0.00  0.00    +0.000 N 
ATOM      8  C   UNL     1      -0.442  11.295  21.308  0.00  0.00    +0.000 A 
ATOM      9  C   UNL     1      -0.567  12.506  20.415  0.00  0.00    +0.000 C 
ATOM     10  C   UNL     1      -1.318  13.667  20.657  0.00  0.00    +0.000 C 
ATOM     11  C   UNL     1      -2.347  15.161  21.050  0.00  0.00    +0.000 C 
ATOM     12  C   UNL     1      -3.744  14.675  21.670  0.00  0.00    +0.000 C 
ATOM     13  C   UNL     1      -3.360  13.357  21.206  0.00  0.00    +0.000 C 
ENDROOT
BRANCH   7  14
ATOM     14  C   UNL     1       0.895   9.230  20.214  0.00  0.00    +0.000 A 
ATOM     15  C   UNL     1       0.970   9.750  18.881  0.00  0.00    +0.000 A 
ATOM     16  C   UNL     1       1.842   9.221  17.927  0.00  0.00    +0.000 A 
ATOM     17  C   UNL     1       2.532   8.070  18.242  0.00  0.00    +0.000 A 
ATOM     18  F   UNL     1       3.404   7.560  17.361  0.00  0.00    +0.000 F 
ATOM     19  C   UNL     1       2.328   7.439  19.472  0.00  0.00    +0.000 A 
ATOM     20  C   UNL     1       1.542   8.035  20.477  0.00  0.00    +0.000 A 
ENDBRANCH   7  14
BRANCH  13  21
ATOM     21  C   UNL     1      -4.231  12.255  20.597  0.00  0.00    +0.000 C 
BRANCH  21  22
ATOM     22  C   UNL     1      -4.432  12.261  19.151  0.00  0.00    +0.000 A 
ATOM     23  C   UNL     1      -5.584  12.666  18.522  0.00  0.00    +0.000 A 
ATOM     24  O   UNL     1      -5.635  12.179  17.265  0.00  0.00    +0.000 OA
ATOM     25  C   UNL     1      -4.478  11.490  17.078  0.00  0.00    +0.000 A 
ATOM     26  C   UNL     1      -4.245  10.587  16.057  0.00  0.00    +0.000 A 
ATOM     27  C   UNL     1      -3.020   9.919  16.139  0.00  0.00    +0.000 A 
ATOM     28  C   UNL     1      -1.987  10.345  16.967  0.00  0.00    +0.000 A 
ATOM     29  C   UNL     1      -2.307  11.137  18.064  0.00  0.00    +0.000 A 
ATOM     30  C   UNL     1      -3.610  11.672  18.148  0.00  0.00    +0.000 A 
ENDBRANCH  21  22
BRANCH  21  31
ATOM     31  O   UNL     1      -5.475  12.141  21.298  0.00  0.00    +0.000 OA
ATOM     32  H   UNL     1      -6.141  11.904  20.637  0.00  0.00    +0.000 HD
ENDBRANCH  21  31
ENDBRANCH  13  21
TORSDOF 4
ENDMDL
MODEL 2
REMARK VINA RESULT:      -7.6      2.198      2.964
REMARK  Name = 
REMARK  5 active torsions:
REMARK  status: ('A' for Active; 'I' for Inactive)
REMARK    1  A    between atoms: C_1  and  C_2
REMARK    2  A    between atoms: N_7  and  C_8
REMARK    3  A    between atoms: C_20  and  C_21
REMARK    4  A    between atoms: C_21  and  O_22
REMARK    5  A    between atoms: C_21  and  C_23
REMARK                            x       y       z     vdW  Elec       q    Type
REMARK                         _______ _______ _______ _____ _____    ______ ____
ROOT
ATOM      1  C   UNL     1      -4.136  15.113  23.315  0.00  0.00    +0.000 C 
ATOM      2  C   UNL     1      -4.373  13.761  22.314  0.00  0.00    +0.000 C 
ATOM      3  C   UNL     1      -3.640  12.753  23.165  0.00  0.00    +0.000 C 
ATOM      4  C   UNL     1      -2.343  12.607  22.569  0.00  0.00    +0.000 A 
ATOM      5  C   UNL     1      -1.311  11.804  22.995  0.00  0.00    +0.000 A 
ATOM      6  N   UNL     1      -0.287  11.917  22.186  0.00  0.00    +0.000 NA
ATOM      7  N   UNL     1      -0.626  12.841  21.216  0.00  0.00    +0.000 N 
ATOM      8  C   UNL     1      -1.953  13.355  21.463  0.00  0.00    +0.000 A 
ATOM      9  C   UNL     1      -2.848  14.382  20.814  0.00  0.00    +0.000 C 
ATOM     10  C   UNL     1      -4.174  14.693  21.155  0.00  0.00    +0.000 C 
ATOM     11  C   UNL     1      -5.926  15.033  21.663  0.00  0.00    +0.000 C 
ATOM     12  C   UNL     1      -6.658  13.637  21.953  0.00  0.00    +0.000 C 
ATOM     13  C   UNL     1      -5.510  13.032  21.309  0.00  0.00    +0.000 C 
ENDROOT
BRANCH   7  14
ATOM     14  C   UNL     1       0.399  12.967  20.213  0.00  0.00    +0.000 A 
ATOM     15  C   UNL     1       1.031  14.242  20.047  0.00  0.00    +0.000 A 
ATOM     16  C   UNL     1       2.205  14.396  19.307  0.00  0.00    +0.000 A 
ATOM     17  C   UNL     1       2.673  13.314  18.594  0.00  0.00    +0.000 A 
ATOM     18  F   UNL     1       3.817  13.421  17.903  0.00  0.00    +0.000 F 
ATOM     19  C   UNL     1       1.963  12.111  18.590  0.00  0.00    +0.000 A 
ATOM     20  C   UNL     1       0.848  11.918  19.429  0.00  0.00    +0.000 A 
ENDBRANCH   7  14
BRANCH  13  21
ATOM     21  C   UNL     1      -5.452  11.824  20.370  0.00  0.00    +0.000 C 
BRANCH  21  22
ATOM     22  C   UNL     1      -5.147  12.064  18.963  0.00  0.00    +0.000 A 
ATOM     23  C   UNL     1      -6.041  12.551  18.040  0.00  0.00    +0.000 A 
ATOM     24  O   UNL     1      -5.625  12.275  16.786  0.00  0.00    +0.000 OA
ATOM     25  C   UNL     1      -4.429  11.641  16.913  0.00  0.00    +0.000 A 
ATOM     26  C   UNL     1      -3.801  10.920  15.914  0.00  0.00    +0.000 A 
ATOM     27  C   UNL     1      -2.635  10.264  16.318  0.00  0.00    +0.000 A 
ATOM     28  C   UNL     1      -1.977  10.562  17.506  0.00  0.00    +0.000 A 
ATOM     29  C   UNL     1      -2.707  11.161  18.529  0.00  0.00    +0.000 A 
ATOM     30  C   UNL     1      -3.994  11.658  18.233  0.00  0.00    +0.000 A 
ENDBRANCH  21  22
BRANCH  21  31
ATOM     31  O   UNL     1      -6.617  11.004  20.522  0.00  0.00    +0.000 OA
ATOM     32  H   UNL     1      -6.305  10.088  20.549  0.00  0.00    +0.000 HD
ENDBRANCH  21  31
ENDBRANCH  13  21
TORSDOF 4
ENDMDL
MODEL 3
REMARK VINA RESULT:      -7.3      2.217      3.196
REMARK  Name = 
REMARK  5 active torsions:
REMARK  status: ('A' for Active; 'I' for Inactive)
REMARK    1  A    between atoms: C_1  and  C_2
REMARK    2  A    between atoms: N_7  and  C_8
REMARK    3  A    between atoms: C_20  and  C_21
REMARK    4  A    between atoms: C_21  and  O_22
REMARK    5  A    between atoms: C_21  and  C_23
REMARK                            x       y       z     vdW  Elec       q    Type
REMARK                         _______ _______ _______ _____ _____    ______ ____
ROOT
ATOM      1  C   UNL     1      -3.728  14.767  24.646  0.00  0.00    +0.000 C 
ATOM      2  C   UNL     1      -4.367  13.648  23.539  0.00  0.00    +0.000 C 
ATOM      3  C   UNL     1      -3.663  12.422  24.067  0.00  0.00    +0.000 C 
ATOM      4  C   UNL     1      -2.544  12.209  23.196  0.00  0.00    +0.000 A 
ATOM      5  C   UNL     1      -1.596  11.216  23.279  0.00  0.00    +0.000 A 
ATOM      6  N   UNL     1      -0.737  11.327  22.296  0.00  0.00    +0.000 NA
ATOM      7  N   UNL     1      -1.096  12.440  21.558  0.00  0.00    +0.000 N 
ATOM      8  C   UNL     1      -2.251  13.075  22.149  0.00  0.00    +0.000 A 
ATOM      9  C   UNL     1      -3.070  14.308  21.852  0.00  0.00    +0.000 C 
ATOM     10  C   UNL     1      -4.239  14.729  22.505  0.00  0.00    +0.000 C 
ATOM     11  C   UNL     1      -5.785  15.207  23.414  0.00  0.00    +0.000 C 
ATOM     12  C   UNL     1      -6.669  13.891  23.654  0.00  0.00    +0.000 C 
ATOM     13  C   UNL     1      -5.776  13.258  22.704  0.00  0.00    +0.000 C 
ENDROOT
BRANCH   7  14
ATOM     14  C   UNL     1      -0.270  12.596  20.389  0.00  0.00    +0.000 A 
ATOM     15  C   UNL     1      -0.224  13.883  19.760  0.00  0.00    +0.000 A 
ATOM     16  C   UNL     1       0.740  14.206  18.803  0.00  0.00    +0.000 A 
ATOM     17  C   UNL     1       1.567  13.202  18.347  0.00  0.00    +0.000 A 
ATOM     18  F   UNL     1       2.526  13.489  17.455  0.00  0.00    +0.000 F 
ATOM     19  C   UNL     1       1.411  11.894  18.810  0.00  0.00    +0.000 A 
ATOM     20  C   UNL     1       0.522  11.592  19.860  0.00  0.00    +0.000 A 
ENDBRANCH   7  14
BRANCH  13  21
ATOM     21  C   UNL     1      -6.095  12.230  21.615  0.00  0.00    +0.000 C 
BRANCH  21  22
ATOM     22  C   UNL     1      -6.089  12.679  20.227  0.00  0.00    +0.000 A 
ATOM     23  C   UNL     1      -7.159  13.252  19.584  0.00  0.00    +0.000 A 
ATOM     24  O   UNL     1      -7.007  13.174  18.245  0.00  0.00    +0.000 OA
ATOM     25  C   UNL     1      -5.802  12.581  18.034  0.00  0.00    +0.000 A 
ATOM     26  C   UNL     1      -5.383  12.036  16.835  0.00  0.00    +0.000 A 
ATOM     27  C   UNL     1      -4.150  11.380  16.895  0.00  0.00    +0.000 A 
ATOM     28  C   UNL     1      -3.266  11.535  17.957  0.00  0.00    +0.000 A 
ATOM     29  C   UNL     1      -3.778  11.952  19.182  0.00  0.00    +0.000 A 
ATOM     30  C   UNL     1      -5.105  12.430  19.228  0.00  0.00    +0.000 A 
ENDBRANCH  21  22
BRANCH  21  31
ATOM     31  O   UNL     1      -7.293  11.510  21.928  0.00  0.00    +0.000 OA
ATOM     32  H   UNL     1      -7.383  10.822  21.254  0.00  0.00    +0.000 HD
ENDBRANCH  21  31
ENDBRANCH  13  21
TORSDOF 4
ENDMDL
MODEL 4
REMARK VINA RESULT:      -7.3      5.275      9.651
REMARK  Name = 
REMARK  5 active torsions:
REMARK  status: ('A' for Active; 'I' for Inactive)
REMARK    1  A    between atoms: C_1  and  C_2
REMARK    2  A    between atoms: N_7  and  C_8
REMARK    3  A    between atoms: C_20  and  C_21
REMARK    4  A    between atoms: C_21  and  O_22
REMARK    5  A    between atoms: C_21  and  C_23
REMARK                            x       y       z     vdW  Elec       q    Type
REMARK                         _______ _______ _______ _____ _____    ______ ____
ROOT
ATOM      1  C   UNL     1       0.489   3.075  18.725  0.00  0.00    +0.000 C 
ATOM      2  C   UNL     1       2.058   3.604  19.101  0.00  0.00    +0.000 C 
ATOM      3  C   UNL     1       1.779   4.068  20.510  0.00  0.00    +0.000 C 
ATOM      4  C   UNL     1       1.628   5.493  20.430  0.00  0.00    +0.000 A 
ATOM      5  C   UNL     1       1.352   6.364  21.457  0.00  0.00    +0.000 A 
ATOM      6  N   UNL     1       1.308   7.594  21.008  0.00  0.00    +0.000 NA
ATOM      7  N   UNL     1       1.526   7.543  19.643  0.00  0.00    +0.000 N 
ATOM      8  C   UNL     1       1.690   6.172  19.219  0.00  0.00    +0.000 A 
ATOM      9  C   UNL     1       1.907   5.474  17.898  0.00  0.00    +0.000 C 
ATOM     10  C   UNL     1       2.134   4.105  17.688  0.00  0.00    +0.000 C 
ATOM     11  C   UNL     1       2.441   2.284  17.500  0.00  0.00    +0.000 C 
ATOM     12  C   UNL     1       3.454   1.811  18.649  0.00  0.00    +0.000 C 
ATOM     13  C   UNL     1       3.682   3.225  18.870  0.00  0.00    +0.000 C 
ENDROOT
BRANCH   7  14
ATOM     14  C   UNL     1       1.597   8.859  19.063  0.00  0.00    +0.000 A 
ATOM     15  C   UNL     1       0.880   9.921  19.703  0.00  0.00    +0.000 A 
ATOM     16  C   UNL     1       1.102  11.262  19.384  0.00  0.00    +0.000 A 
ATOM     17  C   UNL     1       1.922  11.550  18.315  0.00  0.00    +0.000 A 
ATOM     18  F   UNL     1       2.183  12.829  18.008  0.00  0.00    +0.000 F 
ATOM     19  C   UNL     1       2.482  10.520  17.556  0.00  0.00    +0.000 A 
ATOM     20  C   UNL     1       2.356   9.173  17.949  0.00  0.00    +0.000 A 
ENDBRANCH   7  14
BRANCH  13  21
ATOM     21  C   UNL     1       4.984   3.952  19.216  0.00  0.00    +0.000 C 
BRANCH  21  22
ATOM     22  C   UNL     1       5.516   4.903  18.246  0.00  0.00    +0.000 A 
ATOM     23  C   UNL     1       5.608   6.259  18.446  0.00  0.00    +0.000 A 
ATOM     24  O   UNL     1       5.732   6.906  17.268  0.00  0.00    +0.000 OA
ATOM     25  C   UNL     1       5.764   5.944  16.308  0.00  0.00    +0.000 A 
ATOM     26  C   UNL     1       5.579   6.163  14.956  0.00  0.00    +0.000 A 
ATOM     27  C   UNL     1       5.543   5.003  14.179  0.00  0.00    +0.000 A 
ATOM     28  C   UNL     1       5.976   3.768  14.650  0.00  0.00    +0.000 A 
ATOM     29  C   UNL     1       6.002   3.563  16.026  0.00  0.00    +0.000 A 
ATOM     30  C   UNL     1       5.830   4.676  16.874  0.00  0.00    +0.000 A 
ENDBRANCH  21  22
BRANCH  21  31
ATOM     31  O   UNL     1       5.988   3.025  19.645  0.00  0.00    +0.000 OA
ATOM     32  H   UNL     1       5.560   2.433  20.280  0.00  0.00    +0.000 HD
ENDBRANCH  21  31
ENDBRANCH  13  21
TORSDOF 4
ENDMDL
MODEL 5
REMARK VINA RESULT:      -7.3      3.027      4.939
REMARK  Name = 
REMARK  5 active torsions:
REMARK  status: ('A' for Active; 'I' for Inactive)
REMARK    1  A    between atoms: C_1  and  C_2
REMARK    2  A    between atoms: N_7  and  C_8
REMARK    3  A    between atoms: C_20  and  C_21
REMARK    4  A    between atoms: C_21  and  O_22
REMARK    5  A    between atoms: C_21  and  C_23
REMARK                            x       y       z     vdW  Elec       q    Type
REMARK                         _______ _______ _______ _____ _____    ______ ____
ROOT
ATOM      1  C   UNL     1      -3.317  12.586  23.168  0.00  0.00    +0.000 C 
ATOM      2  C   UNL     1      -2.319  13.534  22.173  0.00  0.00    +0.000 C 
ATOM      3  C   UNL     1      -3.056  13.304  20.876  0.00  0.00    +0.000 C 
ATOM      4  C   UNL     1      -2.311  12.298  20.176  0.00  0.00    +0.000 A 
ATOM      5  C   UNL     1      -2.596  11.747  18.948  0.00  0.00    +0.000 A 
ATOM      6  N   UNL     1      -1.677  10.872  18.620  0.00  0.00    +0.000 NA
ATOM      7  N   UNL     1      -0.774  10.810  19.666  0.00  0.00    +0.000 N 
ATOM      8  C   UNL     1      -1.186  11.697  20.729  0.00  0.00    +0.000 A 
ATOM      9  C   UNL     1      -0.667  12.041  22.105  0.00  0.00    +0.000 C 
ATOM     10  C   UNL     1      -1.167  13.015  22.982  0.00  0.00    +0.000 C 
ATOM     11  C   UNL     1      -1.882  14.333  24.077  0.00  0.00    +0.000 C 
ATOM     12  C   UNL     1      -2.222  15.618  23.180  0.00  0.00    +0.000 C 
ATOM     13  C   UNL     1      -1.435  14.966  22.152  0.00  0.00    +0.000 C 
ENDROOT
BRANCH   7  14
ATOM     14  C   UNL     1       0.337   9.946  19.363  0.00  0.00    +0.000 A 
ATOM     15  C   UNL     1       0.869   9.134  20.416  0.00  0.00    +0.000 A 
ATOM     16  C   UNL     1       1.751   8.080  20.166  0.00  0.00    +0.000 A 
ATOM     17  C   UNL     1       2.234   7.926  18.885  0.00  0.00    +0.000 A 
ATOM     18  F   UNL     1       3.053   6.902  18.606  0.00  0.00    +0.000 F 
ATOM     19  C   UNL     1       1.874   8.827  17.881  0.00  0.00    +0.000 A 
ATOM     20  C   UNL     1       0.895   9.816  18.103  0.00  0.00    +0.000 A 
ENDBRANCH   7  14
BRANCH  13  21
ATOM     21  C   UNL     1      -0.468  15.583  21.138  0.00  0.00    +0.000 C 
BRANCH  21  22
ATOM     22  C   UNL     1       0.925  15.149  21.168  0.00  0.00    +0.000 A 
ATOM     23  C   UNL     1       1.858  15.573  22.082  0.00  0.00    +0.000 A 
ATOM     24  O   UNL     1       3.108  15.347  21.625  0.00  0.00    +0.000 OA
ATOM     25  C   UNL     1       2.966  14.732  20.421  0.00  0.00    +0.000 A 
ATOM     26  C   UNL     1       3.965  14.594  19.475  0.00  0.00    +0.000 A 
ATOM     27  C   UNL     1       3.549  14.025  18.269  0.00  0.00    +0.000 A 
ATOM     28  C   UNL     1       2.338  13.356  18.132  0.00  0.00    +0.000 A 
ATOM     29  C   UNL     1       1.320  13.647  19.035  0.00  0.00    +0.000 A 
ATOM     30  C   UNL     1       1.636  14.409  20.179  0.00  0.00    +0.000 A 
ENDBRANCH  21  22
BRANCH  21  31
ATOM     31  O   UNL     1      -0.572  17.011  21.137  0.00  0.00    +0.000 OA
ATOM     32  H   UNL     1       0.040  17.330  20.458  0.00  0.00    +0.000 HD
ENDBRANCH  21  31
ENDBRANCH  13  21
TORSDOF 4
ENDMDL
MODEL 6
REMARK VINA RESULT:      -7.2      5.575     10.026
REMARK  Name = 
REMARK  5 active torsions:
REMARK  status: ('A' for Active; 'I' for Inactive)
REMARK    1  A    between atoms: C_1  and  C_2
REMARK    2  A    between atoms: N_7  and  C_8
REMARK    3  A    between atoms: C_20  and  C_21
REMARK    4  A    between atoms: C_21  and  O_22
REMARK    5  A    between atoms: C_21  and  C_23
REMARK                            x       y       z     vdW  Elec       q    Type
REMARK                         _______ _______ _______ _____ _____    ______ ____
ROOT
ATOM      1  C   UNL     1       0.737   3.256  18.966  0.00  0.00    +0.000 C 
ATOM      2  C   UNL     1       2.298   3.912  19.087  0.00  0.00    +0.000 C 
ATOM      3  C   UNL     1       2.214   4.363  20.525  0.00  0.00    +0.000 C 
ATOM      4  C   UNL     1       1.939   5.770  20.478  0.00  0.00    +0.000 A 
ATOM      5  C   UNL     1       1.763   6.624  21.542  0.00  0.00    +0.000 A 
ATOM      6  N   UNL     1       1.549   7.843  21.112  0.00  0.00    +0.000 NA
ATOM      7  N   UNL     1       1.547   7.800  19.730  0.00  0.00    +0.000 N 
ATOM      8  C   UNL     1       1.750   6.443  19.277  0.00  0.00    +0.000 A 
ATOM      9  C   UNL     1       1.806   5.754  17.935  0.00  0.00    +0.000 C 
ATOM     10  C   UNL     1       2.105   4.406  17.683  0.00  0.00    +0.000 C 
ATOM     11  C   UNL     1       2.523   2.615  17.437  0.00  0.00    +0.000 C 
ATOM     12  C   UNL     1       3.742   2.233  18.406  0.00  0.00    +0.000 C 
ATOM     13  C   UNL     1       3.889   3.662  18.595  0.00  0.00    +0.000 C 
ENDROOT
BRANCH   7  14
ATOM     14  C   UNL     1       1.418   9.112  19.153  0.00  0.00    +0.000 A 
ATOM     15  C   UNL     1       0.452  10.008  19.717  0.00  0.00    +0.000 A 
ATOM     16  C   UNL     1       0.440  11.371  19.414  0.00  0.00    +0.000 A 
ATOM     17  C   UNL     1       1.287  11.826  18.427  0.00  0.00    +0.000 A 
ATOM     18  F   UNL     1       1.324  13.135  18.140  0.00  0.00    +0.000 F 
ATOM     19  C   UNL     1       2.104  10.933  17.730  0.00  0.00    +0.000 A 
ATOM     20  C   UNL     1       2.204   9.581  18.114  0.00  0.00    +0.000 A 
ENDBRANCH   7  14
BRANCH  13  21
ATOM     21  C   UNL     1       5.168   4.494  18.730  0.00  0.00    +0.000 C 
BRANCH  21  22
ATOM     22  C   UNL     1       6.210   4.317  17.723  0.00  0.00    +0.000 A 
ATOM     23  C   UNL     1       7.554   4.486  17.949  0.00  0.00    +0.000 A 
ATOM     24  O   UNL     1       8.212   4.668  16.785  0.00  0.00    +0.000 OA
ATOM     25  C   UNL     1       7.278   4.570  15.802  0.00  0.00    +0.000 A 
ATOM     26  C   UNL     1       7.451   4.986  14.495  0.00  0.00    +0.000 A 
ATOM     27  C   UNL     1       6.309   4.885  13.697  0.00  0.00    +0.000 A 
ATOM     28  C   UNL     1       5.196   4.139  14.067  0.00  0.00    +0.000 A 
ATOM     29  C   UNL     1       5.001   3.876  15.420  0.00  0.00    +0.000 A 
ATOM     30  C   UNL     1       6.053   4.159  16.316  0.00  0.00    +0.000 A 
ENDBRANCH  21  22
BRANCH  21  31
ATOM     31  O   UNL     1       5.699   4.400  20.056  0.00  0.00    +0.000 OA
ATOM     32  H   UNL     1       6.614   4.711  20.007  0.00  0.00    +0.000 HD
ENDBRANCH  21  31
ENDBRANCH  13  21
TORSDOF 4
ENDMDL
MODEL 7
REMARK VINA RESULT:      -7.2      2.707      3.678
REMARK  Name = 
REMARK  5 active torsions:
REMARK  status: ('A' for Active; 'I' for Inactive)
REMARK    1  A    between atoms: C_1  and  C_2
REMARK    2  A    between atoms: N_7  and  C_8
REMARK    3  A    between atoms: C_20  and  C_21
REMARK    4  A    between atoms: C_21  and  O_22
REMARK    5  A    between atoms: C_21  and  C_23
REMARK                            x       y       z     vdW  Elec       q    Type
REMARK                         _______ _______ _______ _____ _____    ______ ____
ROOT
ATOM      1  C   UNL     1      -5.542  14.997  23.444  0.00  0.00    +0.000 C 
ATOM      2  C   UNL     1      -5.530  13.649  22.412  0.00  0.00    +0.000 C 
ATOM      3  C   UNL     1      -4.754  12.717  23.310  0.00  0.00    +0.000 C 
ATOM      4  C   UNL     1      -3.404  12.740  22.825  0.00  0.00    +0.000 A 
ATOM      5  C   UNL     1      -2.322  12.057  23.329  0.00  0.00    +0.000 A 
ATOM      6  N   UNL     1      -1.255  12.308  22.612  0.00  0.00    +0.000 NA
ATOM      7  N   UNL     1      -1.621  13.206  21.626  0.00  0.00    +0.000 N 
ATOM      8  C   UNL     1      -3.017  13.553  21.766  0.00  0.00    +0.000 A 
ATOM      9  C   UNL     1      -3.971  14.480  21.054  0.00  0.00    +0.000 C 
ATOM     10  C   UNL     1      -5.348  14.623  21.284  0.00  0.00    +0.000 C 
ATOM     11  C   UNL     1      -7.165  14.741  21.645  0.00  0.00    +0.000 C 
ATOM     12  C   UNL     1      -7.745  13.261  21.855  0.00  0.00    +0.000 C 
ATOM     13  C   UNL     1      -6.482  12.812  21.304  0.00  0.00    +0.000 C 
ENDROOT
BRANCH   7  14
ATOM     14  C   UNL     1      -0.538  13.475  20.717  0.00  0.00    +0.000 A 
ATOM     15  C   UNL     1       0.764  12.976  21.048  0.00  0.00    +0.000 A 
ATOM     16  C   UNL     1       1.804  12.946  20.117  0.00  0.00    +0.000 A 
ATOM     17  C   UNL     1       1.606  13.557  18.898  0.00  0.00    +0.000 A 
ATOM     18  F   UNL     1       2.573  13.512  17.971  0.00  0.00    +0.000 F 
ATOM     19  C   UNL     1       0.405  14.217  18.626  0.00  0.00    +0.000 A 
ATOM     20  C   UNL     1      -0.685  14.146  19.515  0.00  0.00    +0.000 A 
ENDBRANCH   7  14
BRANCH  13  21
ATOM     21  C   UNL     1      -6.201  11.639  20.360  0.00  0.00    +0.000 C 
BRANCH  21  22
ATOM     22  C   UNL     1      -5.842  11.944  18.979  0.00  0.00    +0.000 A 
ATOM     23  C   UNL     1      -6.741  12.233  17.981  0.00  0.00    +0.000 A 
ATOM     24  O   UNL     1      -6.177  12.057  16.768  0.00  0.00    +0.000 OA
ATOM     25  C   UNL     1      -4.888  11.690  16.998  0.00  0.00    +0.000 A 
ATOM     26  C   UNL     1      -4.043  11.123  16.063  0.00  0.00    +0.000 A 
ATOM     27  C   UNL     1      -2.801  10.728  16.566  0.00  0.00    +0.000 A 
ATOM     28  C   UNL     1      -2.319  11.154  17.799  0.00  0.00    +0.000 A 
ATOM     29  C   UNL     1      -3.239  11.581  18.752  0.00  0.00    +0.000 A 
ATOM     30  C   UNL     1      -4.574  11.794  18.348  0.00  0.00    +0.000 A 
ENDBRANCH  21  22
BRANCH  21  31
ATOM     31  O   UNL     1      -7.252  10.668  20.427  0.00  0.00    +0.000 OA
ATOM     32  H   UNL     1      -7.212  10.282  21.313  0.00  0.00    +0.000 HD
ENDBRANCH  21  31
ENDBRANCH  13  21
TORSDOF 4
ENDMDL
MODEL 8
REMARK VINA RESULT:      -7.1      3.364      5.961
REMARK  Name = 
REMARK  5 active torsions:
REMARK  status: ('A' for Active; 'I' for Inactive)
REMARK    1  A    between atoms: C_1  and  C_2
REMARK    2  A    between atoms: N_7  and  C_8
REMARK    3  A    between atoms: C_20  and  C_21
REMARK    4  A    between atoms: C_21  and  O_22
REMARK    5  A    between atoms: C_21  and  C_23
REMARK                            x       y       z     vdW  Elec       q    Type
REMARK                         _______ _______ _______ _____ _____    ______ ____
ROOT
ATOM      1  C   UNL     1       2.793  14.610  18.013  0.00  0.00    +0.000 C 
ATOM      2  C   UNL     1       2.045  14.524  19.535  0.00  0.00    +0.000 C 
ATOM      3  C   UNL     1       2.378  13.084  19.839  0.00  0.00    +0.000 C 
ATOM      4  C   UNL     1       1.192  12.336  19.534  0.00  0.00    +0.000 A 
ATOM      5  C   UNL     1       1.010  10.977  19.640  0.00  0.00    +0.000 A 
ATOM      6  N   UNL     1      -0.212  10.657  19.293  0.00  0.00    +0.000 NA
ATOM      7  N   UNL     1      -0.853  11.822  18.913  0.00  0.00    +0.000 N 
ATOM      8  C   UNL     1       0.055  12.941  19.011  0.00  0.00    +0.000 A 
ATOM      9  C   UNL     1      -0.022  14.418  18.710  0.00  0.00    +0.000 C 
ATOM     10  C   UNL     1       0.963  15.388  18.955  0.00  0.00    +0.000 C 
ATOM     11  C   UNL     1       2.312  16.607  19.324  0.00  0.00    +0.000 C 
ATOM     12  C   UNL     1       2.923  16.278  20.769  0.00  0.00    +0.000 C 
ATOM     13  C   UNL     1       1.768  15.418  20.934  0.00  0.00    +0.000 C 
ENDROOT
BRANCH   7  14
ATOM     14  C   UNL     1      -2.241  11.594  18.606  0.00  0.00    +0.000 A 
ATOM     15  C   UNL     1      -3.229  12.151  19.482  0.00  0.00    +0.000 A 
ATOM     16  C   UNL     1      -4.578  12.220  19.129  0.00  0.00    +0.000 A 
ATOM     17  C   UNL     1      -4.981  11.592  17.971  0.00  0.00    +0.000 A 
ATOM     18  F   UNL     1      -6.263  11.672  17.587  0.00  0.00    +0.000 F 
ATOM     19  C   UNL     1      -4.063  10.878  17.198  0.00  0.00    +0.000 A 
ATOM     20  C   UNL     1      -2.684  10.908  17.488  0.00  0.00    +0.000 A 
ENDBRANCH   7  14
BRANCH  13  21
ATOM     21  C   UNL     1       0.921  15.166  22.185  0.00  0.00    +0.000 C 
BRANCH  21  22
ATOM     22  C   UNL     1      -0.517  14.984  22.013  0.00  0.00    +0.000 A 
ATOM     23  C   UNL     1      -1.411  15.997  21.767  0.00  0.00    +0.000 A 
ATOM     24  O   UNL     1      -2.667  15.605  22.069  0.00  0.00    +0.000 OA
ATOM     25  C   UNL     1      -2.574  14.311  22.473  0.00  0.00    +0.000 A 
ATOM     26  C   UNL     1      -3.557  13.617  23.154  0.00  0.00    +0.000 A 
ATOM     27  C   UNL     1      -3.186  12.333  23.562  0.00  0.00    +0.000 A 
ATOM     28  C   UNL     1      -2.068  11.678  23.057  0.00  0.00    +0.000 A 
ATOM     29  C   UNL     1      -1.046  12.448  22.512  0.00  0.00    +0.000 A 
ATOM     30  C   UNL     1      -1.291  13.816  22.272  0.00  0.00    +0.000 A 
ENDBRANCH  21  22
BRANCH  21  31
ATOM     31  O   UNL     1       1.209  16.136  23.199  0.00  0.00    +0.000 OA
ATOM     32  H   UNL     1       0.357  16.400  23.575  0.00  0.00    +0.000 HD
ENDBRANCH  21  31
ENDBRANCH  13  21
TORSDOF 4
ENDMDL
MODEL 9
REMARK VINA RESULT:      -6.9      1.878      3.462
REMARK  Name = 
REMARK  5 active torsions:
REMARK  status: ('A' for Active; 'I' for Inactive)
REMARK    1  A    between atoms: C_1  and  C_2
REMARK    2  A    between atoms: N_7  and  C_8
REMARK    3  A    between atoms: C_20  and  C_21
REMARK    4  A    between atoms: C_21  and  O_22
REMARK    5  A    between atoms: C_21  and  C_23
REMARK                            x       y       z     vdW  Elec       q    Type
REMARK                         _______ _______ _______ _____ _____    ______ ____
ROOT
ATOM      1  C   UNL     1       1.338  12.915  20.753  0.00  0.00    +0.000 C 
ATOM      2  C   UNL     1       0.197  12.091  19.803  0.00  0.00    +0.000 C 
ATOM      3  C   UNL     1      -0.373  11.215  20.892  0.00  0.00    +0.000 C 
ATOM      4  C   UNL     1       0.256   9.935  20.734  0.00  0.00    +0.000 A 
ATOM      5  C   UNL     1       0.068   8.809  21.501  0.00  0.00    +0.000 A 
ATOM      6  N   UNL     1       0.798   7.823  21.043  0.00  0.00    +0.000 NA
ATOM      7  N   UNL     1       1.519   8.307  19.966  0.00  0.00    +0.000 N 
ATOM      8  C   UNL     1       1.226   9.707  19.764  0.00  0.00    +0.000 A 
ATOM      9  C   UNL     1       1.703  10.780  18.815  0.00  0.00    +0.000 C 
ATOM     10  C   UNL     1       1.229  12.097  18.713  0.00  0.00    +0.000 C 
ATOM     11  C   UNL     1       0.536  13.817  18.636  0.00  0.00    +0.000 C 
ATOM     12  C   UNL     1      -1.061  13.734  18.761  0.00  0.00    +0.000 C 
ATOM     13  C   UNL     1      -0.890  12.313  18.537  0.00  0.00    +0.000 C 
ENDROOT
BRANCH   7  14
ATOM     14  C   UNL     1       2.284   7.271  19.324  0.00  0.00    +0.000 A 
ATOM     15  C   UNL     1       2.296   5.968  19.921  0.00  0.00    +0.000 A 
ATOM     16  C   UNL     1       2.774   4.846  19.242  0.00  0.00    +0.000 A 
ATOM     17  C   UNL     1       3.390   5.035  18.025  0.00  0.00    +0.000 A 
ATOM     18  F   UNL     1       3.826   3.972  17.333  0.00  0.00    +0.000 F 
ATOM     19  C   UNL     1       3.560   6.322  17.511  0.00  0.00    +0.000 A 
ATOM     20  C   UNL     1       2.974   7.441  18.136  0.00  0.00    +0.000 A 
ENDBRANCH   7  14
BRANCH  13  21
ATOM     21  C   UNL     1      -1.764  11.349  17.728  0.00  0.00    +0.000 C 
BRANCH  21  22
ATOM     22  C   UNL     1      -3.212  11.450  17.876  0.00  0.00    +0.000 A 
ATOM     23  C   UNL     1      -4.118  11.265  16.860  0.00  0.00    +0.000 A 
ATOM     24  O   UNL     1      -5.307  11.819  17.177  0.00  0.00    +0.000 OA
ATOM     25  C   UNL     1      -5.167  12.327  18.430  0.00  0.00    +0.000 A 
ATOM     26  C   UNL     1      -6.026  13.234  19.022  0.00  0.00    +0.000 A 
ATOM     27  C   UNL     1      -5.612  13.695  20.274  0.00  0.00    +0.000 A 
ATOM     28  C   UNL     1      -4.613  13.070  21.012  0.00  0.00    +0.000 A 
ATOM     29  C   UNL     1      -3.689  12.281  20.334  0.00  0.00    +0.000 A 
ATOM     30  C   UNL     1      -3.949  11.954  18.986  0.00  0.00    +0.000 A 
ENDBRANCH  21  22
BRANCH  21  31
ATOM     31  O   UNL     1      -1.314   9.999  17.886  0.00  0.00    +0.000 OA
ATOM     32  H   UNL     1      -1.140   9.876  18.830  0.00  0.00    +0.000 HD
ENDBRANCH  21  31
ENDBRANCH  13  21
TORSDOF 4
ENDMDL
