MODEL 1
REMARK VINA RESULT:      -8.9      0.000      0.000
REMARK  Name = 
REMARK  11 active torsions:
REMARK  status: ('A' for Active; 'I' for Inactive)
REMARK    1  A    between atoms: C_1  and  O_2
REMARK    2  A    between atoms: O_2  and  C_3
REMARK    3  A    between atoms: C_6  and  C_7
REMARK    4  A    between atoms: C_7  and  C_9
REMARK    5  A    between atoms: C_11  and  N_12
REMARK    6  A    between atoms: C_13  and  C_14
REMARK    7  A    between atoms: C_17  and  C_18
REMARK    8  A    between atoms: C_21  and  O_22
REMARK    9  A    between atoms: O_22  and  C_23
REMARK   10  A    between atoms: C_24  and  O_25
REMARK   11  A    between atoms: O_25  and  C_26
REMARK                            x       y       z     vdW  Elec       q    Type
REMARK                         _______ _______ _______ _____ _____    ______ ____
ROOT
ATOM      1  C   UNL     1       2.694   5.645  19.545  0.00  0.00    +0.000 A 
ATOM      2  N   UNL     1       1.956   5.050  20.544  0.00  0.00    +0.000 N 
ATOM      3  C   UNL     1       2.386   3.778  20.782  0.00  0.00    +0.000 A 
ATOM      4  C   UNL     1       3.444   3.507  19.929  0.00  0.00    +0.000 A 
ATOM      5  C   UNL     1       3.644   4.700  19.134  0.00  0.00    +0.000 A 
ATOM      6  H   UNL     1       1.179   5.482  21.020  0.00  0.00    +0.000 HD
ENDROOT
BRANCH   5   7
ATOM      7  C   UNL     1       4.635   4.945  18.074  0.00  0.00    +0.000 A 
ATOM      8  C   UNL     1       4.469   4.442  16.784  0.00  0.00    +0.000 A 
ATOM      9  C   UNL     1       5.453   4.648  15.812  0.00  0.00    +0.000 A 
ATOM     10  C   UNL     1       6.603   5.404  16.083  0.00  0.00    +0.000 A 
ATOM     11  C   UNL     1       6.766   5.953  17.363  0.00  0.00    +0.000 A 
ATOM     12  C   UNL     1       5.800   5.677  18.345  0.00  0.00    +0.000 A 
BRANCH  10  13
ATOM     13  O   UNL     1       7.434   5.497  14.996  0.00  0.00    +0.000 OA
ATOM     14  C   UNL     1       7.082   4.800  13.812  0.00  0.00    +0.000 C 
ENDBRANCH  10  13
BRANCH  11  15
ATOM     15  O   UNL     1       7.873   6.719  17.627  0.00  0.00    +0.000 OA
ATOM     16  C   UNL     1       7.718   8.134  17.594  0.00  0.00    +0.000 C 
ENDBRANCH  11  15
ENDBRANCH   5   7
BRANCH   4  17
ATOM     17  C   UNL     1       4.200   2.258  19.883  0.00  0.00    +0.000 C 
ATOM     18  N   UNL     1       3.949   1.462  18.798  0.00  0.00    +0.000 N 
ATOM     19  O   UNL     1       5.037   1.918  20.711  0.00  0.00    +0.000 OA
ATOM     20  H   UNL     1       3.460   1.855  18.005  0.00  0.00    +0.000 HD
ATOM     21  H   UNL     1       4.590   0.694  18.655  0.00  0.00    +0.000 HD
ENDBRANCH   4  17
BRANCH   3  22
ATOM     22  N   UNL     1       1.777   3.049  21.740  0.00  0.00    +0.000 N 
ATOM     23  H   UNL     1       0.909   2.546  21.567  0.00  0.00    +0.000 HD
ATOM     24  H   UNL     1       1.849   3.352  22.712  0.00  0.00    +0.000 HD
ENDBRANCH   3  22
BRANCH   1  25
ATOM     25  C   UNL     1       2.390   6.972  19.022  0.00  0.00    +0.000 C 
ATOM     26  O   UNL     1       2.581   7.278  17.846  0.00  0.00    +0.000 OA
BRANCH  25  30
ATOM     27  C   UNL     1       0.663  10.094  21.455  0.00  0.00    +0.000 A 
ATOM     28  C   UNL     1       0.810  10.245  20.076  0.00  0.00    +0.000 A 
ATOM     29  C   UNL     1       1.369   9.222  19.308  0.00  0.00    +0.000 A 
ATOM     30  C   UNL     1       1.802   8.030  19.909  0.00  0.00    +0.000 A 
ATOM     31  C   UNL     1       1.712   7.907  21.302  0.00  0.00    +0.000 A 
ATOM     32  C   UNL     1       1.135   8.931  22.070  0.00  0.00    +0.000 A 
BRANCH  27  34
ATOM     33  C   UNL     1      -0.987  10.853  22.966  0.00  0.00    +0.000 C 
ATOM     34  O   UNL     1       0.099  11.158  22.097  0.00  0.00    +0.000 OA
ENDBRANCH  27  34
ENDBRANCH  25  30
ENDBRANCH   1  25
TORSDOF 8
ENDMDL
MODEL 2
REMARK VINA RESULT:      -8.7      0.702      1.135
REMARK  Name = 
REMARK  11 active torsions:
REMARK  status: ('A' for Active; 'I' for Inactive)
REMARK    1  A    between atoms: C_1  and  O_2
REMARK    2  A    between atoms: O_2  and  C_3
REMARK    3  A    between atoms: C_6  and  C_7
REMARK    4  A    between atoms: C_7  and  C_9
REMARK    5  A    between atoms: C_11  and  N_12
REMARK    6  A    between atoms: C_13  and  C_14
REMARK    7  A    between atoms: C_17  and  C_18
REMARK    8  A    between atoms: C_21  and  O_22
REMARK    9  A    between atoms: O_22  and  C_23
REMARK   10  A    between atoms: C_24  and  O_25
REMARK   11  A    between atoms: O_25  and  C_26
REMARK                            x       y       z     vdW  Elec       q    Type
REMARK                         _______ _______ _______ _____ _____    ______ ____
ROOT
ATOM      1  C   UNL     1       2.633   5.737  19.159  0.00  0.00    +0.000 A 
ATOM      2  N   UNL     1       1.801   5.145  20.084  0.00  0.00    +0.000 N 
ATOM      3  C   UNL     1       2.115   3.830  20.258  0.00  0.00    +0.000 A 
ATOM      4  C   UNL     1       3.189   3.524  19.437  0.00  0.00    +0.000 A 
ATOM      5  C   UNL     1       3.524   4.742  18.730  0.00  0.00    +0.000 A 
ATOM      6  H   UNL     1       1.038   5.611  20.551  0.00  0.00    +0.000 HD
ENDROOT
BRANCH   5   7
ATOM      7  C   UNL     1       4.582   4.968  17.734  0.00  0.00    +0.000 A 
ATOM      8  C   UNL     1       4.473   4.495  16.427  0.00  0.00    +0.000 A 
ATOM      9  C   UNL     1       5.519   4.680  15.517  0.00  0.00    +0.000 A 
ATOM     10  C   UNL     1       6.678   5.387  15.868  0.00  0.00    +0.000 A 
ATOM     11  C   UNL     1       6.787   5.907  17.166  0.00  0.00    +0.000 A 
ATOM     12  C   UNL     1       5.756   5.651  18.086  0.00  0.00    +0.000 A 
BRANCH  10  13
ATOM     13  O   UNL     1       7.573   5.467  14.832  0.00  0.00    +0.000 OA
ATOM     14  C   UNL     1       7.253   4.828  13.608  0.00  0.00    +0.000 C 
ENDBRANCH  10  13
BRANCH  11  15
ATOM     15  O   UNL     1       7.904   6.626  17.508  0.00  0.00    +0.000 OA
ATOM     16  C   UNL     1       7.770   8.039  17.620  0.00  0.00    +0.000 C 
ENDBRANCH  11  15
ENDBRANCH   5   7
BRANCH   4  17
ATOM     17  C   UNL     1       3.844   2.221  19.344  0.00  0.00    +0.000 C 
ATOM     18  N   UNL     1       4.942   2.061  20.144  0.00  0.00    +0.000 N 
ATOM     19  O   UNL     1       3.456   1.293  18.645  0.00  0.00    +0.000 OA
ATOM     20  H   UNL     1       5.104   2.721  20.893  0.00  0.00    +0.000 HD
ATOM     21  H   UNL     1       5.293   1.117  20.232  0.00  0.00    +0.000 HD
ENDBRANCH   4  17
BRANCH   3  22
ATOM     22  N   UNL     1       1.403   3.097  21.138  0.00  0.00    +0.000 N 
ATOM     23  H   UNL     1       0.764   2.363  20.839  0.00  0.00    +0.000 HD
ATOM     24  H   UNL     1       1.094   3.532  22.008  0.00  0.00    +0.000 HD
ENDBRANCH   3  22
BRANCH   1  25
ATOM     25  C   UNL     1       2.463   7.113  18.709  0.00  0.00    +0.000 C 
ATOM     26  O   UNL     1       2.794   7.487  17.586  0.00  0.00    +0.000 OA
BRANCH  25  30
ATOM     27  C   UNL     1       0.734   9.999  21.416  0.00  0.00    +0.000 A 
ATOM     28  C   UNL     1       1.253   8.790  21.879  0.00  0.00    +0.000 A 
ATOM     29  C   UNL     1       1.809   7.872  20.986  0.00  0.00    +0.000 A 
ATOM     30  C   UNL     1       1.847   8.144  19.610  0.00  0.00    +0.000 A 
ATOM     31  C   UNL     1       1.266   9.331  19.142  0.00  0.00    +0.000 A 
ATOM     32  C   UNL     1       0.722  10.259  20.043  0.00  0.00    +0.000 A 
BRANCH  27  34
ATOM     33  C   UNL     1      -0.921  10.322  23.072  0.00  0.00    +0.000 C 
ATOM     34  O   UNL     1       0.222  10.817  22.383  0.00  0.00    +0.000 OA
ENDBRANCH  27  34
ENDBRANCH  25  30
ENDBRANCH   1  25
TORSDOF 8
ENDMDL
MODEL 3
REMARK VINA RESULT:      -8.3      1.786      7.018
REMARK  Name = 
REMARK  11 active torsions:
REMARK  status: ('A' for Active; 'I' for Inactive)
REMARK    1  A    between atoms: C_1  and  O_2
REMARK    2  A    between atoms: O_2  and  C_3
REMARK    3  A    between atoms: C_6  and  C_7
REMARK    4  A    between atoms: C_7  and  C_9
REMARK    5  A    between atoms: C_11  and  N_12
REMARK    6  A    between atoms: C_13  and  C_14
REMARK    7  A    between atoms: C_17  and  C_18
REMARK    8  A    between atoms: C_21  and  O_22
REMARK    9  A    between atoms: O_22  and  C_23
REMARK   10  A    between atoms: C_24  and  O_25
REMARK   11  A    between atoms: O_25  and  C_26
REMARK                            x       y       z     vdW  Elec       q    Type
REMARK                         _______ _______ _______ _____ _____    ______ ____
ROOT
ATOM      1  C   UNL     1       4.866   4.510  18.807  0.00  0.00    +0.000 A 
ATOM      2  N   UNL     1       5.196   3.238  19.218  0.00  0.00    +0.000 N 
ATOM      3  C   UNL     1       4.252   2.733  20.062  0.00  0.00    +0.000 A 
ATOM      4  C   UNL     1       3.256   3.682  20.223  0.00  0.00    +0.000 A 
ATOM      5  C   UNL     1       3.645   4.824  19.421  0.00  0.00    +0.000 A 
ATOM      6  H   UNL     1       6.039   2.749  18.956  0.00  0.00    +0.000 HD
ENDROOT
BRANCH   5   7
ATOM      7  C   UNL     1       2.945   6.104  19.241  0.00  0.00    +0.000 A 
ATOM      8  C   UNL     1       2.785   6.682  17.982  0.00  0.00    +0.000 A 
ATOM      9  C   UNL     1       2.161   7.926  17.848  0.00  0.00    +0.000 A 
ATOM     10  C   UNL     1       1.630   8.602  18.956  0.00  0.00    +0.000 A 
ATOM     11  C   UNL     1       1.744   8.016  20.225  0.00  0.00    +0.000 A 
ATOM     12  C   UNL     1       2.436   6.799  20.348  0.00  0.00    +0.000 A 
BRANCH  10  13
ATOM     13  O   UNL     1       1.051   9.796  18.610  0.00  0.00    +0.000 OA
ATOM     14  C   UNL     1       1.892  10.905  18.339  0.00  0.00    +0.000 C 
ENDBRANCH  10  13
BRANCH  11  15
ATOM     15  O   UNL     1       1.202   8.657  21.310  0.00  0.00    +0.000 OA
ATOM     16  C   UNL     1      -0.196   8.506  21.534  0.00  0.00    +0.000 C 
ENDBRANCH  11  15
ENDBRANCH   5   7
BRANCH   4  17
ATOM     17  C   UNL     1       2.051   3.522  21.034  0.00  0.00    +0.000 C 
ATOM     18  N   UNL     1       0.870   3.597  20.347  0.00  0.00    +0.000 N 
ATOM     19  O   UNL     1       2.045   3.298  22.238  0.00  0.00    +0.000 OA
ATOM     20  H   UNL     1       0.884   3.528  19.339  0.00  0.00    +0.000 HD
ATOM     21  H   UNL     1       0.044   3.307  20.853  0.00  0.00    +0.000 HD
ENDBRANCH   4  17
BRANCH   3  22
ATOM     22  N   UNL     1       4.412   1.488  20.556  0.00  0.00    +0.000 N 
ATOM     23  H   UNL     1       3.626   0.929  20.881  0.00  0.00    +0.000 HD
ATOM     24  H   UNL     1       5.267   1.266  21.068  0.00  0.00    +0.000 HD
ENDBRANCH   3  22
BRANCH   1  25
ATOM     25  C   UNL     1       5.744   5.324  17.974  0.00  0.00    +0.000 C 
ATOM     26  O   UNL     1       6.309   6.330  18.398  0.00  0.00    +0.000 OA
BRANCH  25  30
ATOM     27  C   UNL     1       6.385   4.181  13.860  0.00  0.00    +0.000 A 
ATOM     28  C   UNL     1       5.255   3.762  14.562  0.00  0.00    +0.000 A 
ATOM     29  C   UNL     1       5.067   4.146  15.892  0.00  0.00    +0.000 A 
ATOM     30  C   UNL     1       6.013   4.948  16.547  0.00  0.00    +0.000 A 
ATOM     31  C   UNL     1       7.178   5.313  15.858  0.00  0.00    +0.000 A 
ATOM     32  C   UNL     1       7.357   4.939  14.517  0.00  0.00    +0.000 A 
BRANCH  27  34
ATOM     33  C   UNL     1       5.239   3.267  12.007  0.00  0.00    +0.000 C 
ATOM     34  O   UNL     1       6.457   3.748  12.567  0.00  0.00    +0.000 OA
ENDBRANCH  27  34
ENDBRANCH  25  30
ENDBRANCH   1  25
TORSDOF 8
ENDMDL
MODEL 4
REMARK VINA RESULT:      -8.2      1.878      6.087
REMARK  Name = 
REMARK  11 active torsions:
REMARK  status: ('A' for Active; 'I' for Inactive)
REMARK    1  A    between atoms: C_1  and  O_2
REMARK    2  A    between atoms: O_2  and  C_3
REMARK    3  A    between atoms: C_6  and  C_7
REMARK    4  A    between atoms: C_7  and  C_9
REMARK    5  A    between atoms: C_11  and  N_12
REMARK    6  A    between atoms: C_13  and  C_14
REMARK    7  A    between atoms: C_17  and  C_18
REMARK    8  A    between atoms: C_21  and  O_22
REMARK    9  A    between atoms: O_22  and  C_23
REMARK   10  A    between atoms: C_24  and  O_25
REMARK   11  A    between atoms: O_25  and  C_26
REMARK                            x       y       z     vdW  Elec       q    Type
REMARK                         _______ _______ _______ _____ _____    ______ ____
ROOT
ATOM      1  C   UNL     1       4.395   4.474  17.868  0.00  0.00    +0.000 A 
ATOM      2  N   UNL     1       4.647   3.134  18.066  0.00  0.00    +0.000 N 
ATOM      3  C   UNL     1       3.812   2.611  19.008  0.00  0.00    +0.000 A 
ATOM      4  C   UNL     1       2.971   3.617  19.455  0.00  0.00    +0.000 A 
ATOM      5  C   UNL     1       3.341   4.813  18.727  0.00  0.00    +0.000 A 
ATOM      6  H   UNL     1       5.372   2.610  17.600  0.00  0.00    +0.000 HD
ENDROOT
BRANCH   5   7
ATOM      7  C   UNL     1       2.768   6.164  18.823  0.00  0.00    +0.000 A 
ATOM      8  C   UNL     1       2.650   6.992  17.707  0.00  0.00    +0.000 A 
ATOM      9  C   UNL     1       2.149   8.291  17.839  0.00  0.00    +0.000 A 
ATOM     10  C   UNL     1       1.701   8.781  19.074  0.00  0.00    +0.000 A 
ATOM     11  C   UNL     1       1.772   7.947  20.200  0.00  0.00    +0.000 A 
ATOM     12  C   UNL     1       2.343   6.671  20.060  0.00  0.00    +0.000 A 
BRANCH  10  13
ATOM     13  O   UNL     1       1.237  10.068  18.987  0.00  0.00    +0.000 OA
ATOM     14  C   UNL     1      -0.075  10.285  18.491  0.00  0.00    +0.000 C 
ENDBRANCH  10  13
BRANCH  11  15
ATOM     15  O   UNL     1       1.309   8.408  21.406  0.00  0.00    +0.000 OA
ATOM     16  C   UNL     1      -0.094   8.347  21.639  0.00  0.00    +0.000 C 
ENDBRANCH  11  15
ENDBRANCH   5   7
BRANCH   4  17
ATOM     17  C   UNL     1       1.913   3.462  20.451  0.00  0.00    +0.000 C 
ATOM     18  N   UNL     1       0.668   3.201  19.946  0.00  0.00    +0.000 N 
ATOM     19  O   UNL     1       2.083   3.514  21.663  0.00  0.00    +0.000 OA
ATOM     20  H   UNL     1       0.581   2.911  18.982  0.00  0.00    +0.000 HD
ATOM     21  H   UNL     1      -0.030   2.910  20.616  0.00  0.00    +0.000 HD
ENDBRANCH   4  17
BRANCH   3  22
ATOM     22  N   UNL     1       3.915   1.303  19.322  0.00  0.00    +0.000 N 
ATOM     23  H   UNL     1       4.399   0.984  20.159  0.00  0.00    +0.000 HD
ATOM     24  H   UNL     1       3.978   0.617  18.568  0.00  0.00    +0.000 HD
ENDBRANCH   3  22
BRANCH   1  25
ATOM     25  C   UNL     1       5.202   5.307  16.983  0.00  0.00    +0.000 C 
ATOM     26  O   UNL     1       5.036   5.331  15.765  0.00  0.00    +0.000 OA
BRANCH  25  30
ATOM     27  C   UNL     1       8.227   7.987  18.503  0.00  0.00    +0.000 A 
ATOM     28  C   UNL     1       7.327   8.393  17.518  0.00  0.00    +0.000 A 
ATOM     29  C   UNL     1       6.355   7.510  17.043  0.00  0.00    +0.000 A 
ATOM     30  C   UNL     1       6.274   6.200  17.537  0.00  0.00    +0.000 A 
ATOM     31  C   UNL     1       7.221   5.776  18.480  0.00  0.00    +0.000 A 
ATOM     32  C   UNL     1       8.187   6.670  18.968  0.00  0.00    +0.000 A 
BRANCH  27  34
ATOM     33  C   UNL     1       8.925  10.240  18.350  0.00  0.00    +0.000 C 
ATOM     34  O   UNL     1       9.127   8.938  18.891  0.00  0.00    +0.000 OA
ENDBRANCH  27  34
ENDBRANCH  25  30
ENDBRANCH   1  25
TORSDOF 8
ENDMDL
MODEL 5
REMARK VINA RESULT:      -8.1      1.906      6.049
REMARK  Name = 
REMARK  11 active torsions:
REMARK  status: ('A' for Active; 'I' for Inactive)
REMARK    1  A    between atoms: C_1  and  O_2
REMARK    2  A    between atoms: O_2  and  C_3
REMARK    3  A    between atoms: C_6  and  C_7
REMARK    4  A    between atoms: C_7  and  C_9
REMARK    5  A    between atoms: C_11  and  N_12
REMARK    6  A    between atoms: C_13  and  C_14
REMARK    7  A    between atoms: C_17  and  C_18
REMARK    8  A    between atoms: C_21  and  O_22
REMARK    9  A    between atoms: O_22  and  C_23
REMARK   10  A    between atoms: C_24  and  O_25
REMARK   11  A    between atoms: O_25  and  C_26
REMARK                            x       y       z     vdW  Elec       q    Type
REMARK                         _______ _______ _______ _____ _____    ______ ____
ROOT
ATOM      1  C   UNL     1       4.193   3.905  17.567  0.00  0.00    +0.000 A 
ATOM      2  N   UNL     1       4.351   2.545  17.715  0.00  0.00    +0.000 N 
ATOM      3  C   UNL     1       3.518   2.054  18.677  0.00  0.00    +0.000 A 
ATOM      4  C   UNL     1       2.775   3.105  19.190  0.00  0.00    +0.000 A 
ATOM      5  C   UNL     1       3.204   4.294  18.482  0.00  0.00    +0.000 A 
ATOM      6  H   UNL     1       5.014   1.984  17.203  0.00  0.00    +0.000 HD
ENDROOT
BRANCH   5   7
ATOM      7  C   UNL     1       2.739   5.680  18.643  0.00  0.00    +0.000 A 
ATOM      8  C   UNL     1       2.601   6.538  17.553  0.00  0.00    +0.000 A 
ATOM      9  C   UNL     1       2.207   7.866  17.743  0.00  0.00    +0.000 A 
ATOM     10  C   UNL     1       1.887   8.360  19.016  0.00  0.00    +0.000 A 
ATOM     11  C   UNL     1       1.979   7.499  20.119  0.00  0.00    +0.000 A 
ATOM     12  C   UNL     1       2.444   6.188  19.916  0.00  0.00    +0.000 A 
BRANCH  10  13
ATOM     13  O   UNL     1       1.512   9.679  18.985  0.00  0.00    +0.000 OA
ATOM     14  C   UNL     1       0.309  10.027  18.320  0.00  0.00    +0.000 C 
ENDBRANCH  10  13
BRANCH  11  15
ATOM     15  O   UNL     1       1.640   7.965  21.364  0.00  0.00    +0.000 OA
ATOM     16  C   UNL     1       0.266   8.245  21.610  0.00  0.00    +0.000 C 
ENDBRANCH  11  15
ENDBRANCH   5   7
BRANCH   4  17
ATOM     17  C   UNL     1       1.751   2.997  20.226  0.00  0.00    +0.000 C 
ATOM     18  N   UNL     1       0.459   3.091  19.784  0.00  0.00    +0.000 N 
ATOM     19  O   UNL     1       1.978   2.798  21.413  0.00  0.00    +0.000 OA
ATOM     20  H   UNL     1       0.272   2.999  18.795  0.00  0.00    +0.000 HD
ATOM     21  H   UNL     1      -0.256   2.835  20.450  0.00  0.00    +0.000 HD
ENDBRANCH   4  17
BRANCH   3  22
ATOM     22  N   UNL     1       3.535   0.733  18.947  0.00  0.00    +0.000 N 
ATOM     23  H   UNL     1       2.871   0.304  19.589  0.00  0.00    +0.000 HD
ATOM     24  H   UNL     1       4.429   0.240  18.946  0.00  0.00    +0.000 HD
ENDBRANCH   3  22
BRANCH   1  25
ATOM     25  C   UNL     1       5.023   4.704  16.673  0.00  0.00    +0.000 C 
ATOM     26  O   UNL     1       4.948   4.619  15.449  0.00  0.00    +0.000 OA
BRANCH  25  30
ATOM     27  C   UNL     1       7.911   7.452  18.333  0.00  0.00    +0.000 A 
ATOM     28  C   UNL     1       7.792   6.148  18.812  0.00  0.00    +0.000 A 
ATOM     29  C   UNL     1       6.852   5.275  18.259  0.00  0.00    +0.000 A 
ATOM     30  C   UNL     1       6.006   5.696  17.222  0.00  0.00    +0.000 A 
ATOM     31  C   UNL     1       6.085   7.027  16.788  0.00  0.00    +0.000 A 
ATOM     32  C   UNL     1       7.041   7.897  17.334  0.00  0.00    +0.000 A 
BRANCH  27  34
ATOM     33  C   UNL     1       8.831   9.604  18.663  0.00  0.00    +0.000 C 
ATOM     34  O   UNL     1       8.867   8.209  18.948  0.00  0.00    +0.000 OA
ENDBRANCH  27  34
ENDBRANCH  25  30
ENDBRANCH   1  25
TORSDOF 8
ENDMDL
MODEL 6
REMARK VINA RESULT:      -8.1      1.833      7.127
REMARK  Name = 
REMARK  11 active torsions:
REMARK  status: ('A' for Active; 'I' for Inactive)
REMARK    1  A    between atoms: C_1  and  O_2
REMARK    2  A    between atoms: O_2  and  C_3
REMARK    3  A    between atoms: C_6  and  C_7
REMARK    4  A    between atoms: C_7  and  C_9
REMARK    5  A    between atoms: C_11  and  N_12
REMARK    6  A    between atoms: C_13  and  C_14
REMARK    7  A    between atoms: C_17  and  C_18
REMARK    8  A    between atoms: C_21  and  O_22
REMARK    9  A    between atoms: O_22  and  C_23
REMARK   10  A    between atoms: C_24  and  O_25
REMARK   11  A    between atoms: O_25  and  C_26
REMARK                            x       y       z     vdW  Elec       q    Type
REMARK                         _______ _______ _______ _____ _____    ______ ____
ROOT
ATOM      1  C   UNL     1       4.783   4.538  18.740  0.00  0.00    +0.000 A 
ATOM      2  N   UNL     1       5.072   3.246  19.120  0.00  0.00    +0.000 N 
ATOM      3  C   UNL     1       4.108   2.749  19.946  0.00  0.00    +0.000 A 
ATOM      4  C   UNL     1       3.140   3.724  20.126  0.00  0.00    +0.000 A 
ATOM      5  C   UNL     1       3.568   4.873  19.355  0.00  0.00    +0.000 A 
ATOM      6  H   UNL     1       5.901   2.739  18.850  0.00  0.00    +0.000 HD
ENDROOT
BRANCH   5   7
ATOM      7  C   UNL     1       2.908   6.178  19.203  0.00  0.00    +0.000 A 
ATOM      8  C   UNL     1       2.792   6.802  17.962  0.00  0.00    +0.000 A 
ATOM      9  C   UNL     1       2.206   8.067  17.857  0.00  0.00    +0.000 A 
ATOM     10  C   UNL     1       1.670   8.721  18.976  0.00  0.00    +0.000 A 
ATOM     11  C   UNL     1       1.740   8.090  20.227  0.00  0.00    +0.000 A 
ATOM     12  C   UNL     1       2.395   6.850  20.322  0.00  0.00    +0.000 A 
BRANCH  10  13
ATOM     13  O   UNL     1       1.132   9.941  18.659  0.00  0.00    +0.000 OA
ATOM     14  C   UNL     1      -0.201   9.990  18.177  0.00  0.00    +0.000 C 
ENDBRANCH  10  13
BRANCH  11  15
ATOM     15  O   UNL     1       1.193   8.709  21.321  0.00  0.00    +0.000 OA
ATOM     16  C   UNL     1      -0.189   8.488  21.581  0.00  0.00    +0.000 C 
ENDBRANCH  11  15
ENDBRANCH   5   7
BRANCH   4  17
ATOM     17  C   UNL     1       1.926   3.580  20.926  0.00  0.00    +0.000 C 
ATOM     18  N   UNL     1       2.128   3.266  22.243  0.00  0.00    +0.000 N 
ATOM     19  O   UNL     1       0.789   3.755  20.507  0.00  0.00    +0.000 OA
ATOM     20  H   UNL     1       3.053   3.372  22.636  0.00  0.00    +0.000 HD
ATOM     21  H   UNL     1       1.321   3.344  22.846  0.00  0.00    +0.000 HD
ENDBRANCH   4  17
BRANCH   3  22
ATOM     22  N   UNL     1       4.228   1.488  20.409  0.00  0.00    +0.000 N 
ATOM     23  H   UNL     1       4.530   1.287  21.361  0.00  0.00    +0.000 HD
ATOM     24  H   UNL     1       4.507   0.748  19.763  0.00  0.00    +0.000 HD
ENDBRANCH   3  22
BRANCH   1  25
ATOM     25  C   UNL     1       5.690   5.345  17.932  0.00  0.00    +0.000 C 
ATOM     26  O   UNL     1       6.289   6.319  18.386  0.00  0.00    +0.000 OA
BRANCH  25  30
ATOM     27  C   UNL     1       6.572   4.405  13.811  0.00  0.00    +0.000 A 
ATOM     28  C   UNL     1       7.489   5.083  14.613  0.00  0.00    +0.000 A 
ATOM     29  C   UNL     1       7.184   5.375  15.944  0.00  0.00    +0.000 A 
ATOM     30  C   UNL     1       5.948   5.002  16.494  0.00  0.00    +0.000 A 
ATOM     31  C   UNL     1       5.004   4.378  15.667  0.00  0.00    +0.000 A 
ATOM     32  C   UNL     1       5.320   4.071  14.334  0.00  0.00    +0.000 A 
BRANCH  27  34
ATOM     33  C   UNL     1       6.338   3.095  11.858  0.00  0.00    +0.000 C 
ATOM     34  O   UNL     1       6.984   4.171  12.531  0.00  0.00    +0.000 OA
ENDBRANCH  27  34
ENDBRANCH  25  30
ENDBRANCH   1  25
TORSDOF 8
ENDMDL
MODEL 7
REMARK VINA RESULT:      -8.1      1.885      7.114
REMARK  Name = 
REMARK  11 active torsions:
REMARK  status: ('A' for Active; 'I' for Inactive)
REMARK    1  A    between atoms: C_1  and  O_2
REMARK    2  A    between atoms: O_2  and  C_3
REMARK    3  A    between atoms: C_6  and  C_7
REMARK    4  A    between atoms: C_7  and  C_9
REMARK    5  A    between atoms: C_11  and  N_12
REMARK    6  A    between atoms: C_13  and  C_14
REMARK    7  A    between atoms: C_17  and  C_18
REMARK    8  A    between atoms: C_21  and  O_22
REMARK    9  A    between atoms: O_22  and  C_23
REMARK   10  A    between atoms: C_24  and  O_25
REMARK   11  A    between atoms: O_25  and  C_26
REMARK                            x       y       z     vdW  Elec       q    Type
REMARK                         _______ _______ _______ _____ _____    ______ ____
ROOT
ATOM      1  C   UNL     1       4.351   3.964  18.461  0.00  0.00    +0.000 A 
ATOM      2  N   UNL     1       4.415   2.589  18.517  0.00  0.00    +0.000 N 
ATOM      3  C   UNL     1       3.245   2.061  18.980  0.00  0.00    +0.000 A 
ATOM      4  C   UNL     1       2.367   3.101  19.238  0.00  0.00    +0.000 A 
ATOM      5  C   UNL     1       3.071   4.323  18.908  0.00  0.00    +0.000 A 
ATOM      6  H   UNL     1       5.226   2.041  18.278  0.00  0.00    +0.000 HD
ENDROOT
BRANCH   5   7
ATOM      7  C   UNL     1       2.598   5.712  19.001  0.00  0.00    +0.000 A 
ATOM      8  C   UNL     1       2.542   6.545  17.884  0.00  0.00    +0.000 A 
ATOM      9  C   UNL     1       2.137   7.878  18.014  0.00  0.00    +0.000 A 
ATOM     10  C   UNL     1       1.726   8.401  19.249  0.00  0.00    +0.000 A 
ATOM     11  C   UNL     1       1.736   7.566  20.376  0.00  0.00    +0.000 A 
ATOM     12  C   UNL     1       2.212   6.251  20.237  0.00  0.00    +0.000 A 
BRANCH  10  13
ATOM     13  O   UNL     1       1.358   9.719  19.160  0.00  0.00    +0.000 OA
ATOM     14  C   UNL     1       0.295  10.069  18.289  0.00  0.00    +0.000 C 
ENDBRANCH  10  13
BRANCH  11  15
ATOM     15  O   UNL     1       1.308   8.061  21.581  0.00  0.00    +0.000 OA
ATOM     16  C   UNL     1      -0.072   8.390  21.705  0.00  0.00    +0.000 C 
ENDBRANCH  11  15
ENDBRANCH   5   7
BRANCH   4  17
ATOM     17  C   UNL     1       0.998   2.957  19.726  0.00  0.00    +0.000 C 
ATOM     18  N   UNL     1       0.846   3.065  21.081  0.00  0.00    +0.000 N 
ATOM     19  O   UNL     1       0.017   2.787  19.012  0.00  0.00    +0.000 OA
ATOM     20  H   UNL     1       1.602   3.452  21.630  0.00  0.00    +0.000 HD
ATOM     21  H   UNL     1      -0.104   3.153  21.415  0.00  0.00    +0.000 HD
ENDBRANCH   4  17
BRANCH   3  22
ATOM     22  N   UNL     1       3.130   0.722  19.091  0.00  0.00    +0.000 N 
ATOM     23  H   UNL     1       2.860   0.273  19.964  0.00  0.00    +0.000 HD
ATOM     24  H   UNL     1       3.744   0.125  18.536  0.00  0.00    +0.000 HD
ENDBRANCH   3  22
BRANCH   1  25
ATOM     25  C   UNL     1       5.492   4.794  18.092  0.00  0.00    +0.000 C 
ATOM     26  O   UNL     1       6.078   5.509  18.902  0.00  0.00    +0.000 OA
BRANCH  25  30
ATOM     27  C   UNL     1       6.877   4.743  14.002  0.00  0.00    +0.000 A 
ATOM     28  C   UNL     1       5.618   4.254  14.348  0.00  0.00    +0.000 A 
ATOM     29  C   UNL     1       5.189   4.282  15.677  0.00  0.00    +0.000 A 
ATOM     30  C   UNL     1       6.019   4.791  16.687  0.00  0.00    +0.000 A 
ATOM     31  C   UNL     1       7.308   5.223  16.345  0.00  0.00    +0.000 A 
ATOM     32  C   UNL     1       7.730   5.209  15.006  0.00  0.00    +0.000 A 
BRANCH  27  34
ATOM     33  C   UNL     1       6.710   3.510  11.994  0.00  0.00    +0.000 C 
ATOM     34  O   UNL     1       7.182   4.668  12.674  0.00  0.00    +0.000 OA
ENDBRANCH  27  34
ENDBRANCH  25  30
ENDBRANCH   1  25
TORSDOF 8
ENDMDL
MODEL 8
REMARK VINA RESULT:      -7.9      1.084      1.111
REMARK  Name = 
REMARK  11 active torsions:
REMARK  status: ('A' for Active; 'I' for Inactive)
REMARK    1  A    between atoms: C_1  and  O_2
REMARK    2  A    between atoms: O_2  and  C_3
REMARK    3  A    between atoms: C_6  and  C_7
REMARK    4  A    between atoms: C_7  and  C_9
REMARK    5  A    between atoms: C_11  and  N_12
REMARK    6  A    between atoms: C_13  and  C_14
REMARK    7  A    between atoms: C_17  and  C_18
REMARK    8  A    between atoms: C_21  and  O_22
REMARK    9  A    between atoms: O_22  and  C_23
REMARK   10  A    between atoms: C_24  and  O_25
REMARK   11  A    between atoms: O_25  and  C_26
REMARK                            x       y       z     vdW  Elec       q    Type
REMARK                         _______ _______ _______ _____ _____    ______ ____
ROOT
ATOM      1  C   UNL     1       2.499   5.910  18.982  0.00  0.00    +0.000 A 
ATOM      2  N   UNL     1       1.491   5.418  19.782  0.00  0.00    +0.000 N 
ATOM      3  C   UNL     1       1.566   4.061  19.888  0.00  0.00    +0.000 A 
ATOM      4  C   UNL     1       2.653   3.622  19.148  0.00  0.00    +0.000 A 
ATOM      5  C   UNL     1       3.253   4.804  18.565  0.00  0.00    +0.000 A 
ATOM      6  H   UNL     1       0.771   5.979  20.211  0.00  0.00    +0.000 HD
ENDROOT
BRANCH   5   7
ATOM      7  C   UNL     1       4.430   4.902  17.688  0.00  0.00    +0.000 A 
ATOM      8  C   UNL     1       4.335   4.718  16.309  0.00  0.00    +0.000 A 
ATOM      9  C   UNL     1       5.481   4.766  15.508  0.00  0.00    +0.000 A 
ATOM     10  C   UNL     1       6.742   5.051  16.051  0.00  0.00    +0.000 A 
ATOM     11  C   UNL     1       6.850   5.280  17.430  0.00  0.00    +0.000 A 
ATOM     12  C   UNL     1       5.699   5.160  18.227  0.00  0.00    +0.000 A 
BRANCH  10  13
ATOM     13  O   UNL     1       7.728   5.063  15.098  0.00  0.00    +0.000 OA
ATOM     14  C   UNL     1       7.363   4.873  13.741  0.00  0.00    +0.000 C 
ENDBRANCH  10  13
BRANCH  11  15
ATOM     15  O   UNL     1       8.075   5.589  17.964  0.00  0.00    +0.000 OA
ATOM     16  C   UNL     1       8.099   6.189  19.255  0.00  0.00    +0.000 C 
ENDBRANCH  11  15
ENDBRANCH   5   7
BRANCH   4  17
ATOM     17  C   UNL     1       3.091   2.235  19.021  0.00  0.00    +0.000 C 
ATOM     18  N   UNL     1       2.308   1.446  18.223  0.00  0.00    +0.000 N 
ATOM     19  O   UNL     1       4.099   1.771  19.540  0.00  0.00    +0.000 OA
ATOM     20  H   UNL     1       1.639   1.883  17.606  0.00  0.00    +0.000 HD
ATOM     21  H   UNL     1       2.694   0.544  17.977  0.00  0.00    +0.000 HD
ENDBRANCH   4  17
BRANCH   3  22
ATOM     22  N   UNL     1       0.657   3.411  20.644  0.00  0.00    +0.000 N 
ATOM     23  H   UNL     1       0.905   2.967  21.526  0.00  0.00    +0.000 HD
ATOM     24  H   UNL     1      -0.113   2.926  20.183  0.00  0.00    +0.000 HD
ENDBRANCH   3  22
BRANCH   1  25
ATOM     25  C   UNL     1       2.603   7.319  18.620  0.00  0.00    +0.000 C 
ATOM     26  O   UNL     1       3.383   7.724  17.760  0.00  0.00    +0.000 OA
BRANCH  25  30
ATOM     27  C   UNL     1       0.060  10.327  20.387  0.00  0.00    +0.000 A 
ATOM     28  C   UNL     1       0.316  10.307  19.016  0.00  0.00    +0.000 A 
ATOM     29  C   UNL     1       1.140   9.324  18.466  0.00  0.00    +0.000 A 
ATOM     30  C   UNL     1       1.732   8.347  19.280  0.00  0.00    +0.000 A 
ATOM     31  C   UNL     1       1.524   8.409  20.665  0.00  0.00    +0.000 A 
ATOM     32  C   UNL     1       0.683   9.389  21.214  0.00  0.00    +0.000 A 
BRANCH  27  34
ATOM     33  C   UNL     1      -0.583  11.759  22.153  0.00  0.00    +0.000 C 
ATOM     34  O   UNL     1      -0.764  11.332  20.808  0.00  0.00    +0.000 OA
ENDBRANCH  27  34
ENDBRANCH  25  30
ENDBRANCH   1  25
TORSDOF 8
ENDMDL
MODEL 9
REMARK VINA RESULT:      -7.8      1.742      6.018
REMARK  Name = 
REMARK  11 active torsions:
REMARK  status: ('A' for Active; 'I' for Inactive)
REMARK    1  A    between atoms: C_1  and  O_2
REMARK    2  A    between atoms: O_2  and  C_3
REMARK    3  A    between atoms: C_6  and  C_7
REMARK    4  A    between atoms: C_7  and  C_9
REMARK    5  A    between atoms: C_11  and  N_12
REMARK    6  A    between atoms: C_13  and  C_14
REMARK    7  A    between atoms: C_17  and  C_18
REMARK    8  A    between atoms: C_21  and  O_22
REMARK    9  A    between atoms: O_22  and  C_23
REMARK   10  A    between atoms: C_24  and  O_25
REMARK   11  A    between atoms: O_25  and  C_26
REMARK                            x       y       z     vdW  Elec       q    Type
REMARK                         _______ _______ _______ _____ _____    ______ ____
ROOT
ATOM      1  C   UNL     1       4.247   4.029  17.674  0.00  0.00    +0.000 A 
ATOM      2  N   UNL     1       4.467   2.671  17.608  0.00  0.00    +0.000 N 
ATOM      3  C   UNL     1       3.722   2.007  18.537  0.00  0.00    +0.000 A 
ATOM      4  C   UNL     1       2.976   2.934  19.246  0.00  0.00    +0.000 A 
ATOM      5  C   UNL     1       3.309   4.232  18.697  0.00  0.00    +0.000 A 
ATOM      6  H   UNL     1       5.115   2.224  16.978  0.00  0.00    +0.000 HD
ENDROOT
BRANCH   5   7
ATOM      7  C   UNL     1       2.802   5.556  19.089  0.00  0.00    +0.000 A 
ATOM      8  C   UNL     1       2.384   5.825  20.392  0.00  0.00    +0.000 A 
ATOM      9  C   UNL     1       1.858   7.078  20.722  0.00  0.00    +0.000 A 
ATOM     10  C   UNL     1       1.785   8.113  19.779  0.00  0.00    +0.000 A 
ATOM     11  C   UNL     1       2.241   7.874  18.474  0.00  0.00    +0.000 A 
ATOM     12  C   UNL     1       2.701   6.588  18.144  0.00  0.00    +0.000 A 
BRANCH  10  13
ATOM     13  O   UNL     1       1.252   9.262  20.305  0.00  0.00    +0.000 OA
ATOM     14  C   UNL     1       1.017   9.322  21.703  0.00  0.00    +0.000 C 
ENDBRANCH  10  13
BRANCH  11  15
ATOM     15  O   UNL     1       2.200   8.890  17.553  0.00  0.00    +0.000 OA
ATOM     16  C   UNL     1       1.119   9.813  17.638  0.00  0.00    +0.000 C 
ENDBRANCH  11  15
ENDBRANCH   5   7
BRANCH   4  17
ATOM     17  C   UNL     1       2.031   2.627  20.316  0.00  0.00    +0.000 C 
ATOM     18  N   UNL     1       0.710   2.669  19.960  0.00  0.00    +0.000 N 
ATOM     19  O   UNL     1       2.347   2.311  21.456  0.00  0.00    +0.000 OA
ATOM     20  H   UNL     1       0.467   2.678  18.979  0.00  0.00    +0.000 HD
ATOM     21  H   UNL     1       0.058   2.283  20.629  0.00  0.00    +0.000 HD
ENDBRANCH   4  17
BRANCH   3  22
ATOM     22  N   UNL     1       3.809   0.663  18.607  0.00  0.00    +0.000 N 
ATOM     23  H   UNL     1       4.155   0.101  17.831  0.00  0.00    +0.000 HD
ATOM     24  H   UNL     1       3.123   0.151  19.164  0.00  0.00    +0.000 HD
ENDBRANCH   3  22
BRANCH   1  25
ATOM     25  C   UNL     1       4.982   4.989  16.859  0.00  0.00    +0.000 C 
ATOM     26  O   UNL     1       4.737   5.168  15.667  0.00  0.00    +0.000 OA
BRANCH  25  30
ATOM     27  C   UNL     1       8.074   7.516  18.502  0.00  0.00    +0.000 A 
ATOM     28  C   UNL     1       7.260   7.952  17.457  0.00  0.00    +0.000 A 
ATOM     29  C   UNL     1       6.264   7.119  16.942  0.00  0.00    +0.000 A 
ATOM     30  C   UNL     1       6.072   5.828  17.458  0.00  0.00    +0.000 A 
ATOM     31  C   UNL     1       6.935   5.370  18.464  0.00  0.00    +0.000 A 
ATOM     32  C   UNL     1       7.924   6.215  18.990  0.00  0.00    +0.000 A 
BRANCH  27  34
ATOM     33  C   UNL     1       8.764   9.775  18.565  0.00  0.00    +0.000 C 
ATOM     34  O   UNL     1       9.007   8.419  18.924  0.00  0.00    +0.000 OA
ENDBRANCH  27  34
ENDBRANCH  25  30
ENDBRANCH   1  25
TORSDOF 8
ENDMDL
