MODEL 1
REMARK VINA RESULT:      -9.2      0.000      0.000
REMARK  Name = 
REMARK  4 active torsions:
REMARK  status: ('A' for Active; 'I' for Inactive)
REMARK    1  A    between atoms: C_1  and  N_2
REMARK    2  A    between atoms: N_7  and  C_8
REMARK    3  A    between atoms: C_11  and  C_12
REMARK    4  A    between atoms: C_15  and  N_16
REMARK                            x       y       z     vdW  Elec       q    Type
REMARK                         _______ _______ _______ _____ _____    ______ ____
ROOT
ATOM      1  C   UNL     1       2.896   6.636  18.942  0.00  0.00    +0.000 A 
ATOM      2  C   UNL     1       2.364   6.412  20.214  0.00  0.00    +0.000 A 
ATOM      3  C   UNL     1       1.527   7.337  20.836  0.00  0.00    +0.000 A 
ATOM      4  C   UNL     1       1.175   8.538  20.212  0.00  0.00    +0.000 A 
ATOM      5  C   UNL     1       1.668   8.753  18.918  0.00  0.00    +0.000 A 
ATOM      6  C   UNL     1       2.502   7.812  18.296  0.00  0.00    +0.000 A 
ENDROOT
BRANCH   1  13
ATOM      7  C   UNL     1       1.073   3.535  18.502  0.00  0.00    +0.000 C 
ATOM      8  N   UNL     1       2.387   2.922  18.701  0.00  0.00    +0.000 NA
ATOM      9  C   UNL     1       3.173   2.951  17.456  0.00  0.00    +0.000 C 
ATOM     10  C   UNL     1       4.512   3.632  17.764  0.00  0.00    +0.000 C 
ATOM     11  C   UNL     1       4.978   4.603  16.687  0.00  0.00    +0.000 C 
ATOM     12  C   UNL     1       4.367   5.951  17.059  0.00  0.00    +0.000 C 
ATOM     13  N   UNL     1       3.806   5.770  18.394  0.00  0.00    +0.000 N 
ATOM     14  C   UNL     1       4.228   4.495  18.988  0.00  0.00    +0.000 C 
ATOM     15  C   UNL     1       3.168   3.661  19.710  0.00  0.00    +0.000 C 
ENDBRANCH   1  13
BRANCH   4  16
ATOM     16  C   UNL     1       0.352   9.534  20.918  0.00  0.00    +0.000 A 
ATOM     17  C   UNL     1       0.169   9.442  22.304  0.00  0.00    +0.000 A 
ATOM     18  C   UNL     1      -0.597  10.371  23.001  0.00  0.00    +0.000 A 
ATOM     19  C   UNL     1      -1.191  11.454  22.346  0.00  0.00    +0.000 A 
ATOM     20  C   UNL     1      -1.047  11.539  20.955  0.00  0.00    +0.000 A 
ATOM     21  C   UNL     1      -0.280  10.597  20.254  0.00  0.00    +0.000 A 
BRANCH  19  22
ATOM     22  N   UNL     1      -1.938  12.428  23.084  0.00  0.00    +0.000 N 
ATOM     23  N   UNL     1      -3.225  12.034  23.411  0.00  0.00    +0.000 NA
ATOM     24  C   UNL     1      -3.900  12.818  24.180  0.00  0.00    +0.000 A 
ATOM     25  C   UNL     1      -3.432  14.087  24.748  0.00  0.00    +0.000 A 
ATOM     26  C   UNL     1      -2.220  14.489  24.358  0.00  0.00    +0.000 A 
ATOM     27  C   UNL     1      -1.403  13.673  23.435  0.00  0.00    +0.000 A 
ATOM     28  O   UNL     1      -0.341  14.170  23.067  0.00  0.00    +0.000 OA
ENDBRANCH  19  22
ENDBRANCH   4  16
TORSDOF 3
ENDMDL
MODEL 2
REMARK VINA RESULT:      -9.2      0.613      1.095
REMARK  Name = 
REMARK  4 active torsions:
REMARK  status: ('A' for Active; 'I' for Inactive)
REMARK    1  A    between atoms: C_1  and  N_2
REMARK    2  A    between atoms: N_7  and  C_8
REMARK    3  A    between atoms: C_11  and  C_12
REMARK    4  A    between atoms: C_15  and  N_16
REMARK                            x       y       z     vdW  Elec       q    Type
REMARK                         _______ _______ _______ _____ _____    ______ ____
ROOT
ATOM      1  C   UNL     1       2.804   5.984  19.152  0.00  0.00    +0.000 A 
ATOM      2  C   UNL     1       2.201   5.795  20.399  0.00  0.00    +0.000 A 
ATOM      3  C   UNL     1       1.450   6.797  21.013  0.00  0.00    +0.000 A 
ATOM      4  C   UNL     1       1.260   8.042  20.405  0.00  0.00    +0.000 A 
ATOM      5  C   UNL     1       1.823   8.226  19.136  0.00  0.00    +0.000 A 
ATOM      6  C   UNL     1       2.570   7.210  18.522  0.00  0.00    +0.000 A 
ENDROOT
BRANCH   1  13
ATOM      7  C   UNL     1       0.741   3.018  18.871  0.00  0.00    +0.000 C 
ATOM      8  N   UNL     1       2.010   2.313  19.062  0.00  0.00    +0.000 NA
ATOM      9  C   UNL     1       2.764   2.238  17.799  0.00  0.00    +0.000 C 
ATOM     10  C   UNL     1       4.158   2.825  18.051  0.00  0.00    +0.000 C 
ATOM     11  C   UNL     1       4.669   3.718  16.929  0.00  0.00    +0.000 C 
ATOM     12  C   UNL     1       4.170   5.122  17.264  0.00  0.00    +0.000 C 
ATOM     13  N   UNL     1       3.632   5.031  18.617  0.00  0.00    +0.000 N 
ATOM     14  C   UNL     1       3.971   3.751  19.249  0.00  0.00    +0.000 C 
ATOM     15  C   UNL     1       2.870   3.026  20.025  0.00  0.00    +0.000 C 
ENDBRANCH   1  13
BRANCH   4  16
ATOM     16  C   UNL     1       0.526   9.111  21.105  0.00  0.00    +0.000 A 
ATOM     17  C   UNL     1       0.022  10.205  20.389  0.00  0.00    +0.000 A 
ATOM     18  C   UNL     1      -0.680  11.226  21.020  0.00  0.00    +0.000 A 
ATOM     19  C   UNL     1      -0.938  11.185  22.393  0.00  0.00    +0.000 A 
ATOM     20  C   UNL     1      -0.409  10.115  23.128  0.00  0.00    +0.000 A 
ATOM     21  C   UNL     1       0.306   9.090  22.490  0.00  0.00    +0.000 A 
BRANCH  19  22
ATOM     22  N   UNL     1      -1.703  12.220  23.020  0.00  0.00    +0.000 N 
ATOM     23  N   UNL     1      -3.001  11.858  23.340  0.00  0.00    +0.000 NA
ATOM     24  C   UNL     1      -3.696  12.706  24.016  0.00  0.00    +0.000 A 
ATOM     25  C   UNL     1      -3.241  14.019  24.486  0.00  0.00    +0.000 A 
ATOM     26  C   UNL     1      -2.016  14.385  24.101  0.00  0.00    +0.000 A 
ATOM     27  C   UNL     1      -1.174  13.491  23.278  0.00  0.00    +0.000 A 
ATOM     28  O   UNL     1      -0.100  13.953  22.901  0.00  0.00    +0.000 OA
ENDBRANCH  19  22
ENDBRANCH   4  16
TORSDOF 3
ENDMDL
MODEL 3
REMARK VINA RESULT:      -8.9      0.693      1.149
REMARK  Name = 
REMARK  4 active torsions:
REMARK  status: ('A' for Active; 'I' for Inactive)
REMARK    1  A    between atoms: C_1  and  N_2
REMARK    2  A    between atoms: N_7  and  C_8
REMARK    3  A    between atoms: C_11  and  C_12
REMARK    4  A    between atoms: C_15  and  N_16
REMARK                            x       y       z     vdW  Elec       q    Type
REMARK                         _______ _______ _______ _____ _____    ______ ____
ROOT
ATOM      1  C   UNL     1       2.984   5.979  19.192  0.00  0.00    +0.000 A 
ATOM      2  C   UNL     1       2.773   7.218  18.580  0.00  0.00    +0.000 A 
ATOM      3  C   UNL     1       2.033   8.227  19.196  0.00  0.00    +0.000 A 
ATOM      4  C   UNL     1       1.468   8.048  20.463  0.00  0.00    +0.000 A 
ATOM      5  C   UNL     1       1.710   6.826  21.103  0.00  0.00    +0.000 A 
ATOM      6  C   UNL     1       2.463   5.820  20.480  0.00  0.00    +0.000 A 
ENDROOT
BRANCH   1  13
ATOM      7  C   UNL     1       0.633   3.223  19.270  0.00  0.00    +0.000 C 
ATOM      8  N   UNL     1       1.844   2.400  19.246  0.00  0.00    +0.000 NA
ATOM      9  C   UNL     1       2.364   2.272  17.874  0.00  0.00    +0.000 C 
ATOM     10  C   UNL     1       3.830   2.723  17.886  0.00  0.00    +0.000 C 
ATOM     11  C   UNL     1       4.226   3.580  16.691  0.00  0.00    +0.000 C 
ATOM     12  C   UNL     1       3.925   5.020  17.102  0.00  0.00    +0.000 C 
ATOM     13  N   UNL     1       3.616   4.961  18.526  0.00  0.00    +0.000 N 
ATOM     14  C   UNL     1       3.935   3.646  19.095  0.00  0.00    +0.000 C 
ATOM     15  C   UNL     1       2.916   3.017  20.048  0.00  0.00    +0.000 C 
ENDBRANCH   1  13
BRANCH   4  16
ATOM     16  C   UNL     1       0.627   9.099  21.060  0.00  0.00    +0.000 A 
ATOM     17  C   UNL     1       0.397   9.116  22.442  0.00  0.00    +0.000 A 
ATOM     18  C   UNL     1      -0.387  10.099  23.038  0.00  0.00    +0.000 A 
ATOM     19  C   UNL     1      -0.953  11.129  22.282  0.00  0.00    +0.000 A 
ATOM     20  C   UNL     1      -0.761  11.105  20.894  0.00  0.00    +0.000 A 
ATOM     21  C   UNL     1       0.024  10.108  20.294  0.00  0.00    +0.000 A 
BRANCH  19  22
ATOM     22  N   UNL     1      -1.718  12.160  22.916  0.00  0.00    +0.000 N 
ATOM     23  N   UNL     1      -3.025  11.805  23.208  0.00  0.00    +0.000 NA
ATOM     24  C   UNL     1      -3.722  12.647  23.888  0.00  0.00    +0.000 A 
ATOM     25  C   UNL     1      -3.262  13.947  24.390  0.00  0.00    +0.000 A 
ATOM     26  C   UNL     1      -2.028  14.307  24.031  0.00  0.00    +0.000 A 
ATOM     27  C   UNL     1      -1.181  13.420  23.206  0.00  0.00    +0.000 A 
ATOM     28  O   UNL     1      -0.096  13.878  22.855  0.00  0.00    +0.000 OA
ENDBRANCH  19  22
ENDBRANCH   4  16
TORSDOF 3
ENDMDL
MODEL 4
REMARK VINA RESULT:      -8.8      1.081      1.379
REMARK  Name = 
REMARK  4 active torsions:
REMARK  status: ('A' for Active; 'I' for Inactive)
REMARK    1  A    between atoms: C_1  and  N_2
REMARK    2  A    between atoms: N_7  and  C_8
REMARK    3  A    between atoms: C_11  and  C_12
REMARK    4  A    between atoms: C_15  and  N_16
REMARK                            x       y       z     vdW  Elec       q    Type
REMARK                         _______ _______ _______ _____ _____    ______ ____
ROOT
ATOM      1  C   UNL     1       2.796   6.159  19.093  0.00  0.00    +0.000 A 
ATOM      2  C   UNL     1       2.238   6.036  20.369  0.00  0.00    +0.000 A 
ATOM      3  C   UNL     1       1.524   7.076  20.963  0.00  0.00    +0.000 A 
ATOM      4  C   UNL     1       1.326   8.295  20.306  0.00  0.00    +0.000 A 
ATOM      5  C   UNL     1       1.843   8.412  19.010  0.00  0.00    +0.000 A 
ATOM      6  C   UNL     1       2.553   7.358  18.416  0.00  0.00    +0.000 A 
ENDROOT
BRANCH   1  13
ATOM      7  C   UNL     1       0.664   3.232  18.958  0.00  0.00    +0.000 C 
ATOM      8  N   UNL     1       1.922   2.505  19.145  0.00  0.00    +0.000 NA
ATOM      9  C   UNL     1       2.645   2.372  17.869  0.00  0.00    +0.000 C 
ATOM     10  C   UNL     1       4.056   2.936  18.069  0.00  0.00    +0.000 C 
ATOM     11  C   UNL     1       4.560   3.780  16.906  0.00  0.00    +0.000 C 
ATOM     12  C   UNL     1       4.099   5.205  17.205  0.00  0.00    +0.000 C 
ATOM     13  N   UNL     1       3.591   5.171  18.572  0.00  0.00    +0.000 N 
ATOM     14  C   UNL     1       3.917   3.905  19.239  0.00  0.00    +0.000 C 
ATOM     15  C   UNL     1       2.818   3.231  20.064  0.00  0.00    +0.000 C 
ENDBRANCH   1  13
BRANCH   4  16
ATOM     16  C   UNL     1       0.634   9.404  20.983  0.00  0.00    +0.000 A 
ATOM     17  C   UNL     1       0.207   9.264  22.310  0.00  0.00    +0.000 A 
ATOM     18  C   UNL     1      -0.443  10.296  22.979  0.00  0.00    +0.000 A 
ATOM     19  C   UNL     1      -0.671  11.528  22.360  0.00  0.00    +0.000 A 
ATOM     20  C   UNL     1      -0.282  11.671  21.021  0.00  0.00    +0.000 A 
ATOM     21  C   UNL     1       0.368  10.626  20.346  0.00  0.00    +0.000 A 
BRANCH  19  22
ATOM     22  N   UNL     1      -1.299  12.596  23.077  0.00  0.00    +0.000 N 
ATOM     23  N   UNL     1      -0.474  13.682  23.324  0.00  0.00    +0.000 NA
ATOM     24  C   UNL     1      -1.019  14.721  23.856  0.00  0.00    +0.000 A 
ATOM     25  C   UNL     1      -2.433  14.868  24.219  0.00  0.00    +0.000 A 
ATOM     26  C   UNL     1      -3.195  13.786  24.048  0.00  0.00    +0.000 A 
ATOM     27  C   UNL     1      -2.634  12.535  23.494  0.00  0.00    +0.000 A 
ATOM     28  O   UNL     1      -3.393  11.570  23.457  0.00  0.00    +0.000 OA
ENDBRANCH  19  22
ENDBRANCH   4  16
TORSDOF 3
ENDMDL
MODEL 5
REMARK VINA RESULT:      -8.7      7.163      9.174
REMARK  Name = 
REMARK  4 active torsions:
REMARK  status: ('A' for Active; 'I' for Inactive)
REMARK    1  A    between atoms: C_1  and  N_2
REMARK    2  A    between atoms: N_7  and  C_8
REMARK    3  A    between atoms: C_11  and  C_12
REMARK    4  A    between atoms: C_15  and  N_16
REMARK                            x       y       z     vdW  Elec       q    Type
REMARK                         _______ _______ _______ _____ _____    ______ ____
ROOT
ATOM      1  C   UNL     1       6.950   6.133  17.724  0.00  0.00    +0.000 A 
ATOM      2  C   UNL     1       6.651   7.279  16.981  0.00  0.00    +0.000 A 
ATOM      3  C   UNL     1       7.255   8.507  17.248  0.00  0.00    +0.000 A 
ATOM      4  C   UNL     1       8.196   8.651  18.273  0.00  0.00    +0.000 A 
ATOM      5  C   UNL     1       8.536   7.499  18.993  0.00  0.00    +0.000 A 
ATOM      6  C   UNL     1       7.930   6.265  18.713  0.00  0.00    +0.000 A 
ENDROOT
BRANCH   1  13
ATOM      7  C   UNL     1       3.461   7.018  18.143  0.00  0.00    +0.000 C 
ATOM      8  N   UNL     1       3.331   5.633  18.599  0.00  0.00    +0.000 NA
ATOM      9  C   UNL     1       3.240   4.711  17.455  0.00  0.00    +0.000 C 
ATOM     10  C   UNL     1       4.334   3.650  17.621  0.00  0.00    +0.000 C 
ATOM     11  C   UNL     1       5.060   3.298  16.329  0.00  0.00    +0.000 C 
ATOM     12  C   UNL     1       6.224   4.282  16.233  0.00  0.00    +0.000 C 
ATOM     13  N   UNL     1       6.265   4.963  17.523  0.00  0.00    +0.000 N 
ATOM     14  C   UNL     1       5.382   4.318  18.503  0.00  0.00    +0.000 C 
ATOM     15  C   UNL     1       4.513   5.222  19.379  0.00  0.00    +0.000 C 
ENDBRANCH   1  13
BRANCH   4  16
ATOM     16  C   UNL     1       8.764   9.973  18.585  0.00  0.00    +0.000 A 
ATOM     17  C   UNL     1       9.567  10.144  19.720  0.00  0.00    +0.000 A 
ATOM     18  C   UNL     1      10.124  11.379  20.039  0.00  0.00    +0.000 A 
ATOM     19  C   UNL     1       9.927  12.493  19.219  0.00  0.00    +0.000 A 
ATOM     20  C   UNL     1       9.097  12.346  18.100  0.00  0.00    +0.000 A 
ATOM     21  C   UNL     1       8.531  11.102  17.785  0.00  0.00    +0.000 A 
BRANCH  19  22
ATOM     22  N   UNL     1      10.546  13.746  19.535  0.00  0.00    +0.000 N 
ATOM     23  N   UNL     1       9.894  14.473  20.518  0.00  0.00    +0.000 NA
ATOM     24  C   UNL     1      10.472  15.549  20.930  0.00  0.00    +0.000 A 
ATOM     25  C   UNL     1      11.759  16.074  20.461  0.00  0.00    +0.000 A 
ATOM     26  C   UNL     1      12.333  15.404  19.460  0.00  0.00    +0.000 A 
ATOM     27  C   UNL     1      11.708  14.190  18.894  0.00  0.00    +0.000 A 
ATOM     28  O   UNL     1      12.268  13.696  17.918  0.00  0.00    +0.000 OA
ENDBRANCH  19  22
ENDBRANCH   4  16
TORSDOF 3
ENDMDL
MODEL 6
REMARK VINA RESULT:      -8.7      6.734      9.097
REMARK  Name = 
REMARK  4 active torsions:
REMARK  status: ('A' for Active; 'I' for Inactive)
REMARK    1  A    between atoms: C_1  and  N_2
REMARK    2  A    between atoms: N_7  and  C_8
REMARK    3  A    between atoms: C_11  and  C_12
REMARK    4  A    between atoms: C_15  and  N_16
REMARK                            x       y       z     vdW  Elec       q    Type
REMARK                         _______ _______ _______ _____ _____    ______ ____
ROOT
ATOM      1  C   UNL     1       6.519   5.950  17.719  0.00  0.00    +0.000 A 
ATOM      2  C   UNL     1       6.175   7.109  17.017  0.00  0.00    +0.000 A 
ATOM      3  C   UNL     1       6.857   8.311  17.203  0.00  0.00    +0.000 A 
ATOM      4  C   UNL     1       7.925   8.414  18.100  0.00  0.00    +0.000 A 
ATOM      5  C   UNL     1       8.306   7.248  18.776  0.00  0.00    +0.000 A 
ATOM      6  C   UNL     1       7.620   6.040  18.577  0.00  0.00    +0.000 A 
ENDROOT
BRANCH   1  13
ATOM      7  C   UNL     1       3.099   7.043  18.211  0.00  0.00    +0.000 C 
ATOM      8  N   UNL     1       2.915   5.694  18.749  0.00  0.00    +0.000 NA
ATOM      9  C   UNL     1       2.732   4.716  17.663  0.00  0.00    +0.000 C 
ATOM     10  C   UNL     1       3.776   3.608  17.850  0.00  0.00    +0.000 C 
ATOM     11  C   UNL     1       4.433   3.148  16.556  0.00  0.00    +0.000 C 
ATOM     12  C   UNL     1       5.642   4.061  16.363  0.00  0.00    +0.000 C 
ATOM     13  N   UNL     1       5.767   4.809  17.610  0.00  0.00    +0.000 N 
ATOM     14  C   UNL     1       4.891   4.267  18.655  0.00  0.00    +0.000 C 
ATOM     15  C   UNL     1       4.103   5.263  19.509  0.00  0.00    +0.000 C 
ENDBRANCH   1  13
BRANCH   4  16
ATOM     16  C   UNL     1       8.580   9.711  18.335  0.00  0.00    +0.000 A 
ATOM     17  C   UNL     1       9.472   9.867  19.404  0.00  0.00    +0.000 A 
ATOM     18  C   UNL     1      10.113  11.077  19.648  0.00  0.00    +0.000 A 
ATOM     19  C   UNL     1       9.914  12.181  18.815  0.00  0.00    +0.000 A 
ATOM     20  C   UNL     1       8.998  12.051  17.762  0.00  0.00    +0.000 A 
ATOM     21  C   UNL     1       8.347  10.832  17.523  0.00  0.00    +0.000 A 
BRANCH  19  22
ATOM     22  N   UNL     1      10.616  13.406  19.051  0.00  0.00    +0.000 N 
ATOM     23  N   UNL     1      11.732  13.589  18.250  0.00  0.00    +0.000 NA
ATOM     24  C   UNL     1      12.331  14.727  18.332  0.00  0.00    +0.000 A 
ATOM     25  C   UNL     1      11.940  15.852  19.189  0.00  0.00    +0.000 A 
ATOM     26  C   UNL     1      10.912  15.629  20.011  0.00  0.00    +0.000 A 
ATOM     27  C   UNL     1      10.204  14.331  20.018  0.00  0.00    +0.000 A 
ATOM     28  O   UNL     1       9.330  14.195  20.870  0.00  0.00    +0.000 OA
ENDBRANCH  19  22
ENDBRANCH   4  16
TORSDOF 3
ENDMDL
MODEL 7
REMARK VINA RESULT:      -8.6      2.485     10.221
REMARK  Name = 
REMARK  4 active torsions:
REMARK  status: ('A' for Active; 'I' for Inactive)
REMARK    1  A    between atoms: C_1  and  N_2
REMARK    2  A    between atoms: N_7  and  C_8
REMARK    3  A    between atoms: C_11  and  C_12
REMARK    4  A    between atoms: C_15  and  N_16
REMARK                            x       y       z     vdW  Elec       q    Type
REMARK                         _______ _______ _______ _____ _____    ______ ____
ROOT
ATOM      1  C   UNL     1      -1.782  11.960  22.021  0.00  0.00    +0.000 A 
ATOM      2  C   UNL     1      -0.953  11.047  22.677  0.00  0.00    +0.000 A 
ATOM      3  C   UNL     1      -0.083  10.210  21.979  0.00  0.00    +0.000 A 
ATOM      4  C   UNL     1       0.005  10.248  20.584  0.00  0.00    +0.000 A 
ATOM      5  C   UNL     1      -0.790  11.191  19.920  0.00  0.00    +0.000 A 
ATOM      6  C   UNL     1      -1.656  12.035  20.630  0.00  0.00    +0.000 A 
ENDROOT
BRANCH   1  13
ATOM      7  C   UNL     1      -0.857  15.415  21.435  0.00  0.00    +0.000 C 
ATOM      8  N   UNL     1      -1.445  15.629  22.759  0.00  0.00    +0.000 NA
ATOM      9  C   UNL     1      -2.912  15.724  22.671  0.00  0.00    +0.000 C 
ATOM     10  C   UNL     1      -3.507  14.690  23.634  0.00  0.00    +0.000 C 
ATOM     11  C   UNL     1      -4.705  13.935  23.075  0.00  0.00    +0.000 C 
ATOM     12  C   UNL     1      -4.125  12.722  22.352  0.00  0.00    +0.000 C 
ATOM     13  N   UNL     1      -2.711  12.694  22.713  0.00  0.00    +0.000 N 
ATOM     14  C   UNL     1      -2.410  13.642  23.792  0.00  0.00    +0.000 C 
ATOM     15  C   UNL     1      -1.149  14.497  23.657  0.00  0.00    +0.000 C 
ENDBRANCH   1  13
BRANCH   4  16
ATOM     16  C   UNL     1       0.874   9.302  19.864  0.00  0.00    +0.000 A 
ATOM     17  C   UNL     1       1.418   8.197  20.531  0.00  0.00    +0.000 A 
ATOM     18  C   UNL     1       2.238   7.282  19.878  0.00  0.00    +0.000 A 
ATOM     19  C   UNL     1       2.527   7.415  18.517  0.00  0.00    +0.000 A 
ATOM     20  C   UNL     1       2.019   8.535  17.844  0.00  0.00    +0.000 A 
ATOM     21  C   UNL     1       1.199   9.460  18.508  0.00  0.00    +0.000 A 
BRANCH  19  22
ATOM     22  N   UNL     1       3.333   6.440  17.847  0.00  0.00    +0.000 N 
ATOM     23  N   UNL     1       4.507   6.941  17.308  0.00  0.00    +0.000 NA
ATOM     24  C   UNL     1       5.330   6.088  16.802  0.00  0.00    +0.000 A 
ATOM     25  C   UNL     1       5.145   4.634  16.748  0.00  0.00    +0.000 A 
ATOM     26  C   UNL     1       3.975   4.177  17.198  0.00  0.00    +0.000 A 
ATOM     27  C   UNL     1       2.953   5.096  17.745  0.00  0.00    +0.000 A 
ATOM     28  O   UNL     1       1.877   4.590  18.052  0.00  0.00    +0.000 OA
ENDBRANCH  19  22
ENDBRANCH   4  16
TORSDOF 3
ENDMDL
MODEL 8
REMARK VINA RESULT:      -8.5      1.064      2.405
REMARK  Name = 
REMARK  4 active torsions:
REMARK  status: ('A' for Active; 'I' for Inactive)
REMARK    1  A    between atoms: C_1  and  N_2
REMARK    2  A    between atoms: N_7  and  C_8
REMARK    3  A    between atoms: C_11  and  C_12
REMARK    4  A    between atoms: C_15  and  N_16
REMARK                            x       y       z     vdW  Elec       q    Type
REMARK                         _______ _______ _______ _____ _____    ______ ____
ROOT
ATOM      1  C   UNL     1       2.858   6.180  18.391  0.00  0.00    +0.000 A 
ATOM      2  C   UNL     1       2.616   7.460  17.887  0.00  0.00    +0.000 A 
ATOM      3  C   UNL     1       1.984   8.443  18.647  0.00  0.00    +0.000 A 
ATOM      4  C   UNL     1       1.566   8.196  19.959  0.00  0.00    +0.000 A 
ATOM      5  C   UNL     1       1.844   6.929  20.489  0.00  0.00    +0.000 A 
ATOM      6  C   UNL     1       2.488   5.949  19.719  0.00  0.00    +0.000 A 
ENDROOT
BRANCH   1  13
ATOM      7  C   UNL     1       6.334   5.918  19.381  0.00  0.00    +0.000 C 
ATOM      8  N   UNL     1       6.533   5.506  17.991  0.00  0.00    +0.000 NA
ATOM      9  C   UNL     1       6.195   4.084  17.812  0.00  0.00    +0.000 C 
ATOM     10  C   UNL     1       5.161   3.986  16.684  0.00  0.00    +0.000 C 
ATOM     11  C   UNL     1       4.034   2.999  16.957  0.00  0.00    +0.000 C 
ATOM     12  C   UNL     1       2.957   3.798  17.687  0.00  0.00    +0.000 C 
ATOM     13  N   UNL     1       3.376   5.192  17.593  0.00  0.00    +0.000 N 
ATOM     14  C   UNL     1       4.496   5.358  16.658  0.00  0.00    +0.000 C 
ATOM     15  C   UNL     1       5.651   6.266  17.085  0.00  0.00    +0.000 C 
ENDBRANCH   1  13
BRANCH   4  16
ATOM     16  C   UNL     1       0.833   9.224  20.716  0.00  0.00    +0.000 A 
ATOM     17  C   UNL     1       0.386  10.387  20.075  0.00  0.00    +0.000 A 
ATOM     18  C   UNL     1      -0.314  11.374  20.761  0.00  0.00    +0.000 A 
ATOM     19  C   UNL     1      -0.626  11.229  22.115  0.00  0.00    +0.000 A 
ATOM     20  C   UNL     1      -0.154  10.089  22.779  0.00  0.00    +0.000 A 
ATOM     21  C   UNL     1       0.558   9.098  22.086  0.00  0.00    +0.000 A 
BRANCH  19  22
ATOM     22  N   UNL     1      -1.388  12.232  22.797  0.00  0.00    +0.000 N 
ATOM     23  N   UNL     1      -2.666  11.834  23.155  0.00  0.00    +0.000 NA
ATOM     24  C   UNL     1      -3.352  12.650  23.878  0.00  0.00    +0.000 A 
ATOM     25  C   UNL     1      -2.907  13.961  24.364  0.00  0.00    +0.000 A 
ATOM     26  C   UNL     1      -1.705  14.361  23.944  0.00  0.00    +0.000 A 
ATOM     27  C   UNL     1      -0.876  13.506  23.067  0.00  0.00    +0.000 A 
ATOM     28  O   UNL     1       0.174  14.000  22.664  0.00  0.00    +0.000 OA
ENDBRANCH  19  22
ENDBRANCH   4  16
TORSDOF 3
ENDMDL
MODEL 9
REMARK VINA RESULT:      -8.4      2.512     10.173
REMARK  Name = 
REMARK  4 active torsions:
REMARK  status: ('A' for Active; 'I' for Inactive)
REMARK    1  A    between atoms: C_1  and  N_2
REMARK    2  A    between atoms: N_7  and  C_8
REMARK    3  A    between atoms: C_11  and  C_12
REMARK    4  A    between atoms: C_15  and  N_16
REMARK                            x       y       z     vdW  Elec       q    Type
REMARK                         _______ _______ _______ _____ _____    ______ ____
ROOT
ATOM      1  C   UNL     1      -1.514  11.813  22.236  0.00  0.00    +0.000 A 
ATOM      2  C   UNL     1      -1.508  11.796  20.838  0.00  0.00    +0.000 A 
ATOM      3  C   UNL     1      -0.729  10.893  20.116  0.00  0.00    +0.000 A 
ATOM      4  C   UNL     1       0.084   9.953  20.759  0.00  0.00    +0.000 A 
ATOM      5  C   UNL     1       0.051   9.933  22.159  0.00  0.00    +0.000 A 
ATOM      6  C   UNL     1      -0.742  10.839  22.878  0.00  0.00    +0.000 A 
ENDROOT
BRANCH   1  13
ATOM      7  C   UNL     1      -0.787  14.897  20.477  0.00  0.00    +0.000 C 
ATOM      8  N   UNL     1      -0.961  15.503  21.798  0.00  0.00    +0.000 NA
ATOM      9  C   UNL     1      -2.388  15.696  22.103  0.00  0.00    +0.000 C 
ATOM     10  C   UNL     1      -2.678  15.009  23.443  0.00  0.00    +0.000 C 
ATOM     11  C   UNL     1      -3.991  14.238  23.475  0.00  0.00    +0.000 C 
ATOM     12  C   UNL     1      -3.653  12.832  22.985  0.00  0.00    +0.000 C 
ATOM     13  N   UNL     1      -2.196  12.780  22.928  0.00  0.00    +0.000 N 
ATOM     14  C   UNL     1      -1.588  13.951  23.571  0.00  0.00    +0.000 C 
ATOM     15  C   UNL     1      -0.418  14.629  22.855  0.00  0.00    +0.000 C 
ENDBRANCH   1  13
BRANCH   4  16
ATOM     16  C   UNL     1       0.955   9.060  19.977  0.00  0.00    +0.000 A 
ATOM     17  C   UNL     1       1.529   7.932  20.578  0.00  0.00    +0.000 A 
ATOM     18  C   UNL     1       2.351   7.065  19.865  0.00  0.00    +0.000 A 
ATOM     19  C   UNL     1       2.612   7.270  18.507  0.00  0.00    +0.000 A 
ATOM     20  C   UNL     1       2.073   8.413  17.901  0.00  0.00    +0.000 A 
ATOM     21  C   UNL     1       1.251   9.290  18.625  0.00  0.00    +0.000 A 
BRANCH  19  22
ATOM     22  N   UNL     1       3.421   6.343  17.775  0.00  0.00    +0.000 N 
ATOM     23  N   UNL     1       4.563   6.897  17.219  0.00  0.00    +0.000 NA
ATOM     24  C   UNL     1       5.391   6.087  16.655  0.00  0.00    +0.000 A 
ATOM     25  C   UNL     1       5.242   4.631  16.550  0.00  0.00    +0.000 A 
ATOM     26  C   UNL     1       4.100   4.126  17.019  0.00  0.00    +0.000 A 
ATOM     27  C   UNL     1       3.073   4.995  17.633  0.00  0.00    +0.000 A 
ATOM     28  O   UNL     1       2.021   4.448  17.954  0.00  0.00    +0.000 OA
ENDBRANCH  19  22
ENDBRANCH   4  16
TORSDOF 3
ENDMDL
