MODEL 1
REMARK VINA RESULT:      -7.0      0.000      0.000
REMARK  Name = 
REMARK  5 active torsions:
REMARK  status: ('A' for Active; 'I' for Inactive)
REMARK    1  A    between atoms: C_1  and  C_2
REMARK    2  A    between atoms: C_2  and  C_3
REMARK    3  A    between atoms: N_12  and  C_13
REMARK    4  A    between atoms: C_13  and  C_14
REMARK    5  A    between atoms: C_14  and  O_15
REMARK                            x       y       z     vdW  Elec       q    Type
REMARK                         _______ _______ _______ _____ _____    ______ ____
ROOT
ATOM      1  C   UNL     1       5.822   4.378  16.514  0.00  0.00    +0.000 A 
ATOM      2  N   UNL     1       4.625   3.916  16.297  0.00  0.00    +0.000 NA
ATOM      3  C   UNL     1       3.829   3.812  17.382  0.00  0.00    +0.000 A 
ATOM      4  S   UNL     1       2.197   3.265  17.256  0.00  0.00    +0.000 S 
ATOM      5  C   UNL     1       1.995   3.424  18.907  0.00  0.00    +0.000 A 
ATOM      6  C   UNL     1       3.104   3.881  19.566  0.00  0.00    +0.000 A 
ATOM      7  C   UNL     1       4.180   4.114  18.682  0.00  0.00    +0.000 A 
ATOM      8  C   UNL     1       5.519   4.598  18.925  0.00  0.00    +0.000 A 
ATOM      9  O   UNL     1       5.926   4.843  20.059  0.00  0.00    +0.000 OA
ATOM     10  N   UNL     1       6.303   4.755  17.766  0.00  0.00    +0.000 N 
ATOM     11  C   UNL     1       2.849   4.000  21.022  0.00  0.00    +0.000 C 
ATOM     12  C   UNL     1       1.531   3.178  21.188  0.00  0.00    +0.000 C 
ATOM     13  C   UNL     1       0.838   3.153  19.791  0.00  0.00    +0.000 C 
ENDROOT
BRANCH   1  15
ATOM     14  C   UNL     1       6.058   3.869  14.065  0.00  0.00    +0.000 C 
ATOM     15  C   UNL     1       6.703   4.514  15.279  0.00  0.00    +0.000 C 
ENDBRANCH   1  15
BRANCH  10  16
ATOM     16  C   UNL     1       7.633   5.336  17.988  0.00  0.00    +0.000 C 
BRANCH  16  17
ATOM     17  C   UNL     1       7.631   6.868  18.036  0.00  0.00    +0.000 C 
BRANCH  17  18
ATOM     18  O   UNL     1       7.872   7.427  16.750  0.00  0.00    +0.000 OA
ATOM     19  H   UNL     1       7.402   8.279  16.707  0.00  0.00    +0.000 HD
ENDBRANCH  17  18
ENDBRANCH  16  17
ENDBRANCH  10  16
TORSDOF 4
ENDMDL
MODEL 2
REMARK VINA RESULT:      -6.8      1.119      1.119
REMARK  Name = 
REMARK  5 active torsions:
REMARK  status: ('A' for Active; 'I' for Inactive)
REMARK    1  A    between atoms: C_1  and  C_2
REMARK    2  A    between atoms: C_2  and  C_3
REMARK    3  A    between atoms: N_12  and  C_13
REMARK    4  A    between atoms: C_13  and  C_14
REMARK    5  A    between atoms: C_14  and  O_15
REMARK                            x       y       z     vdW  Elec       q    Type
REMARK                         _______ _______ _______ _____ _____    ______ ____
ROOT
ATOM      1  C   UNL     1       5.448   4.647  16.643  0.00  0.00    +0.000 A 
ATOM      2  N   UNL     1       4.171   4.485  16.449  0.00  0.00    +0.000 NA
ATOM      3  C   UNL     1       3.441   4.194  17.547  0.00  0.00    +0.000 A 
ATOM      4  S   UNL     1       1.729   3.999  17.468  0.00  0.00    +0.000 S 
ATOM      5  C   UNL     1       1.669   3.681  19.108  0.00  0.00    +0.000 A 
ATOM      6  C   UNL     1       2.887   3.721  19.730  0.00  0.00    +0.000 A 
ATOM      7  C   UNL     1       3.929   4.023  18.827  0.00  0.00    +0.000 A 
ATOM      8  C   UNL     1       5.350   4.175  19.035  0.00  0.00    +0.000 A 
ATOM      9  O   UNL     1       5.869   3.991  20.134  0.00  0.00    +0.000 OA
ATOM     10  N   UNL     1       6.073   4.539  17.884  0.00  0.00    +0.000 N 
ATOM     11  C   UNL     1       2.755   3.434  21.180  0.00  0.00    +0.000 C 
ATOM     12  C   UNL     1       1.313   2.838  21.262  0.00  0.00    +0.000 C 
ATOM     13  C   UNL     1       0.540   3.357  20.009  0.00  0.00    +0.000 C 
ENDROOT
BRANCH   1  15
ATOM     14  C   UNL     1       5.847   4.148  14.213  0.00  0.00    +0.000 C 
ATOM     15  C   UNL     1       6.256   4.999  15.402  0.00  0.00    +0.000 C 
ENDBRANCH   1  15
BRANCH  10  16
ATOM     16  C   UNL     1       7.504   4.789  18.100  0.00  0.00    +0.000 C 
BRANCH  16  17
ATOM     17  C   UNL     1       7.785   6.013  18.978  0.00  0.00    +0.000 C 
BRANCH  17  18
ATOM     18  O   UNL     1       8.149   5.630  20.299  0.00  0.00    +0.000 OA
ATOM     19  H   UNL     1       8.825   6.258  20.611  0.00  0.00    +0.000 HD
ENDBRANCH  17  18
ENDBRANCH  16  17
ENDBRANCH  10  16
TORSDOF 4
ENDMDL
MODEL 3
REMARK VINA RESULT:      -6.8      2.139      3.081
REMARK  Name = 
REMARK  5 active torsions:
REMARK  status: ('A' for Active; 'I' for Inactive)
REMARK    1  A    between atoms: C_1  and  C_2
REMARK    2  A    between atoms: C_2  and  C_3
REMARK    3  A    between atoms: N_12  and  C_13
REMARK    4  A    between atoms: C_13  and  C_14
REMARK    5  A    between atoms: C_14  and  O_15
REMARK                            x       y       z     vdW  Elec       q    Type
REMARK                         _______ _______ _______ _____ _____    ______ ____
ROOT
ATOM      1  C   UNL     1       5.827   6.198  17.393  0.00  0.00    +0.000 A 
ATOM      2  N   UNL     1       4.889   6.551  18.223  0.00  0.00    +0.000 NA
ATOM      3  C   UNL     1       3.953   5.615  18.486  0.00  0.00    +0.000 A 
ATOM      4  S   UNL     1       2.670   5.909  19.602  0.00  0.00    +0.000 S 
ATOM      5  C   UNL     1       2.053   4.380  19.325  0.00  0.00    +0.000 A 
ATOM      6  C   UNL     1       2.773   3.639  18.429  0.00  0.00    +0.000 A 
ATOM      7  C   UNL     1       3.887   4.351  17.934  0.00  0.00    +0.000 A 
ATOM      8  C   UNL     1       4.914   3.971  16.992  0.00  0.00    +0.000 A 
ATOM      9  O   UNL     1       4.900   2.883  16.420  0.00  0.00    +0.000 OA
ATOM     10  N   UNL     1       5.909   4.946  16.787  0.00  0.00    +0.000 N 
ATOM     11  C   UNL     1       2.170   2.297  18.238  0.00  0.00    +0.000 C 
ATOM     12  C   UNL     1       0.756   2.485  18.874  0.00  0.00    +0.000 C 
ATOM     13  C   UNL     1       0.865   3.682  19.868  0.00  0.00    +0.000 C 
ENDROOT
BRANCH   1  15
ATOM     14  C   UNL     1       7.944   7.271  18.217  0.00  0.00    +0.000 C 
ATOM     15  C   UNL     1       6.891   7.254  17.124  0.00  0.00    +0.000 C 
ENDBRANCH   1  15
BRANCH  10  16
ATOM     16  C   UNL     1       7.009   4.538  15.905  0.00  0.00    +0.000 C 
BRANCH  16  17
ATOM     17  C   UNL     1       6.692   4.706  14.415  0.00  0.00    +0.000 C 
BRANCH  17  18
ATOM     18  O   UNL     1       6.357   3.461  13.812  0.00  0.00    +0.000 OA
ATOM     19  H   UNL     1       6.985   3.310  13.084  0.00  0.00    +0.000 HD
ENDBRANCH  17  18
ENDBRANCH  16  17
ENDBRANCH  10  16
TORSDOF 4
ENDMDL
MODEL 4
REMARK VINA RESULT:      -6.7      1.214      1.253
REMARK  Name = 
REMARK  5 active torsions:
REMARK  status: ('A' for Active; 'I' for Inactive)
REMARK    1  A    between atoms: C_1  and  C_2
REMARK    2  A    between atoms: C_2  and  C_3
REMARK    3  A    between atoms: N_12  and  C_13
REMARK    4  A    between atoms: C_13  and  C_14
REMARK    5  A    between atoms: C_14  and  O_15
REMARK                            x       y       z     vdW  Elec       q    Type
REMARK                         _______ _______ _______ _____ _____    ______ ____
ROOT
ATOM      1  C   UNL     1       5.924   4.369  16.786  0.00  0.00    +0.000 A 
ATOM      2  N   UNL     1       4.975   3.514  16.535  0.00  0.00    +0.000 NA
ATOM      3  C   UNL     1       3.973   3.466  17.437  0.00  0.00    +0.000 A 
ATOM      4  S   UNL     1       2.615   2.422  17.224  0.00  0.00    +0.000 S 
ATOM      5  C   UNL     1       1.955   2.953  18.665  0.00  0.00    +0.000 A 
ATOM      6  C   UNL     1       2.707   3.896  19.311  0.00  0.00    +0.000 A 
ATOM      7  C   UNL     1       3.887   4.204  18.600  0.00  0.00    +0.000 A 
ATOM      8  C   UNL     1       4.956   5.131  18.892  0.00  0.00    +0.000 A 
ATOM      9  O   UNL     1       4.979   5.790  19.930  0.00  0.00    +0.000 OA
ATOM     10  N   UNL     1       5.953   5.204  17.902  0.00  0.00    +0.000 N 
ATOM     11  C   UNL     1       2.059   4.321  20.576  0.00  0.00    +0.000 C 
ATOM     12  C   UNL     1       0.984   3.206  20.780  0.00  0.00    +0.000 C 
ATOM     13  C   UNL     1       0.709   2.585  19.375  0.00  0.00    +0.000 C 
ENDROOT
BRANCH   1  15
ATOM     14  C   UNL     1       6.490   4.752  14.369  0.00  0.00    +0.000 C 
ATOM     15  C   UNL     1       7.037   4.433  15.749  0.00  0.00    +0.000 C 
ENDBRANCH   1  15
BRANCH  10  16
ATOM     16  C   UNL     1       6.996   6.209  18.140  0.00  0.00    +0.000 C 
BRANCH  16  17
ATOM     17  C   UNL     1       8.173   5.684  18.969  0.00  0.00    +0.000 C 
BRANCH  17  18
ATOM     18  O   UNL     1       7.829   5.575  20.346  0.00  0.00    +0.000 OA
ATOM     19  H   UNL     1       7.472   6.435  20.628  0.00  0.00    +0.000 HD
ENDBRANCH  17  18
ENDBRANCH  16  17
ENDBRANCH  10  16
TORSDOF 4
ENDMDL
MODEL 5
REMARK VINA RESULT:      -6.5      1.283      1.341
REMARK  Name = 
REMARK  5 active torsions:
REMARK  status: ('A' for Active; 'I' for Inactive)
REMARK    1  A    between atoms: C_1  and  C_2
REMARK    2  A    between atoms: C_2  and  C_3
REMARK    3  A    between atoms: N_12  and  C_13
REMARK    4  A    between atoms: C_13  and  C_14
REMARK    5  A    between atoms: C_14  and  O_15
REMARK                            x       y       z     vdW  Elec       q    Type
REMARK                         _______ _______ _______ _____ _____    ______ ____
ROOT
ATOM      1  C   UNL     1       5.626   4.514  16.297  0.00  0.00    +0.000 A 
ATOM      2  N   UNL     1       4.953   3.415  16.482  0.00  0.00    +0.000 NA
ATOM      3  C   UNL     1       3.962   3.479  17.396  0.00  0.00    +0.000 A 
ATOM      4  S   UNL     1       2.945   2.124  17.722  0.00  0.00    +0.000 S 
ATOM      5  C   UNL     1       2.105   3.005  18.868  0.00  0.00    +0.000 A 
ATOM      6  C   UNL     1       2.547   4.291  19.020  0.00  0.00    +0.000 A 
ATOM      7  C   UNL     1       3.631   4.579  18.163  0.00  0.00    +0.000 A 
ATOM      8  C   UNL     1       4.398   5.788  17.977  0.00  0.00    +0.000 A 
ATOM      9  O   UNL     1       4.198   6.795  18.654  0.00  0.00    +0.000 OA
ATOM     10  N   UNL     1       5.381   5.708  16.973  0.00  0.00    +0.000 N 
ATOM     11  C   UNL     1       1.754   5.010  20.047  0.00  0.00    +0.000 C 
ATOM     12  C   UNL     1       1.011   3.837  20.762  0.00  0.00    +0.000 C 
ATOM     13  C   UNL     1       0.974   2.647  19.754  0.00  0.00    +0.000 C 
ENDROOT
BRANCH   1  15
ATOM     14  C   UNL     1       6.173   4.005  13.898  0.00  0.00    +0.000 C 
ATOM     15  C   UNL     1       6.725   4.437  15.245  0.00  0.00    +0.000 C 
ENDBRANCH   1  15
BRANCH  10  16
ATOM     16  C   UNL     1       6.105   6.958  16.708  0.00  0.00    +0.000 C 
BRANCH  16  17
ATOM     17  C   UNL     1       7.392   7.104  17.526  0.00  0.00    +0.000 C 
BRANCH  17  18
ATOM     18  O   UNL     1       7.802   8.464  17.608  0.00  0.00    +0.000 OA
ATOM     19  H   UNL     1       8.072   8.635  18.528  0.00  0.00    +0.000 HD
ENDBRANCH  17  18
ENDBRANCH  16  17
ENDBRANCH  10  16
TORSDOF 4
ENDMDL
MODEL 6
REMARK VINA RESULT:      -6.4      1.842      2.908
REMARK  Name = 
REMARK  5 active torsions:
REMARK  status: ('A' for Active; 'I' for Inactive)
REMARK    1  A    between atoms: C_1  and  C_2
REMARK    2  A    between atoms: C_2  and  C_3
REMARK    3  A    between atoms: N_12  and  C_13
REMARK    4  A    between atoms: C_13  and  C_14
REMARK    5  A    between atoms: C_14  and  O_15
REMARK                            x       y       z     vdW  Elec       q    Type
REMARK                         _______ _______ _______ _____ _____    ______ ____
ROOT
ATOM      1  C   UNL     1       6.301   5.617  18.249  0.00  0.00    +0.000 A 
ATOM      2  N   UNL     1       5.435   5.833  19.196  0.00  0.00    +0.000 NA
ATOM      3  C   UNL     1       4.343   5.040  19.187  0.00  0.00    +0.000 A 
ATOM      4  S   UNL     1       3.125   5.166  20.403  0.00  0.00    +0.000 S 
ATOM      5  C   UNL     1       2.243   3.947  19.674  0.00  0.00    +0.000 A 
ATOM      6  C   UNL     1       2.825   3.432  18.548  0.00  0.00    +0.000 A 
ATOM      7  C   UNL     1       4.054   4.062  18.256  0.00  0.00    +0.000 A 
ATOM      8  C   UNL     1       5.003   3.844  17.189  0.00  0.00    +0.000 A 
ATOM      9  O   UNL     1       4.797   3.026  16.294  0.00  0.00    +0.000 OA
ATOM     10  N   UNL     1       6.159   4.642  17.264  0.00  0.00    +0.000 N 
ATOM     11  C   UNL     1       1.990   2.355  17.960  0.00  0.00    +0.000 C 
ATOM     12  C   UNL     1       0.628   2.565  18.695  0.00  0.00    +0.000 C 
ATOM     13  C   UNL     1       0.944   3.327  20.020  0.00  0.00    +0.000 C 
ENDROOT
BRANCH   1  15
ATOM     14  C   UNL     1       7.348   7.759  17.458  0.00  0.00    +0.000 C 
ATOM     15  C   UNL     1       7.541   6.500  18.285  0.00  0.00    +0.000 C 
ENDBRANCH   1  15
BRANCH  10  16
ATOM     16  C   UNL     1       7.175   4.365  16.240  0.00  0.00    +0.000 C 
BRANCH  16  17
ATOM     17  C   UNL     1       6.864   5.004  14.882  0.00  0.00    +0.000 C 
BRANCH  17  18
ATOM     18  O   UNL     1       8.030   5.576  14.300  0.00  0.00    +0.000 OA
ATOM     19  H   UNL     1       7.837   6.513  14.116  0.00  0.00    +0.000 HD
ENDBRANCH  17  18
ENDBRANCH  16  17
ENDBRANCH  10  16
TORSDOF 4
ENDMDL
MODEL 7
REMARK VINA RESULT:      -6.4      2.761      6.084
REMARK  Name = 
REMARK  5 active torsions:
REMARK  status: ('A' for Active; 'I' for Inactive)
REMARK    1  A    between atoms: C_1  and  C_2
REMARK    2  A    between atoms: C_2  and  C_3
REMARK    3  A    between atoms: N_12  and  C_13
REMARK    4  A    between atoms: C_13  and  C_14
REMARK    5  A    between atoms: C_14  and  O_15
REMARK                            x       y       z     vdW  Elec       q    Type
REMARK                         _______ _______ _______ _____ _____    ______ ____
ROOT
ATOM      1  C   UNL     1       2.859   4.516  19.784  0.00  0.00    +0.000 A 
ATOM      2  N   UNL     1       4.074   4.982  19.792  0.00  0.00    +0.000 NA
ATOM      3  C   UNL     1       4.723   4.955  18.609  0.00  0.00    +0.000 A 
ATOM      4  S   UNL     1       6.322   5.582  18.441  0.00  0.00    +0.000 S 
ATOM      5  C   UNL     1       6.335   5.168  16.821  0.00  0.00    +0.000 A 
ATOM      6  C   UNL     1       5.180   4.579  16.384  0.00  0.00    +0.000 A 
ATOM      7  C   UNL     1       4.230   4.453  17.421  0.00  0.00    +0.000 A 
ATOM      8  C   UNL     1       2.892   3.910  17.421  0.00  0.00    +0.000 A 
ATOM      9  O   UNL     1       2.398   3.399  16.417  0.00  0.00    +0.000 OA
ATOM     10  N   UNL     1       2.220   4.010  18.653  0.00  0.00    +0.000 N 
ATOM     11  C   UNL     1       5.263   4.245  14.941  0.00  0.00    +0.000 C 
ATOM     12  C   UNL     1       6.796   4.378  14.667  0.00  0.00    +0.000 C 
ATOM     13  C   UNL     1       7.371   5.315  15.774  0.00  0.00    +0.000 C 
ENDROOT
BRANCH   1  15
ATOM     14  C   UNL     1       2.254   3.266  21.877  0.00  0.00    +0.000 C 
ATOM     15  C   UNL     1       2.128   4.575  21.119  0.00  0.00    +0.000 C 
ENDBRANCH   1  15
BRANCH  10  16
ATOM     16  C   UNL     1       0.826   3.548  18.643  0.00  0.00    +0.000 C 
BRANCH  16  17
ATOM     17  C   UNL     1       0.679   2.045  18.905  0.00  0.00    +0.000 C 
BRANCH  17  18
ATOM     18  O   UNL     1       1.917   1.365  18.730  0.00  0.00    +0.000 OA
ATOM     19  H   UNL     1       2.431   1.858  18.066  0.00  0.00    +0.000 HD
ENDBRANCH  17  18
ENDBRANCH  16  17
ENDBRANCH  10  16
TORSDOF 4
ENDMDL
MODEL 8
REMARK VINA RESULT:      -6.3      3.557      4.428
REMARK  Name = 
REMARK  5 active torsions:
REMARK  status: ('A' for Active; 'I' for Inactive)
REMARK    1  A    between atoms: C_1  and  C_2
REMARK    2  A    between atoms: C_2  and  C_3
REMARK    3  A    between atoms: N_12  and  C_13
REMARK    4  A    between atoms: C_13  and  C_14
REMARK    5  A    between atoms: C_14  and  O_15
REMARK                            x       y       z     vdW  Elec       q    Type
REMARK                         _______ _______ _______ _____ _____    ______ ____
ROOT
ATOM      1  C   UNL     1       4.101   5.033  17.686  0.00  0.00    +0.000 A 
ATOM      2  N   UNL     1       3.738   6.219  17.294  0.00  0.00    +0.000 NA
ATOM      3  C   UNL     1       3.004   6.931  18.175  0.00  0.00    +0.000 A 
ATOM      4  S   UNL     1       2.486   8.540  17.827  0.00  0.00    +0.000 S 
ATOM      5  C   UNL     1       1.713   8.632  19.307  0.00  0.00    +0.000 A 
ATOM      6  C   UNL     1       1.829   7.502  20.070  0.00  0.00    +0.000 A 
ATOM      7  C   UNL     1       2.583   6.503  19.418  0.00  0.00    +0.000 A 
ATOM      8  C   UNL     1       2.963   5.175  19.840  0.00  0.00    +0.000 A 
ATOM      9  O   UNL     1       2.589   4.702  20.911  0.00  0.00    +0.000 OA
ATOM     10  N   UNL     1       3.780   4.484  18.926  0.00  0.00    +0.000 N 
ATOM     11  C   UNL     1       1.124   7.659  21.366  0.00  0.00    +0.000 C 
ATOM     12  C   UNL     1       0.242   8.922  21.104  0.00  0.00    +0.000 C 
ATOM     13  C   UNL     1       0.920   9.710  19.940  0.00  0.00    +0.000 C 
ENDROOT
BRANCH   1  15
ATOM     14  C   UNL     1       5.472   5.143  15.584  0.00  0.00    +0.000 C 
ATOM     15  C   UNL     1       4.950   4.249  16.694  0.00  0.00    +0.000 C 
ENDBRANCH   1  15
BRANCH  10  16
ATOM     16  C   UNL     1       4.252   3.170  19.382  0.00  0.00    +0.000 C 
BRANCH  16  17
ATOM     17  C   UNL     1       3.387   2.005  18.888  0.00  0.00    +0.000 C 
BRANCH  17  18
ATOM     18  O   UNL     1       4.188   0.894  18.501  0.00  0.00    +0.000 OA
ATOM     19  H   UNL     1       3.701   0.084  18.738  0.00  0.00    +0.000 HD
ENDBRANCH  17  18
ENDBRANCH  16  17
ENDBRANCH  10  16
TORSDOF 4
ENDMDL
MODEL 9
REMARK VINA RESULT:      -6.1      2.953      5.944
REMARK  Name = 
REMARK  5 active torsions:
REMARK  status: ('A' for Active; 'I' for Inactive)
REMARK    1  A    between atoms: C_1  and  C_2
REMARK    2  A    between atoms: C_2  and  C_3
REMARK    3  A    between atoms: N_12  and  C_13
REMARK    4  A    between atoms: C_13  and  C_14
REMARK    5  A    between atoms: C_14  and  O_15
REMARK                            x       y       z     vdW  Elec       q    Type
REMARK                         _______ _______ _______ _____ _____    ______ ____
ROOT
ATOM      1  C   UNL     1       2.277   5.658  19.684  0.00  0.00    +0.000 A 
ATOM      2  N   UNL     1       3.073   6.479  19.063  0.00  0.00    +0.000 NA
ATOM      3  C   UNL     1       3.789   5.951  18.048  0.00  0.00    +0.000 A 
ATOM      4  S   UNL     1       4.852   6.917  17.093  0.00  0.00    +0.000 S 
ATOM      5  C   UNL     1       5.278   5.583  16.180  0.00  0.00    +0.000 A 
ATOM      6  C   UNL     1       4.648   4.426  16.552  0.00  0.00    +0.000 A 
ATOM      7  C   UNL     1       3.774   4.631  17.641  0.00  0.00    +0.000 A 
ATOM      8  C   UNL     1       2.910   3.716  18.350  0.00  0.00    +0.000 A 
ATOM      9  O   UNL     1       2.876   2.516  18.082  0.00  0.00    +0.000 OA
ATOM     10  N   UNL     1       2.133   4.310  19.361  0.00  0.00    +0.000 N 
ATOM     11  C   UNL     1       5.071   3.289  15.698  0.00  0.00    +0.000 C 
ATOM     12  C   UNL     1       6.342   3.867  14.997  0.00  0.00    +0.000 C 
ATOM     13  C   UNL     1       6.217   5.421  15.047  0.00  0.00    +0.000 C 
ENDROOT
BRANCH   1  15
ATOM     14  C   UNL     1       1.523   7.788  20.782  0.00  0.00    +0.000 C 
ATOM     15  C   UNL     1       1.457   6.271  20.811  0.00  0.00    +0.000 C 
ENDBRANCH   1  15
BRANCH  10  16
ATOM     16  C   UNL     1       1.182   3.410  20.026  0.00  0.00    +0.000 C 
BRANCH  16  17
ATOM     17  C   UNL     1       1.832   2.504  21.078  0.00  0.00    +0.000 C 
BRANCH  17  18
ATOM     18  O   UNL     1       2.142   3.227  22.264  0.00  0.00    +0.000 OA
ATOM     19  H   UNL     1       2.205   2.583  22.992  0.00  0.00    +0.000 HD
ENDBRANCH  17  18
ENDBRANCH  16  17
ENDBRANCH  10  16
TORSDOF 4
ENDMDL
