MODEL 1
REMARK VINA RESULT:      -8.1      0.000      0.000
REMARK  Name = 
REMARK  5 active torsions:
REMARK  status: ('A' for Active; 'I' for Inactive)
REMARK    1  A    between atoms: C_1  and  O_2
REMARK    2  A    between atoms: O_2  and  C_3
REMARK    3  A    between atoms: C_7  and  N_8
REMARK    4  A    between atoms: N_8  and  C_9
REMARK    5  A    between atoms: C_11  and  C_12
REMARK                            x       y       z     vdW  Elec       q    Type
REMARK                         _______ _______ _______ _____ _____    ______ ____
ROOT
ATOM      1  C   UNL     1       2.932   6.135  18.814  0.00  0.00    +0.000 A 
ATOM      2  N   UNL     1       4.228   6.477  18.881  0.00  0.00    +0.000 NA
ATOM      3  C   UNL     1       5.073   5.494  18.712  0.00  0.00    +0.000 A 
ATOM      4  N   UNL     1       4.881   4.379  19.390  0.00  0.00    +0.000 NA
ATOM      5  C   UNL     1       3.680   3.874  19.212  0.00  0.00    +0.000 A 
ATOM      6  C   UNL     1       3.729   2.482  19.073  0.00  0.00    +0.000 A 
ATOM      7  C   UNL     1       2.629   1.758  18.661  0.00  0.00    +0.000 A 
ATOM      8  C   UNL     1       1.441   2.421  18.513  0.00  0.00    +0.000 A 
ATOM      9  C   UNL     1       1.376   3.847  18.646  0.00  0.00    +0.000 A 
ATOM     10  C   UNL     1       2.549   4.681  18.902  0.00  0.00    +0.000 A 
ENDROOT
BRANCH   3  11
ATOM     11  C   UNL     1       5.361   5.136  17.267  0.00  0.00    +0.000 A 
ATOM     12  C   UNL     1       4.887   6.002  16.315  0.00  0.00    +0.000 A 
ATOM     13  C   UNL     1       5.569   6.079  15.118  0.00  0.00    +0.000 A 
ATOM     14  N   UNL     1       6.678   5.354  14.814  0.00  0.00    +0.000 NA
ATOM     15  C   UNL     1       7.081   4.457  15.729  0.00  0.00    +0.000 A 
ATOM     16  C   UNL     1       6.426   4.259  16.926  0.00  0.00    +0.000 A 
ENDBRANCH   3  11
BRANCH   1  17
ATOM     17  N   UNL     1       2.196   7.239  18.238  0.00  0.00    +0.000 N 
ATOM     18  H   UNL     1       1.387   6.877  17.743  0.00  0.00    +0.000 HD
BRANCH  17  23
ATOM     19  C   UNL     1       1.133   9.353  21.312  0.00  0.00    +0.000 A 
ATOM     20  C   UNL     1       0.818  10.555  20.670  0.00  0.00    +0.000 A 
ATOM     21  C   UNL     1       0.919  10.663  19.298  0.00  0.00    +0.000 A 
ATOM     22  C   UNL     1       1.374   9.580  18.535  0.00  0.00    +0.000 A 
ATOM     23  C   UNL     1       1.728   8.342  19.123  0.00  0.00    +0.000 A 
ATOM     24  C   UNL     1       1.589   8.244  20.548  0.00  0.00    +0.000 A 
BRANCH  19  26
ATOM     25  C   UNL     1      -0.338   9.691  23.223  0.00  0.00    +0.000 C 
ATOM     26  O   UNL     1       0.940   9.479  22.662  0.00  0.00    +0.000 OA
ENDBRANCH  19  26
ENDBRANCH  17  23
ENDBRANCH   1  17
TORSDOF 4
ENDMDL
MODEL 2
REMARK VINA RESULT:      -8.0      2.774      5.690
REMARK  Name = 
REMARK  5 active torsions:
REMARK  status: ('A' for Active; 'I' for Inactive)
REMARK    1  A    between atoms: C_1  and  O_2
REMARK    2  A    between atoms: O_2  and  C_3
REMARK    3  A    between atoms: C_7  and  N_8
REMARK    4  A    between atoms: N_8  and  C_9
REMARK    5  A    between atoms: C_11  and  C_12
REMARK                            x       y       z     vdW  Elec       q    Type
REMARK                         _______ _______ _______ _____ _____    ______ ____
ROOT
ATOM      1  C   UNL     1       3.969   3.428  17.619  0.00  0.00    +0.000 A 
ATOM      2  N   UNL     1       3.119   4.218  16.946  0.00  0.00    +0.000 NA
ATOM      3  C   UNL     1       2.131   4.703  17.652  0.00  0.00    +0.000 A 
ATOM      4  N   UNL     1       1.445   3.879  18.418  0.00  0.00    +0.000 NA
ATOM      5  C   UNL     1       2.206   3.206  19.254  0.00  0.00    +0.000 A 
ATOM      6  C   UNL     1       1.616   3.117  20.520  0.00  0.00    +0.000 A 
ATOM      7  C   UNL     1       2.319   2.652  21.612  0.00  0.00    +0.000 A 
ATOM      8  C   UNL     1       3.577   2.153  21.404  0.00  0.00    +0.000 A 
ATOM      9  C   UNL     1       4.196   2.242  20.114  0.00  0.00    +0.000 A 
ATOM     10  C   UNL     1       3.564   2.891  18.966  0.00  0.00    +0.000 A 
ENDROOT
BRANCH   3  11
ATOM     11  C   UNL     1       2.466   5.944  18.457  0.00  0.00    +0.000 A 
ATOM     12  C   UNL     1       2.723   7.086  17.744  0.00  0.00    +0.000 A 
ATOM     13  C   UNL     1       2.454   8.297  18.348  0.00  0.00    +0.000 A 
ATOM     14  N   UNL     1       1.953   8.439  19.603  0.00  0.00    +0.000 NA
ATOM     15  C   UNL     1       1.780   7.311  20.313  0.00  0.00    +0.000 A 
ATOM     16  C   UNL     1       2.083   6.060  19.821  0.00  0.00    +0.000 A 
ENDBRANCH   3  11
BRANCH   1  17
ATOM     17  N   UNL     1       5.295   3.608  17.070  0.00  0.00    +0.000 N 
ATOM     18  H   UNL     1       5.227   3.716  16.064  0.00  0.00    +0.000 HD
BRANCH  17  23
ATOM     19  C   UNL     1       7.226   6.948  17.472  0.00  0.00    +0.000 A 
ATOM     20  C   UNL     1       7.824   6.723  18.716  0.00  0.00    +0.000 A 
ATOM     21  C   UNL     1       7.632   5.529  19.379  0.00  0.00    +0.000 A 
ATOM     22  C   UNL     1       6.804   4.540  18.830  0.00  0.00    +0.000 A 
ATOM     23  C   UNL     1       6.153   4.712  17.586  0.00  0.00    +0.000 A 
ATOM     24  C   UNL     1       6.389   5.951  16.902  0.00  0.00    +0.000 A 
BRANCH  19  26
ATOM     25  C   UNL     1       8.119   9.184  17.842  0.00  0.00    +0.000 C 
ATOM     26  O   UNL     1       7.574   8.188  17.004  0.00  0.00    +0.000 OA
ENDBRANCH  19  26
ENDBRANCH  17  23
ENDBRANCH   1  17
TORSDOF 4
ENDMDL
MODEL 3
REMARK VINA RESULT:      -7.9      0.935      1.593
REMARK  Name = 
REMARK  5 active torsions:
REMARK  status: ('A' for Active; 'I' for Inactive)
REMARK    1  A    between atoms: C_1  and  O_2
REMARK    2  A    between atoms: O_2  and  C_3
REMARK    3  A    between atoms: C_7  and  N_8
REMARK    4  A    between atoms: N_8  and  C_9
REMARK    5  A    between atoms: C_11  and  C_12
REMARK                            x       y       z     vdW  Elec       q    Type
REMARK                         _______ _______ _______ _____ _____    ______ ____
ROOT
ATOM      1  C   UNL     1       3.206   6.106  18.900  0.00  0.00    +0.000 A 
ATOM      2  N   UNL     1       4.523   6.357  18.948  0.00  0.00    +0.000 NA
ATOM      3  C   UNL     1       5.295   5.324  18.731  0.00  0.00    +0.000 A 
ATOM      4  N   UNL     1       5.041   4.205  19.380  0.00  0.00    +0.000 NA
ATOM      5  C   UNL     1       3.805   3.788  19.214  0.00  0.00    +0.000 A 
ATOM      6  C   UNL     1       3.756   2.401  19.034  0.00  0.00    +0.000 A 
ATOM      7  C   UNL     1       2.601   1.766  18.626  0.00  0.00    +0.000 A 
ATOM      8  C   UNL     1       1.458   2.512  18.525  0.00  0.00    +0.000 A 
ATOM      9  C   UNL     1       1.493   3.935  18.701  0.00  0.00    +0.000 A 
ATOM     10  C   UNL     1       2.726   4.679  18.955  0.00  0.00    +0.000 A 
ENDROOT
BRANCH   3  11
ATOM     11  C   UNL     1       5.528   4.992  17.270  0.00  0.00    +0.000 A 
ATOM     12  C   UNL     1       4.904   5.797  16.352  0.00  0.00    +0.000 A 
ATOM     13  C   UNL     1       5.496   5.941  15.114  0.00  0.00    +0.000 A 
ATOM     14  N   UNL     1       6.656   5.339  14.739  0.00  0.00    +0.000 NA
ATOM     15  C   UNL     1       7.210   4.495  15.625  0.00  0.00    +0.000 A 
ATOM     16  C   UNL     1       6.658   4.233  16.860  0.00  0.00    +0.000 A 
ENDBRANCH   3  11
BRANCH   1  17
ATOM     17  N   UNL     1       2.535   7.274  18.373  0.00  0.00    +0.000 N 
ATOM     18  H   UNL     1       1.885   6.986  17.649  0.00  0.00    +0.000 HD
BRANCH  17  23
ATOM     19  C   UNL     1       0.563  10.241  19.908  0.00  0.00    +0.000 A 
ATOM     20  C   UNL     1       0.426   9.776  21.219  0.00  0.00    +0.000 A 
ATOM     21  C   UNL     1       0.974   8.567  21.594  0.00  0.00    +0.000 A 
ATOM     22  C   UNL     1       1.645   7.773  20.655  0.00  0.00    +0.000 A 
ATOM     23  C   UNL     1       1.802   8.175  19.307  0.00  0.00    +0.000 A 
ATOM     24  C   UNL     1       1.247   9.448  18.947  0.00  0.00    +0.000 A 
BRANCH  19  26
ATOM     25  C   UNL     1      -1.087  11.692  18.858  0.00  0.00    +0.000 C 
ATOM     26  O   UNL     1      -0.043  11.463  19.779  0.00  0.00    +0.000 OA
ENDBRANCH  19  26
ENDBRANCH  17  23
ENDBRANCH   1  17
TORSDOF 4
ENDMDL
MODEL 4
REMARK VINA RESULT:      -7.4      0.620      1.109
REMARK  Name = 
REMARK  5 active torsions:
REMARK  status: ('A' for Active; 'I' for Inactive)
REMARK    1  A    between atoms: C_1  and  O_2
REMARK    2  A    between atoms: O_2  and  C_3
REMARK    3  A    between atoms: C_7  and  N_8
REMARK    4  A    between atoms: N_8  and  C_9
REMARK    5  A    between atoms: C_11  and  C_12
REMARK                            x       y       z     vdW  Elec       q    Type
REMARK                         _______ _______ _______ _____ _____    ______ ____
ROOT
ATOM      1  C   UNL     1       3.252   6.119  18.659  0.00  0.00    +0.000 A 
ATOM      2  N   UNL     1       4.485   6.564  18.949  0.00  0.00    +0.000 NA
ATOM      3  C   UNL     1       5.443   5.688  18.798  0.00  0.00    +0.000 A 
ATOM      4  N   UNL     1       5.281   4.486  19.316  0.00  0.00    +0.000 NA
ATOM      5  C   UNL     1       4.174   3.902  18.913  0.00  0.00    +0.000 A 
ATOM      6  C   UNL     1       4.386   2.547  18.634  0.00  0.00    +0.000 A 
ATOM      7  C   UNL     1       3.433   1.784  17.992  0.00  0.00    +0.000 A 
ATOM      8  C   UNL     1       2.212   2.352  17.747  0.00  0.00    +0.000 A 
ATOM      9  C   UNL     1       1.981   3.740  18.022  0.00  0.00    +0.000 A 
ATOM     10  C   UNL     1       3.016   4.637  18.534  0.00  0.00    +0.000 A 
ENDROOT
BRANCH   3  11
ATOM     11  C   UNL     1       5.956   5.535  17.379  0.00  0.00    +0.000 A 
ATOM     12  C   UNL     1       7.015   4.682  17.200  0.00  0.00    +0.000 A 
ATOM     13  C   UNL     1       7.142   4.062  15.974  0.00  0.00    +0.000 A 
ATOM     14  N   UNL     1       6.291   4.238  14.929  0.00  0.00    +0.000 NA
ATOM     15  C   UNL     1       5.305   5.135  15.099  0.00  0.00    +0.000 A 
ATOM     16  C   UNL     1       5.137   5.854  16.263  0.00  0.00    +0.000 A 
ENDBRANCH   3  11
BRANCH   1  17
ATOM     17  N   UNL     1       2.487   7.215  18.106  0.00  0.00    +0.000 N 
ATOM     18  H   UNL     1       1.753   6.843  17.513  0.00  0.00    +0.000 HD
BRANCH  17  23
ATOM     19  C   UNL     1       1.041   9.000  21.231  0.00  0.00    +0.000 A 
ATOM     20  C   UNL     1       0.661  10.214  20.650  0.00  0.00    +0.000 A 
ATOM     21  C   UNL     1       0.839  10.431  19.300  0.00  0.00    +0.000 A 
ATOM     22  C   UNL     1       1.439   9.449  18.500  0.00  0.00    +0.000 A 
ATOM     23  C   UNL     1       1.865   8.207  19.028  0.00  0.00    +0.000 A 
ATOM     24  C   UNL     1       1.644   7.994  20.429  0.00  0.00    +0.000 A 
BRANCH  19  26
ATOM     25  C   UNL     1      -0.314   9.768  23.103  0.00  0.00    +0.000 C 
ATOM     26  O   UNL     1       0.751   9.011  22.570  0.00  0.00    +0.000 OA
ENDBRANCH  19  26
ENDBRANCH  17  23
ENDBRANCH   1  17
TORSDOF 4
ENDMDL
MODEL 5
REMARK VINA RESULT:      -7.4      3.030      6.240
REMARK  Name = 
REMARK  5 active torsions:
REMARK  status: ('A' for Active; 'I' for Inactive)
REMARK    1  A    between atoms: C_1  and  O_2
REMARK    2  A    between atoms: O_2  and  C_3
REMARK    3  A    between atoms: C_7  and  N_8
REMARK    4  A    between atoms: N_8  and  C_9
REMARK    5  A    between atoms: C_11  and  C_12
REMARK                            x       y       z     vdW  Elec       q    Type
REMARK                         _______ _______ _______ _____ _____    ______ ____
ROOT
ATOM      1  C   UNL     1       4.148   3.415  18.562  0.00  0.00    +0.000 A 
ATOM      2  N   UNL     1       3.686   4.197  17.574  0.00  0.00    +0.000 NA
ATOM      3  C   UNL     1       2.539   4.777  17.814  0.00  0.00    +0.000 A 
ATOM      4  N   UNL     1       1.551   4.043  18.286  0.00  0.00    +0.000 NA
ATOM      5  C   UNL     1       1.877   3.393  19.382  0.00  0.00    +0.000 A 
ATOM      6  C   UNL     1       0.837   3.421  20.318  0.00  0.00    +0.000 A 
ATOM      7  C   UNL     1       1.024   2.998  21.618  0.00  0.00    +0.000 A 
ATOM      8  C   UNL     1       2.224   2.425  21.942  0.00  0.00    +0.000 A 
ATOM      9  C   UNL     1       3.301   2.394  20.995  0.00  0.00    +0.000 A 
ATOM     10  C   UNL     1       3.213   2.992  19.664  0.00  0.00    +0.000 A 
ENDROOT
BRANCH   3  11
ATOM     11  C   UNL     1       2.623   6.053  18.630  0.00  0.00    +0.000 A 
ATOM     12  C   UNL     1       2.746   7.224  17.926  0.00  0.00    +0.000 A 
ATOM     13  C   UNL     1       2.252   8.376  18.502  0.00  0.00    +0.000 A 
ATOM     14  N   UNL     1       1.654   8.434  19.721  0.00  0.00    +0.000 NA
ATOM     15  C   UNL     1       1.612   7.292  20.427  0.00  0.00    +0.000 A 
ATOM     16  C   UNL     1       2.138   6.104  19.965  0.00  0.00    +0.000 A 
ENDBRANCH   3  11
BRANCH   1  17
ATOM     17  N   UNL     1       5.592   3.491  18.570  0.00  0.00    +0.000 N 
ATOM     18  H   UNL     1       5.975   2.601  18.269  0.00  0.00    +0.000 HD
BRANCH  17  23
ATOM     19  C   UNL     1       7.357   5.500  15.759  0.00  0.00    +0.000 A 
ATOM     20  C   UNL     1       7.548   6.714  16.426  0.00  0.00    +0.000 A 
ATOM     21  C   UNL     1       7.148   6.863  17.738  0.00  0.00    +0.000 A 
ATOM     22  C   UNL     1       6.512   5.810  18.407  0.00  0.00    +0.000 A 
ATOM     23  C   UNL     1       6.269   4.562  17.784  0.00  0.00    +0.000 A 
ATOM     24  C   UNL     1       6.718   4.421  16.429  0.00  0.00    +0.000 A 
BRANCH  19  26
ATOM     25  C   UNL     1       7.257   4.895  13.402  0.00  0.00    +0.000 C 
ATOM     26  O   UNL     1       7.847   5.585  14.483  0.00  0.00    +0.000 OA
ENDBRANCH  19  26
ENDBRANCH  17  23
ENDBRANCH   1  17
TORSDOF 4
ENDMDL
MODEL 6
REMARK VINA RESULT:      -7.4      1.597      3.671
REMARK  Name = 
REMARK  5 active torsions:
REMARK  status: ('A' for Active; 'I' for Inactive)
REMARK    1  A    between atoms: C_1  and  O_2
REMARK    2  A    between atoms: O_2  and  C_3
REMARK    3  A    between atoms: C_7  and  N_8
REMARK    4  A    between atoms: N_8  and  C_9
REMARK    5  A    between atoms: C_11  and  C_12
REMARK                            x       y       z     vdW  Elec       q    Type
REMARK                         _______ _______ _______ _____ _____    ______ ____
ROOT
ATOM      1  C   UNL     1       2.914   5.834  18.662  0.00  0.00    +0.000 A 
ATOM      2  N   UNL     1       1.902   4.968  18.501  0.00  0.00    +0.000 NA
ATOM      3  C   UNL     1       2.220   3.840  17.923  0.00  0.00    +0.000 A 
ATOM      4  N   UNL     1       2.936   3.883  16.816  0.00  0.00    +0.000 NA
ATOM      5  C   UNL     1       4.055   4.558  16.959  0.00  0.00    +0.000 A 
ATOM      6  C   UNL     1       5.121   3.918  16.314  0.00  0.00    +0.000 A 
ATOM      7  C   UNL     1       6.427   4.319  16.507  0.00  0.00    +0.000 A 
ATOM      8  C   UNL     1       6.651   5.448  17.248  0.00  0.00    +0.000 A 
ATOM      9  C   UNL     1       5.570   6.111  17.919  0.00  0.00    +0.000 A 
ATOM     10  C   UNL     1       4.193   5.620  17.896  0.00  0.00    +0.000 A 
ENDROOT
BRANCH   3  11
ATOM     11  C   UNL     1       2.817   2.793  18.842  0.00  0.00    +0.000 A 
ATOM     12  C   UNL     1       3.339   1.676  18.242  0.00  0.00    +0.000 A 
ATOM     13  C   UNL     1       4.363   1.015  18.890  0.00  0.00    +0.000 A 
ATOM     14  N   UNL     1       4.890   1.393  20.085  0.00  0.00    +0.000 NA
ATOM     15  C   UNL     1       4.314   2.443  20.693  0.00  0.00    +0.000 A 
ATOM     16  C   UNL     1       3.243   3.126  20.157  0.00  0.00    +0.000 A 
ENDBRANCH   3  11
BRANCH   1  17
ATOM     17  N   UNL     1       2.697   6.571  19.887  0.00  0.00    +0.000 N 
ATOM     18  H   UNL     1       3.593   6.784  20.311  0.00  0.00    +0.000 HD
BRANCH  17  23
ATOM     19  C   UNL     1       0.420   9.573  20.812  0.00  0.00    +0.000 A 
ATOM     20  C   UNL     1       0.445  10.267  19.598  0.00  0.00    +0.000 A 
ATOM     21  C   UNL     1       1.146   9.767  18.520  0.00  0.00    +0.000 A 
ATOM     22  C   UNL     1       1.872   8.575  18.640  0.00  0.00    +0.000 A 
ATOM     23  C   UNL     1       1.905   7.833  19.846  0.00  0.00    +0.000 A 
ATOM     24  C   UNL     1       1.147   8.358  20.944  0.00  0.00    +0.000 A 
BRANCH  19  26
ATOM     25  C   UNL     1      -0.431   9.859  23.076  0.00  0.00    +0.000 C 
ATOM     26  O   UNL     1      -0.350  10.248  21.722  0.00  0.00    +0.000 OA
ENDBRANCH  19  26
ENDBRANCH  17  23
ENDBRANCH   1  17
TORSDOF 4
ENDMDL
MODEL 7
REMARK VINA RESULT:      -7.4      2.683      5.678
REMARK  Name = 
REMARK  5 active torsions:
REMARK  status: ('A' for Active; 'I' for Inactive)
REMARK    1  A    between atoms: C_1  and  O_2
REMARK    2  A    between atoms: O_2  and  C_3
REMARK    3  A    between atoms: C_7  and  N_8
REMARK    4  A    between atoms: N_8  and  C_9
REMARK    5  A    between atoms: C_11  and  C_12
REMARK                            x       y       z     vdW  Elec       q    Type
REMARK                         _______ _______ _______ _____ _____    ______ ____
ROOT
ATOM      1  C   UNL     1       4.248   3.459  18.531  0.00  0.00    +0.000 A 
ATOM      2  N   UNL     1       3.798   4.234  17.533  0.00  0.00    +0.000 NA
ATOM      3  C   UNL     1       2.644   4.808  17.750  0.00  0.00    +0.000 A 
ATOM      4  N   UNL     1       1.652   4.069  18.207  0.00  0.00    +0.000 NA
ATOM      5  C   UNL     1       1.963   3.425  19.311  0.00  0.00    +0.000 A 
ATOM      6  C   UNL     1       0.907   3.450  20.230  0.00  0.00    +0.000 A 
ATOM      7  C   UNL     1       1.074   3.034  21.534  0.00  0.00    +0.000 A 
ATOM      8  C   UNL     1       2.272   2.470  21.882  0.00  0.00    +0.000 A 
ATOM      9  C   UNL     1       3.365   2.442  20.954  0.00  0.00    +0.000 A 
ATOM     10  C   UNL     1       3.297   3.034  19.619  0.00  0.00    +0.000 A 
ENDROOT
BRANCH   3  11
ATOM     11  C   UNL     1       2.705   6.087  18.562  0.00  0.00    +0.000 A 
ATOM     12  C   UNL     1       2.798   7.258  17.854  0.00  0.00    +0.000 A 
ATOM     13  C   UNL     1       2.284   8.401  18.430  0.00  0.00    +0.000 A 
ATOM     14  N   UNL     1       1.692   8.450  19.653  0.00  0.00    +0.000 NA
ATOM     15  C   UNL     1       1.680   7.309  20.362  0.00  0.00    +0.000 A 
ATOM     16  C   UNL     1       2.228   6.132  19.900  0.00  0.00    +0.000 A 
ENDBRANCH   3  11
BRANCH   1  17
ATOM     17  N   UNL     1       5.691   3.544  18.564  0.00  0.00    +0.000 N 
ATOM     18  H   UNL     1       6.084   2.731  18.101  0.00  0.00    +0.000 HD
BRANCH  17  23
ATOM     19  C   UNL     1       7.674   6.853  18.155  0.00  0.00    +0.000 A 
ATOM     20  C   UNL     1       7.591   7.004  16.767  0.00  0.00    +0.000 A 
ATOM     21  C   UNL     1       6.898   6.087  16.003  0.00  0.00    +0.000 A 
ATOM     22  C   UNL     1       6.299   4.974  16.606  0.00  0.00    +0.000 A 
ATOM     23  C   UNL     1       6.362   4.751  18.002  0.00  0.00    +0.000 A 
ATOM     24  C   UNL     1       7.064   5.731  18.779  0.00  0.00    +0.000 A 
BRANCH  19  26
ATOM     25  C   UNL     1       8.369   9.187  18.146  0.00  0.00    +0.000 C 
ATOM     26  O   UNL     1       8.391   7.887  18.696  0.00  0.00    +0.000 OA
ENDBRANCH  19  26
ENDBRANCH  17  23
ENDBRANCH   1  17
TORSDOF 4
ENDMDL
MODEL 8
REMARK VINA RESULT:      -7.4      3.179      6.696
REMARK  Name = 
REMARK  5 active torsions:
REMARK  status: ('A' for Active; 'I' for Inactive)
REMARK    1  A    between atoms: C_1  and  O_2
REMARK    2  A    between atoms: O_2  and  C_3
REMARK    3  A    between atoms: C_7  and  N_8
REMARK    4  A    between atoms: N_8  and  C_9
REMARK    5  A    between atoms: C_11  and  C_12
REMARK                            x       y       z     vdW  Elec       q    Type
REMARK                         _______ _______ _______ _____ _____    ______ ____
ROOT
ATOM      1  C   UNL     1       4.033   3.628  18.176  0.00  0.00    +0.000 A 
ATOM      2  N   UNL     1       3.437   4.463  17.311  0.00  0.00    +0.000 NA
ATOM      3  C   UNL     1       2.320   4.996  17.731  0.00  0.00    +0.000 A 
ATOM      4  N   UNL     1       1.411   4.206  18.269  0.00  0.00    +0.000 NA
ATOM      5  C   UNL     1       1.883   3.492  19.268  0.00  0.00    +0.000 A 
ATOM      6  C   UNL     1       0.969   3.430  20.326  0.00  0.00    +0.000 A 
ATOM      7  C   UNL     1       1.325   2.926  21.560  0.00  0.00    +0.000 A 
ATOM      8  C   UNL     1       2.566   2.363  21.691  0.00  0.00    +0.000 A 
ATOM      9  C   UNL     1       3.515   2.423  20.618  0.00  0.00    +0.000 A 
ATOM     10  C   UNL     1       3.251   3.108  19.354  0.00  0.00    +0.000 A 
ENDROOT
BRANCH   3  11
ATOM     11  C   UNL     1       2.484   6.215  18.618  0.00  0.00    +0.000 A 
ATOM     12  C   UNL     1       2.556   7.429  17.984  0.00  0.00    +0.000 A 
ATOM     13  C   UNL     1       2.124   8.543  18.673  0.00  0.00    +0.000 A 
ATOM     14  N   UNL     1       1.632   8.523  19.940  0.00  0.00    +0.000 NA
ATOM     15  C   UNL     1       1.640   7.337  20.571  0.00  0.00    +0.000 A 
ATOM     16  C   UNL     1       2.115   6.181  19.991  0.00  0.00    +0.000 A 
ENDBRANCH   3  11
BRANCH   1  17
ATOM     17  N   UNL     1       5.465   3.740  18.010  0.00  0.00    +0.000 N 
ATOM     18  H   UNL     1       5.899   2.856  18.251  0.00  0.00    +0.000 HD
BRANCH  17  23
ATOM     19  C   UNL     1       6.359   3.962  14.242  0.00  0.00    +0.000 A 
ATOM     20  C   UNL     1       7.139   5.123  14.256  0.00  0.00    +0.000 A 
ATOM     21  C   UNL     1       7.386   5.787  15.440  0.00  0.00    +0.000 A 
ATOM     22  C   UNL     1       6.828   5.324  16.639  0.00  0.00    +0.000 A 
ATOM     23  C   UNL     1       6.014   4.168  16.692  0.00  0.00    +0.000 A 
ATOM     24  C   UNL     1       5.793   3.479  15.453  0.00  0.00    +0.000 A 
BRANCH  19  26
ATOM     25  C   UNL     1       5.036   3.349  12.291  0.00  0.00    +0.000 C 
ATOM     26  O   UNL     1       6.270   3.474  12.965  0.00  0.00    +0.000 OA
ENDBRANCH  19  26
ENDBRANCH  17  23
ENDBRANCH   1  17
TORSDOF 4
ENDMDL
MODEL 9
REMARK VINA RESULT:      -7.3      2.713      5.697
REMARK  Name = 
REMARK  5 active torsions:
REMARK  status: ('A' for Active; 'I' for Inactive)
REMARK    1  A    between atoms: C_1  and  O_2
REMARK    2  A    between atoms: O_2  and  C_3
REMARK    3  A    between atoms: C_7  and  N_8
REMARK    4  A    between atoms: N_8  and  C_9
REMARK    5  A    between atoms: C_11  and  C_12
REMARK                            x       y       z     vdW  Elec       q    Type
REMARK                         _______ _______ _______ _____ _____    ______ ____
ROOT
ATOM      1  C   UNL     1       3.293   2.814  17.712  0.00  0.00    +0.000 A 
ATOM      2  N   UNL     1       2.549   3.652  16.974  0.00  0.00    +0.000 NA
ATOM      3  C   UNL     1       1.740   4.423  17.653  0.00  0.00    +0.000 A 
ATOM      4  N   UNL     1       0.984   3.874  18.583  0.00  0.00    +0.000 NA
ATOM      5  C   UNL     1       1.678   3.191  19.467  0.00  0.00    +0.000 A 
ATOM      6  C   UNL     1       1.202   3.408  20.765  0.00  0.00    +0.000 A 
ATOM      7  C   UNL     1       1.902   2.975  21.872  0.00  0.00    +0.000 A 
ATOM      8  C   UNL     1       3.018   2.209  21.670  0.00  0.00    +0.000 A 
ATOM      9  C   UNL     1       3.521   1.983  20.346  0.00  0.00    +0.000 A 
ATOM     10  C   UNL     1       2.919   2.571  19.150  0.00  0.00    +0.000 A 
ENDROOT
BRANCH   3  11
ATOM     11  C   UNL     1       2.376   5.675  18.225  0.00  0.00    +0.000 A 
ATOM     12  C   UNL     1       3.116   6.438  17.359  0.00  0.00    +0.000 A 
ATOM     13  C   UNL     1       3.211   7.791  17.611  0.00  0.00    +0.000 A 
ATOM     14  N   UNL     1       2.623   8.423  18.661  0.00  0.00    +0.000 NA
ATOM     15  C   UNL     1       1.967   7.647  19.540  0.00  0.00    +0.000 A 
ATOM     16  C   UNL     1       1.874   6.278  19.411  0.00  0.00    +0.000 A 
ENDBRANCH   3  11
BRANCH   1  17
ATOM     17  N   UNL     1       4.572   2.642  17.060  0.00  0.00    +0.000 N 
ATOM     18  H   UNL     1       4.425   2.251  16.135  0.00  0.00    +0.000 HD
BRANCH  17  23
ATOM     19  C   UNL     1       6.967   5.610  17.771  0.00  0.00    +0.000 A 
ATOM     20  C   UNL     1       7.189   6.048  16.462  0.00  0.00    +0.000 A 
ATOM     21  C   UNL     1       6.567   5.426  15.400  0.00  0.00    +0.000 A 
ATOM     22  C   UNL     1       5.732   4.322  15.618  0.00  0.00    +0.000 A 
ATOM     23  C   UNL     1       5.479   3.816  16.915  0.00  0.00    +0.000 A 
ATOM     24  C   UNL     1       6.116   4.496  18.006  0.00  0.00    +0.000 A 
BRANCH  19  26
ATOM     25  C   UNL     1       8.133   7.678  18.313  0.00  0.00    +0.000 C 
ATOM     26  O   UNL     1       7.672   6.387  18.651  0.00  0.00    +0.000 OA
ENDBRANCH  19  26
ENDBRANCH  17  23
ENDBRANCH   1  17
TORSDOF 4
ENDMDL
