MODEL 1
REMARK VINA RESULT:      -6.8      0.000      0.000
REMARK  Name = 
REMARK  15 active torsions:
REMARK  status: ('A' for Active; 'I' for Inactive)
REMARK    1  A    between atoms: N_1  and  C_2
REMARK    2  A    between atoms: C_6  and  C_7
REMARK    3  A    between atoms: C_7  and  O_8
REMARK    4  A    between atoms: C_7  and  C_9
REMARK    5  A    between atoms: C_9  and  N_10
REMARK    6  A    between atoms: N_10  and  C_11
REMARK    7  A    between atoms: C_11  and  C_12
REMARK    8  A    between atoms: C_12  and  C_13
REMARK    9  A    between atoms: C_13  and  C_14
REMARK   10  A    between atoms: C_14  and  C_15
REMARK   11  A    between atoms: C_15  and  C_16
REMARK   12  A    between atoms: C_16  and  C_17
REMARK   13  A    between atoms: C_17  and  C_18
REMARK   14  A    between atoms: C_18  and  C_19
REMARK   15  A    between atoms: C_19  and  C_20
REMARK                            x       y       z     vdW  Elec       q    Type
REMARK                         _______ _______ _______ _____ _____    ______ ____
ROOT
ATOM      1  N   UNL     1       1.375   8.294  20.372  0.00  0.00    +0.000 NA
ATOM      2  H   UNL     1       0.558   7.707  20.553  0.00  0.00    +0.000 HD
ENDROOT
BRANCH   1   3
ATOM      3  C   UNL     1       0.933   9.667  20.054  0.00  0.00    +0.000 C 
BRANCH   3   4
ATOM      4  C   UNL     1       0.602   9.836  18.548  0.00  0.00    +0.000 C 
BRANCH   4   9
ATOM      5  C   UNL     1      -3.414  11.391  17.800  0.00  0.00    +0.000 A 
ATOM      6  C   UNL     1      -2.792  10.520  16.890  0.00  0.00    +0.000 A 
ATOM      7 CL   UNL     1      -3.599  10.046  15.431  0.00  0.00    +0.000 Cl
ATOM      8  C   UNL     1      -1.521   9.993  17.137  0.00  0.00    +0.000 A 
ATOM      9  C   UNL     1      -0.802  10.352  18.290  0.00  0.00    +0.000 A 
ATOM     10  C   UNL     1      -1.416  11.222  19.200  0.00  0.00    +0.000 A 
ATOM     11  C   UNL     1      -2.684  11.753  18.949  0.00  0.00    +0.000 A 
ATOM     12 CL   UNL     1      -3.347  12.857  20.102  0.00  0.00    +0.000 Cl
BRANCH   5  13
ATOM     13  N   UNL     1      -4.613  12.057  17.463  0.00  0.00    +0.000 N 
ATOM     14  H   UNL     1      -4.478  13.047  17.275  0.00  0.00    +0.000 HD
ATOM     15  H   UNL     1      -5.155  11.574  16.749  0.00  0.00    +0.000 HD
ENDBRANCH   5  13
ENDBRANCH   4   9
BRANCH   4  16
ATOM     16  O   UNL     1       1.571  10.710  17.967  0.00  0.00    +0.000 OA
ATOM     17  H   UNL     1       2.412  10.485  18.414  0.00  0.00    +0.000 HD
ENDBRANCH   4  16
ENDBRANCH   3   4
ENDBRANCH   1   3
BRANCH   1  18
ATOM     18  C   UNL     1       2.104   7.745  19.230  0.00  0.00    +0.000 C 
BRANCH  18  19
ATOM     19  C   UNL     1       2.471   6.292  19.506  0.00  0.00    +0.000 C 
BRANCH  19  20
ATOM     20  C   UNL     1       1.731   5.795  20.742  0.00  0.00    +0.000 C 
BRANCH  20  21
ATOM     21  C   UNL     1       1.703   4.275  20.769  0.00  0.00    +0.000 C 
BRANCH  21  22
ATOM     22  C   UNL     1       0.575   3.744  19.897  0.00  0.00    +0.000 C 
BRANCH  22  23
ATOM     23  C   UNL     1       1.136   2.845  18.805  0.00  0.00    +0.000 C 
BRANCH  23  24
ATOM     24  C   UNL     1       2.168   1.882  19.375  0.00  0.00    +0.000 C 
BRANCH  24  25
ATOM     25  C   UNL     1       3.450   1.922  18.549  0.00  0.00    +0.000 C 
BRANCH  25  26
ATOM     26  C   UNL     1       4.543   2.685  19.291  0.00  0.00    +0.000 C 
BRANCH  26  27
ATOM     27  C   UNL     1       4.988   3.895  18.516  0.00  0.00    +0.000 A 
ATOM     28  C   UNL     1       4.390   4.208  17.299  0.00  0.00    +0.000 A 
ATOM     29  C   UNL     1       4.826   5.335  16.609  0.00  0.00    +0.000 A 
ATOM     30  C   UNL     1       5.832   6.120  17.158  0.00  0.00    +0.000 A 
ATOM     31  C   UNL     1       6.364   5.746  18.380  0.00  0.00    +0.000 A 
ATOM     32  N   UNL     1       5.962   4.655  19.070  0.00  0.00    +0.000 NA
ENDBRANCH  26  27
ENDBRANCH  25  26
ENDBRANCH  24  25
ENDBRANCH  23  24
ENDBRANCH  22  23
ENDBRANCH  21  22
ENDBRANCH  20  21
ENDBRANCH  19  20
ENDBRANCH  18  19
ENDBRANCH   1  18
TORSDOF 15
ENDMDL
MODEL 2
REMARK VINA RESULT:      -6.6      1.756      2.955
REMARK  Name = 
REMARK  15 active torsions:
REMARK  status: ('A' for Active; 'I' for Inactive)
REMARK    1  A    between atoms: N_1  and  C_2
REMARK    2  A    between atoms: C_6  and  C_7
REMARK    3  A    between atoms: C_7  and  O_8
REMARK    4  A    between atoms: C_7  and  C_9
REMARK    5  A    between atoms: C_9  and  N_10
REMARK    6  A    between atoms: N_10  and  C_11
REMARK    7  A    between atoms: C_11  and  C_12
REMARK    8  A    between atoms: C_12  and  C_13
REMARK    9  A    between atoms: C_13  and  C_14
REMARK   10  A    between atoms: C_14  and  C_15
REMARK   11  A    between atoms: C_15  and  C_16
REMARK   12  A    between atoms: C_16  and  C_17
REMARK   13  A    between atoms: C_17  and  C_18
REMARK   14  A    between atoms: C_18  and  C_19
REMARK   15  A    between atoms: C_19  and  C_20
REMARK                            x       y       z     vdW  Elec       q    Type
REMARK                         _______ _______ _______ _____ _____    ______ ____
ROOT
ATOM      1  N   UNL     1       2.336   7.459  20.027  0.00  0.00    +0.000 NA
ATOM      2  H   UNL     1       3.174   8.019  20.199  0.00  0.00    +0.000 HD
ENDROOT
BRANCH   1   3
ATOM      3  C   UNL     1       1.329   7.752  21.067  0.00  0.00    +0.000 C 
BRANCH   3   4
ATOM      4  C   UNL     1       1.348   9.244  21.489  0.00  0.00    +0.000 C 
BRANCH   4   9
ATOM      5  C   UNL     1      -1.737  11.605  19.487  0.00  0.00    +0.000 A 
ATOM      6  C   UNL     1      -1.310  11.923  20.787  0.00  0.00    +0.000 A 
ATOM      7 CL   UNL     1      -2.010  13.259  21.642  0.00  0.00    +0.000 Cl
ATOM      8  C   UNL     1      -0.302  11.193  21.422  0.00  0.00    +0.000 A 
ATOM      9  C   UNL     1       0.292  10.085  20.794  0.00  0.00    +0.000 A 
ATOM     10  C   UNL     1      -0.131   9.762  19.499  0.00  0.00    +0.000 A 
ATOM     11  C   UNL     1      -1.143  10.489  18.866  0.00  0.00    +0.000 A 
ATOM     12 CL   UNL     1      -1.637   9.992  17.286  0.00  0.00    +0.000 Cl
BRANCH   5  13
ATOM     13  N   UNL     1      -2.872  12.229  18.923  0.00  0.00    +0.000 N 
ATOM     14  H   UNL     1      -2.764  12.429  17.932  0.00  0.00    +0.000 HD
ATOM     15  H   UNL     1      -3.746  11.760  19.154  0.00  0.00    +0.000 HD
ENDBRANCH   5  13
ENDBRANCH   4   9
BRANCH   4  16
ATOM     16  O   UNL     1       1.191   9.316  22.907  0.00  0.00    +0.000 OA
ATOM     17  H   UNL     1       1.698   8.554  23.255  0.00  0.00    +0.000 HD
ENDBRANCH   4  16
ENDBRANCH   3   4
ENDBRANCH   1   3
BRANCH   1  18
ATOM     18  C   UNL     1       2.696   6.044  20.088  0.00  0.00    +0.000 C 
BRANCH  18  19
ATOM     19  C   UNL     1       1.503   5.231  20.571  0.00  0.00    +0.000 C 
BRANCH  19  20
ATOM     20  C   UNL     1       1.980   4.071  21.436  0.00  0.00    +0.000 C 
BRANCH  20  21
ATOM     21  C   UNL     1       1.912   2.766  20.660  0.00  0.00    +0.000 C 
BRANCH  21  22
ATOM     22  C   UNL     1       1.074   2.935  19.401  0.00  0.00    +0.000 C 
BRANCH  22  23
ATOM     23  C   UNL     1       1.812   2.363  18.199  0.00  0.00    +0.000 C 
BRANCH  23  24
ATOM     24  C   UNL     1       2.500   3.469  17.411  0.00  0.00    +0.000 C 
BRANCH  24  25
ATOM     25  C   UNL     1       4.010   3.416  17.624  0.00  0.00    +0.000 C 
BRANCH  25  26
ATOM     26  C   UNL     1       4.721   4.354  16.653  0.00  0.00    +0.000 C 
BRANCH  26  27
ATOM     27  C   UNL     1       5.811   5.128  17.342  0.00  0.00    +0.000 A 
ATOM     28  C   UNL     1       6.339   6.274  16.753  0.00  0.00    +0.000 A 
ATOM     29  C   UNL     1       7.346   6.966  17.418  0.00  0.00    +0.000 A 
ATOM     30  C   UNL     1       7.786   6.505  18.653  0.00  0.00    +0.000 A 
ATOM     31  C   UNL     1       7.199   5.366  19.174  0.00  0.00    +0.000 A 
ATOM     32  N   UNL     1       6.221   4.671  18.549  0.00  0.00    +0.000 NA
ENDBRANCH  26  27
ENDBRANCH  25  26
ENDBRANCH  24  25
ENDBRANCH  23  24
ENDBRANCH  22  23
ENDBRANCH  21  22
ENDBRANCH  20  21
ENDBRANCH  19  20
ENDBRANCH  18  19
ENDBRANCH   1  18
TORSDOF 15
ENDMDL
MODEL 3
REMARK VINA RESULT:      -6.6      1.208      2.214
REMARK  Name = 
REMARK  15 active torsions:
REMARK  status: ('A' for Active; 'I' for Inactive)
REMARK    1  A    between atoms: N_1  and  C_2
REMARK    2  A    between atoms: C_6  and  C_7
REMARK    3  A    between atoms: C_7  and  O_8
REMARK    4  A    between atoms: C_7  and  C_9
REMARK    5  A    between atoms: C_9  and  N_10
REMARK    6  A    between atoms: N_10  and  C_11
REMARK    7  A    between atoms: C_11  and  C_12
REMARK    8  A    between atoms: C_12  and  C_13
REMARK    9  A    between atoms: C_13  and  C_14
REMARK   10  A    between atoms: C_14  and  C_15
REMARK   11  A    between atoms: C_15  and  C_16
REMARK   12  A    between atoms: C_16  and  C_17
REMARK   13  A    between atoms: C_17  and  C_18
REMARK   14  A    between atoms: C_18  and  C_19
REMARK   15  A    between atoms: C_19  and  C_20
REMARK                            x       y       z     vdW  Elec       q    Type
REMARK                         _______ _______ _______ _____ _____    ______ ____
ROOT
ATOM      1  N   UNL     1       1.415   8.688  19.104  0.00  0.00    +0.000 NA
ATOM      2  H   UNL     1       0.582   8.098  19.038  0.00  0.00    +0.000 HD
ENDROOT
BRANCH   1   3
ATOM      3  C   UNL     1       1.106  10.034  18.579  0.00  0.00    +0.000 C 
BRANCH   3   4
ATOM      4  C   UNL     1       0.031  10.756  19.433  0.00  0.00    +0.000 C 
BRANCH   4   9
ATOM      5  C   UNL     1      -3.788  11.216  17.357  0.00  0.00    +0.000 A 
ATOM      6  C   UNL     1      -3.588  11.760  18.637  0.00  0.00    +0.000 A 
ATOM      7 CL   UNL     1      -4.862  12.620  19.437  0.00  0.00    +0.000 Cl
ATOM      8  C   UNL     1      -2.360  11.645  19.293  0.00  0.00    +0.000 A 
ATOM      9  C   UNL     1      -1.292  10.942  18.711  0.00  0.00    +0.000 A 
ATOM     10  C   UNL     1      -1.486  10.395  17.436  0.00  0.00    +0.000 A 
ATOM     11  C   UNL     1      -2.716  10.506  16.782  0.00  0.00    +0.000 A 
ATOM     12 CL   UNL     1      -2.884   9.761  15.231  0.00  0.00    +0.000 Cl
BRANCH   5  13
ATOM     13  N   UNL     1      -5.076  11.179  16.777  0.00  0.00    +0.000 N 
ATOM     14  H   UNL     1      -5.478  12.104  16.644  0.00  0.00    +0.000 HD
ATOM     15  H   UNL     1      -5.129  10.585  15.952  0.00  0.00    +0.000 HD
ENDBRANCH   5  13
ENDBRANCH   4   9
BRANCH   4  16
ATOM     16  O   UNL     1      -0.158  10.020  20.642  0.00  0.00    +0.000 OA
ATOM     17  H   UNL     1      -0.463  10.682  21.294  0.00  0.00    +0.000 HD
ENDBRANCH   4  16
ENDBRANCH   3   4
ENDBRANCH   1   3
BRANCH   1  18
ATOM     18  C   UNL     1       2.478   8.088  18.301  0.00  0.00    +0.000 C 
BRANCH  18  19
ATOM     19  C   UNL     1       2.603   6.608  18.637  0.00  0.00    +0.000 C 
BRANCH  19  20
ATOM     20  C   UNL     1       2.053   6.344  20.034  0.00  0.00    +0.000 C 
BRANCH  20  21
ATOM     21  C   UNL     1       2.489   4.973  20.526  0.00  0.00    +0.000 C 
BRANCH  21  22
ATOM     22  C   UNL     1       1.280   4.080  20.764  0.00  0.00    +0.000 C 
BRANCH  22  23
ATOM     23  C   UNL     1       0.793   3.496  19.446  0.00  0.00    +0.000 C 
BRANCH  23  24
ATOM     24  C   UNL     1       1.735   2.404  18.958  0.00  0.00    +0.000 C 
BRANCH  24  25
ATOM     25  C   UNL     1       2.388   2.811  17.642  0.00  0.00    +0.000 C 
BRANCH  25  26
ATOM     26  C   UNL     1       3.889   2.538  17.681  0.00  0.00    +0.000 C 
BRANCH  26  27
ATOM     27  C   UNL     1       4.679   3.813  17.565  0.00  0.00    +0.000 A 
ATOM     28  C   UNL     1       5.457   4.258  18.631  0.00  0.00    +0.000 A 
ATOM     29  C   UNL     1       6.175   5.441  18.488  0.00  0.00    +0.000 A 
ATOM     30  C   UNL     1       6.106   6.136  17.287  0.00  0.00    +0.000 A 
ATOM     31  C   UNL     1       5.320   5.618  16.273  0.00  0.00    +0.000 A 
ATOM     32  N   UNL     1       4.610   4.473  16.385  0.00  0.00    +0.000 NA
ENDBRANCH  26  27
ENDBRANCH  25  26
ENDBRANCH  24  25
ENDBRANCH  23  24
ENDBRANCH  22  23
ENDBRANCH  21  22
ENDBRANCH  20  21
ENDBRANCH  19  20
ENDBRANCH  18  19
ENDBRANCH   1  18
TORSDOF 15
ENDMDL
MODEL 4
REMARK VINA RESULT:      -6.5      4.098      8.453
REMARK  Name = 
REMARK  15 active torsions:
REMARK  status: ('A' for Active; 'I' for Inactive)
REMARK    1  A    between atoms: N_1  and  C_2
REMARK    2  A    between atoms: C_6  and  C_7
REMARK    3  A    between atoms: C_7  and  O_8
REMARK    4  A    between atoms: C_7  and  C_9
REMARK    5  A    between atoms: C_9  and  N_10
REMARK    6  A    between atoms: N_10  and  C_11
REMARK    7  A    between atoms: C_11  and  C_12
REMARK    8  A    between atoms: C_12  and  C_13
REMARK    9  A    between atoms: C_13  and  C_14
REMARK   10  A    between atoms: C_14  and  C_15
REMARK   11  A    between atoms: C_15  and  C_16
REMARK   12  A    between atoms: C_16  and  C_17
REMARK   13  A    between atoms: C_17  and  C_18
REMARK   14  A    between atoms: C_18  and  C_19
REMARK   15  A    between atoms: C_19  and  C_20
REMARK                            x       y       z     vdW  Elec       q    Type
REMARK                         _______ _______ _______ _____ _____    ______ ____
ROOT
ATOM      1  N   UNL     1       1.727   1.611  18.975  0.00  0.00    +0.000 NA
ATOM      2  H   UNL     1       2.446   0.925  19.213  0.00  0.00    +0.000 HD
ENDROOT
BRANCH   1   3
ATOM      3  C   UNL     1       2.252   2.535  17.948  0.00  0.00    +0.000 C 
BRANCH   3   4
ATOM      4  C   UNL     1       3.632   2.078  17.408  0.00  0.00    +0.000 C 
BRANCH   4   9
ATOM      5  C   UNL     1       6.491   5.331  16.815  0.00  0.00    +0.000 A 
ATOM      6  C   UNL     1       5.956   4.627  15.723  0.00  0.00    +0.000 A 
ATOM      7 CL   UNL     1       6.429   5.022  14.104  0.00  0.00    +0.000 Cl
ATOM      8  C   UNL     1       5.018   3.607  15.902  0.00  0.00    +0.000 A 
ATOM      9  C   UNL     1       4.606   3.221  17.190  0.00  0.00    +0.000 A 
ATOM     10  C   UNL     1       5.137   3.918  18.283  0.00  0.00    +0.000 A 
ATOM     11  C   UNL     1       6.080   4.934  18.103  0.00  0.00    +0.000 A 
ATOM     12 CL   UNL     1       6.720   5.709  19.510  0.00  0.00    +0.000 Cl
BRANCH   5  13
ATOM     13  N   UNL     1       7.565   6.231  16.643  0.00  0.00    +0.000 N 
ATOM     14  H   UNL     1       7.898   6.625  17.519  0.00  0.00    +0.000 HD
ATOM     15  H   UNL     1       8.306   5.865  16.049  0.00  0.00    +0.000 HD
ENDBRANCH   5  13
ENDBRANCH   4   9
BRANCH   4  16
ATOM     16  O   UNL     1       4.179   1.120  18.316  0.00  0.00    +0.000 OA
ATOM     17  H   UNL     1       4.229   0.288  17.803  0.00  0.00    +0.000 HD
ENDBRANCH   4  16
ENDBRANCH   3   4
ENDBRANCH   1   3
BRANCH   1  18
ATOM     18  C   UNL     1       1.385   2.369  20.177  0.00  0.00    +0.000 C 
BRANCH  18  19
ATOM     19  C   UNL     1       2.646   2.981  20.774  0.00  0.00    +0.000 C 
BRANCH  19  20
ATOM     20  C   UNL     1       2.301   4.272  21.506  0.00  0.00    +0.000 C 
BRANCH  20  21
ATOM     21  C   UNL     1       1.511   5.202  20.599  0.00  0.00    +0.000 C 
BRANCH  21  22
ATOM     22  C   UNL     1       2.446   6.140  19.849  0.00  0.00    +0.000 C 
BRANCH  22  23
ATOM     23  C   UNL     1       2.301   5.934  18.347  0.00  0.00    +0.000 C 
BRANCH  23  24
ATOM     24  C   UNL     1       2.476   7.251  17.603  0.00  0.00    +0.000 C 
BRANCH  24  25
ATOM     25  C   UNL     1       2.372   8.428  18.567  0.00  0.00    +0.000 C 
BRANCH  25  26
ATOM     26  C   UNL     1       1.887   9.677  17.838  0.00  0.00    +0.000 C 
BRANCH  26  27
ATOM     27  C   UNL     1       0.707  10.294  18.538  0.00  0.00    +0.000 A 
ATOM     28  C   UNL     1      -0.578  10.130  18.027  0.00  0.00    +0.000 A 
ATOM     29  C   UNL     1      -1.646  10.714  18.700  0.00  0.00    +0.000 A 
ATOM     30  C   UNL     1      -1.403  11.431  19.866  0.00  0.00    +0.000 A 
ATOM     31  C   UNL     1      -0.098  11.534  20.313  0.00  0.00    +0.000 A 
ATOM     32  N   UNL     1       0.959  10.980  19.677  0.00  0.00    +0.000 NA
ENDBRANCH  26  27
ENDBRANCH  25  26
ENDBRANCH  24  25
ENDBRANCH  23  24
ENDBRANCH  22  23
ENDBRANCH  21  22
ENDBRANCH  20  21
ENDBRANCH  19  20
ENDBRANCH  18  19
ENDBRANCH   1  18
TORSDOF 15
ENDMDL
MODEL 5
REMARK VINA RESULT:      -6.5      1.208      2.216
REMARK  Name = 
REMARK  15 active torsions:
REMARK  status: ('A' for Active; 'I' for Inactive)
REMARK    1  A    between atoms: N_1  and  C_2
REMARK    2  A    between atoms: C_6  and  C_7
REMARK    3  A    between atoms: C_7  and  O_8
REMARK    4  A    between atoms: C_7  and  C_9
REMARK    5  A    between atoms: C_9  and  N_10
REMARK    6  A    between atoms: N_10  and  C_11
REMARK    7  A    between atoms: C_11  and  C_12
REMARK    8  A    between atoms: C_12  and  C_13
REMARK    9  A    between atoms: C_13  and  C_14
REMARK   10  A    between atoms: C_14  and  C_15
REMARK   11  A    between atoms: C_15  and  C_16
REMARK   12  A    between atoms: C_16  and  C_17
REMARK   13  A    between atoms: C_17  and  C_18
REMARK   14  A    between atoms: C_18  and  C_19
REMARK   15  A    between atoms: C_19  and  C_20
REMARK                            x       y       z     vdW  Elec       q    Type
REMARK                         _______ _______ _______ _____ _____    ______ ____
ROOT
ATOM      1  N   UNL     1       2.081   9.394  17.402  0.00  0.00    +0.000 NA
ATOM      2  H   UNL     1       2.516  10.214  17.831  0.00  0.00    +0.000 HD
ENDROOT
BRANCH   1   3
ATOM      3  C   UNL     1       0.754   9.167  18.010  0.00  0.00    +0.000 C 
BRANCH   3   4
ATOM      4  C   UNL     1       0.416  10.237  19.080  0.00  0.00    +0.000 C 
BRANCH   4   9
ATOM      5  C   UNL     1      -3.561  11.975  18.560  0.00  0.00    +0.000 A 
ATOM      6  C   UNL     1      -2.799  12.239  19.710  0.00  0.00    +0.000 A 
ATOM      7 CL   UNL     1      -3.424  13.257  20.966  0.00  0.00    +0.000 Cl
ATOM      8  C   UNL     1      -1.514  11.714  19.869  0.00  0.00    +0.000 A 
ATOM      9  C   UNL     1      -0.955  10.864  18.899  0.00  0.00    +0.000 A 
ATOM     10  C   UNL     1      -1.711  10.595  17.751  0.00  0.00    +0.000 A 
ATOM     11  C   UNL     1      -2.998  11.116  17.595  0.00  0.00    +0.000 A 
ATOM     12 CL   UNL     1      -3.880  10.694  16.169  0.00  0.00    +0.000 Cl
BRANCH   5  13
ATOM     13  N   UNL     1      -4.918  12.358  18.485  0.00  0.00    +0.000 N 
ATOM     14  H   UNL     1      -5.098  13.044  17.755  0.00  0.00    +0.000 HD
ATOM     15  H   UNL     1      -5.560  11.568  18.473  0.00  0.00    +0.000 HD
ENDBRANCH   5  13
ENDBRANCH   4   9
BRANCH   4  16
ATOM     16  O   UNL     1       0.524   9.636  20.371  0.00  0.00    +0.000 OA
ATOM     17  H   UNL     1       0.933  10.323  20.935  0.00  0.00    +0.000 HD
ENDBRANCH   4  16
ENDBRANCH   3   4
ENDBRANCH   1   3
BRANCH   1  18
ATOM     18  C   UNL     1       2.931   8.230  17.647  0.00  0.00    +0.000 C 
BRANCH  18  19
ATOM     19  C   UNL     1       2.119   7.137  18.329  0.00  0.00    +0.000 C 
BRANCH  19  20
ATOM     20  C   UNL     1       2.782   6.739  19.642  0.00  0.00    +0.000 C 
BRANCH  20  21
ATOM     21  C   UNL     1       1.964   5.669  20.347  0.00  0.00    +0.000 C 
BRANCH  21  22
ATOM     22  C   UNL     1       1.326   4.729  19.335  0.00  0.00    +0.000 C 
BRANCH  22  23
ATOM     23  C   UNL     1       1.290   3.311  19.886  0.00  0.00    +0.000 C 
BRANCH  23  24
ATOM     24  C   UNL     1       1.216   2.294  18.755  0.00  0.00    +0.000 C 
BRANCH  24  25
ATOM     25  C   UNL     1       2.293   2.576  17.712  0.00  0.00    +0.000 C 
BRANCH  25  26
ATOM     26  C   UNL     1       3.683   2.382  18.310  0.00  0.00    +0.000 C 
BRANCH  26  27
ATOM     27  C   UNL     1       4.521   3.621  18.156  0.00  0.00    +0.000 A 
ATOM     28  C   UNL     1       4.491   4.348  16.969  0.00  0.00    +0.000 A 
ATOM     29  C   UNL     1       5.278   5.490  16.861  0.00  0.00    +0.000 A 
ATOM     30  C   UNL     1       6.060   5.879  17.942  0.00  0.00    +0.000 A 
ATOM     31  C   UNL     1       6.022   5.109  19.091  0.00  0.00    +0.000 A 
ATOM     32  N   UNL     1       5.269   3.993  19.221  0.00  0.00    +0.000 NA
ENDBRANCH  26  27
ENDBRANCH  25  26
ENDBRANCH  24  25
ENDBRANCH  23  24
ENDBRANCH  22  23
ENDBRANCH  21  22
ENDBRANCH  20  21
ENDBRANCH  19  20
ENDBRANCH  18  19
ENDBRANCH   1  18
TORSDOF 15
ENDMDL
MODEL 6
REMARK VINA RESULT:      -6.5      2.418      2.916
REMARK  Name = 
REMARK  15 active torsions:
REMARK  status: ('A' for Active; 'I' for Inactive)
REMARK    1  A    between atoms: N_1  and  C_2
REMARK    2  A    between atoms: C_6  and  C_7
REMARK    3  A    between atoms: C_7  and  O_8
REMARK    4  A    between atoms: C_7  and  C_9
REMARK    5  A    between atoms: C_9  and  N_10
REMARK    6  A    between atoms: N_10  and  C_11
REMARK    7  A    between atoms: C_11  and  C_12
REMARK    8  A    between atoms: C_12  and  C_13
REMARK    9  A    between atoms: C_13  and  C_14
REMARK   10  A    between atoms: C_14  and  C_15
REMARK   11  A    between atoms: C_15  and  C_16
REMARK   12  A    between atoms: C_16  and  C_17
REMARK   13  A    between atoms: C_17  and  C_18
REMARK   14  A    between atoms: C_18  and  C_19
REMARK   15  A    between atoms: C_19  and  C_20
REMARK                            x       y       z     vdW  Elec       q    Type
REMARK                         _______ _______ _______ _____ _____    ______ ____
ROOT
ATOM      1  N   UNL     1       1.436   8.149  21.835  0.00  0.00    +0.000 NA
ATOM      2  H   UNL     1       0.645   7.599  22.178  0.00  0.00    +0.000 HD
ENDROOT
BRANCH   1   3
ATOM      3  C   UNL     1       1.272   9.557  22.251  0.00  0.00    +0.000 C 
BRANCH   3   4
ATOM      4  C   UNL     1      -0.112   9.811  22.903  0.00  0.00    +0.000 C 
BRANCH   4   9
ATOM      5  C   UNL     1      -2.389  13.002  20.966  0.00  0.00    +0.000 A 
ATOM      6  C   UNL     1      -1.473  12.220  20.241  0.00  0.00    +0.000 A 
ATOM      7 CL   UNL     1      -1.211  12.511  18.553  0.00  0.00    +0.000 Cl
ATOM      8  C   UNL     1      -0.766  11.178  20.845  0.00  0.00    +0.000 A 
ATOM      9  C   UNL     1      -0.915  10.902  22.215  0.00  0.00    +0.000 A 
ATOM     10  C   UNL     1      -1.824  11.678  22.944  0.00  0.00    +0.000 A 
ATOM     11  C   UNL     1      -2.528  12.725  22.341  0.00  0.00    +0.000 A 
ATOM     12 CL   UNL     1      -3.594  13.664  23.326  0.00  0.00    +0.000 Cl
BRANCH   5  13
ATOM     13  N   UNL     1      -2.963  14.160  20.399  0.00  0.00    +0.000 N 
ATOM     14  H   UNL     1      -3.951  14.263  20.620  0.00  0.00    +0.000 HD
ATOM     15  H   UNL     1      -2.416  15.003  20.563  0.00  0.00    +0.000 HD
ENDBRANCH   5  13
ENDBRANCH   4   9
BRANCH   4  16
ATOM     16  O   UNL     1      -0.842   8.583  22.911  0.00  0.00    +0.000 OA
ATOM     17  H   UNL     1      -1.713   8.812  23.292  0.00  0.00    +0.000 HD
ENDBRANCH   4  16
ENDBRANCH   3   4
ENDBRANCH   1   3
BRANCH   1  18
ATOM     18  C   UNL     1       1.459   8.075  20.375  0.00  0.00    +0.000 C 
BRANCH  18  19
ATOM     19  C   UNL     1       2.479   7.035  19.930  0.00  0.00    +0.000 C 
BRANCH  19  20
ATOM     20  C   UNL     1       1.816   5.667  19.829  0.00  0.00    +0.000 C 
BRANCH  20  21
ATOM     21  C   UNL     1       2.198   4.803  21.021  0.00  0.00    +0.000 C 
BRANCH  21  22
ATOM     22  C   UNL     1       1.525   3.441  20.932  0.00  0.00    +0.000 C 
BRANCH  22  23
ATOM     23  C   UNL     1       0.661   3.364  19.681  0.00  0.00    +0.000 C 
BRANCH  23  24
ATOM     24  C   UNL     1       1.133   2.240  18.767  0.00  0.00    +0.000 C 
BRANCH  24  25
ATOM     25  C   UNL     1       2.556   1.825  19.122  0.00  0.00    +0.000 C 
BRANCH  25  26
ATOM     26  C   UNL     1       3.489   2.034  17.933  0.00  0.00    +0.000 C 
BRANCH  26  27
ATOM     27  C   UNL     1       4.144   3.387  17.983  0.00  0.00    +0.000 A 
ATOM     28  C   UNL     1       4.968   3.729  19.052  0.00  0.00    +0.000 A 
ATOM     29  C   UNL     1       5.558   4.989  19.066  0.00  0.00    +0.000 A 
ATOM     30  C   UNL     1       5.320   5.862  18.012  0.00  0.00    +0.000 A 
ATOM     31  C   UNL     1       4.498   5.439  16.982  0.00  0.00    +0.000 A 
ATOM     32  N   UNL     1       3.909   4.222  16.944  0.00  0.00    +0.000 NA
ENDBRANCH  26  27
ENDBRANCH  25  26
ENDBRANCH  24  25
ENDBRANCH  23  24
ENDBRANCH  22  23
ENDBRANCH  21  22
ENDBRANCH  20  21
ENDBRANCH  19  20
ENDBRANCH  18  19
ENDBRANCH   1  18
TORSDOF 15
ENDMDL
MODEL 7
REMARK VINA RESULT:      -6.5      2.283      2.726
REMARK  Name = 
REMARK  15 active torsions:
REMARK  status: ('A' for Active; 'I' for Inactive)
REMARK    1  A    between atoms: N_1  and  C_2
REMARK    2  A    between atoms: C_6  and  C_7
REMARK    3  A    between atoms: C_7  and  O_8
REMARK    4  A    between atoms: C_7  and  C_9
REMARK    5  A    between atoms: C_9  and  N_10
REMARK    6  A    between atoms: N_10  and  C_11
REMARK    7  A    between atoms: C_11  and  C_12
REMARK    8  A    between atoms: C_12  and  C_13
REMARK    9  A    between atoms: C_13  and  C_14
REMARK   10  A    between atoms: C_14  and  C_15
REMARK   11  A    between atoms: C_15  and  C_16
REMARK   12  A    between atoms: C_16  and  C_17
REMARK   13  A    between atoms: C_17  and  C_18
REMARK   14  A    between atoms: C_18  and  C_19
REMARK   15  A    between atoms: C_19  and  C_20
REMARK                            x       y       z     vdW  Elec       q    Type
REMARK                         _______ _______ _______ _____ _____    ______ ____
ROOT
ATOM      1  N   UNL     1       2.349   7.492  20.603  0.00  0.00    +0.000 NA
ATOM      2  H   UNL     1       2.032   7.363  21.567  0.00  0.00    +0.000 HD
ENDROOT
BRANCH   1   3
ATOM      3  C   UNL     1       1.435   8.419  19.905  0.00  0.00    +0.000 C 
BRANCH   3   4
ATOM      4  C   UNL     1       0.718   9.378  20.891  0.00  0.00    +0.000 C 
BRANCH   4   9
ATOM      5  C   UNL     1      -0.410  13.234  19.168  0.00  0.00    +0.000 A 
ATOM      6  C   UNL     1       0.875  12.701  18.974  0.00  0.00    +0.000 A 
ATOM      7 CL   UNL     1       2.058  13.569  18.052  0.00  0.00    +0.000 Cl
ATOM      8  C   UNL     1       1.233  11.454  19.494  0.00  0.00    +0.000 A 
ATOM      9  C   UNL     1       0.329  10.707  20.269  0.00  0.00    +0.000 A 
ATOM     10  C   UNL     1      -0.953  11.235  20.469  0.00  0.00    +0.000 A 
ATOM     11  C   UNL     1      -1.309  12.484  19.952  0.00  0.00    +0.000 A 
ATOM     12 CL   UNL     1      -2.897  13.081  20.287  0.00  0.00    +0.000 Cl
BRANCH   5  13
ATOM     13  N   UNL     1      -0.708  14.563  18.797  0.00  0.00    +0.000 N 
ATOM     14  H   UNL     1      -0.537  14.748  17.811  0.00  0.00    +0.000 HD
ATOM     15  H   UNL     1      -1.621  14.877  19.120  0.00  0.00    +0.000 HD
ENDBRANCH   5  13
ENDBRANCH   4   9
BRANCH   4  16
ATOM     16  O   UNL     1      -0.434   8.714  21.412  0.00  0.00    +0.000 OA
ATOM     17  H   UNL     1      -1.032   9.434  21.696  0.00  0.00    +0.000 HD
ENDBRANCH   4  16
ENDBRANCH   3   4
ENDBRANCH   1   3
BRANCH   1  18
ATOM     18  C   UNL     1       2.332   6.196  19.927  0.00  0.00    +0.000 C 
BRANCH  18  19
ATOM     19  C   UNL     1       1.348   5.266  20.626  0.00  0.00    +0.000 C 
BRANCH  19  20
ATOM     20  C   UNL     1       2.085   4.055  21.185  0.00  0.00    +0.000 C 
BRANCH  20  21
ATOM     21  C   UNL     1       1.273   2.789  20.960  0.00  0.00    +0.000 C 
BRANCH  21  22
ATOM     22  C   UNL     1       1.079   2.534  19.472  0.00  0.00    +0.000 C 
BRANCH  22  23
ATOM     23  C   UNL     1       2.343   1.933  18.874  0.00  0.00    +0.000 C 
BRANCH  23  24
ATOM     24  C   UNL     1       2.586   2.470  17.471  0.00  0.00    +0.000 C 
BRANCH  24  25
ATOM     25  C   UNL     1       3.332   3.799  17.529  0.00  0.00    +0.000 C 
BRANCH  25  26
ATOM     26  C   UNL     1       4.576   3.678  18.403  0.00  0.00    +0.000 C 
BRANCH  26  27
ATOM     27  C   UNL     1       5.542   4.800  18.138  0.00  0.00    +0.000 A 
ATOM     28  C   UNL     1       5.158   5.888  17.359  0.00  0.00    +0.000 A 
ATOM     29  C   UNL     1       6.076   6.909  17.134  0.00  0.00    +0.000 A 
ATOM     30  C   UNL     1       7.341   6.821  17.701  0.00  0.00    +0.000 A 
ATOM     31  C   UNL     1       7.638   5.712  18.474  0.00  0.00    +0.000 A 
ATOM     32  N   UNL     1       6.766   4.704  18.706  0.00  0.00    +0.000 NA
ENDBRANCH  26  27
ENDBRANCH  25  26
ENDBRANCH  24  25
ENDBRANCH  23  24
ENDBRANCH  22  23
ENDBRANCH  21  22
ENDBRANCH  20  21
ENDBRANCH  19  20
ENDBRANCH  18  19
ENDBRANCH   1  18
TORSDOF 15
ENDMDL
MODEL 8
REMARK VINA RESULT:      -6.5      6.133      9.322
REMARK  Name = 
REMARK  15 active torsions:
REMARK  status: ('A' for Active; 'I' for Inactive)
REMARK    1  A    between atoms: N_1  and  C_2
REMARK    2  A    between atoms: C_6  and  C_7
REMARK    3  A    between atoms: C_7  and  O_8
REMARK    4  A    between atoms: C_7  and  C_9
REMARK    5  A    between atoms: C_9  and  N_10
REMARK    6  A    between atoms: N_10  and  C_11
REMARK    7  A    between atoms: C_11  and  C_12
REMARK    8  A    between atoms: C_12  and  C_13
REMARK    9  A    between atoms: C_13  and  C_14
REMARK   10  A    between atoms: C_14  and  C_15
REMARK   11  A    between atoms: C_15  and  C_16
REMARK   12  A    between atoms: C_16  and  C_17
REMARK   13  A    between atoms: C_17  and  C_18
REMARK   14  A    between atoms: C_18  and  C_19
REMARK   15  A    between atoms: C_19  and  C_20
REMARK                            x       y       z     vdW  Elec       q    Type
REMARK                         _______ _______ _______ _____ _____    ______ ____
ROOT
ATOM      1  N   UNL     1       7.386   5.169  16.688  0.00  0.00    +0.000 NA
ATOM      2  H   UNL     1       7.041   6.120  16.838  0.00  0.00    +0.000 HD
ENDROOT
BRANCH   1   3
ATOM      3  C   UNL     1       6.293   4.327  16.161  0.00  0.00    +0.000 C 
BRANCH   3   4
ATOM      4  C   UNL     1       4.992   5.140  15.936  0.00  0.00    +0.000 C 
BRANCH   4   9
ATOM      5  C   UNL     1       2.252   4.890  19.334  0.00  0.00    +0.000 A 
ATOM      6  C   UNL     1       2.784   6.123  18.919  0.00  0.00    +0.000 A 
ATOM      7 CL   UNL     1       2.375   7.585  19.756  0.00  0.00    +0.000 Cl
ATOM      8  C   UNL     1       3.634   6.215  17.814  0.00  0.00    +0.000 A 
ATOM      9  C   UNL     1       4.023   5.067  17.103  0.00  0.00    +0.000 A 
ATOM     10  C   UNL     1       3.499   3.835  17.513  0.00  0.00    +0.000 A 
ATOM     11  C   UNL     1       2.652   3.743  18.622  0.00  0.00    +0.000 A 
ATOM     12 CL   UNL     1       2.089   2.176  19.088  0.00  0.00    +0.000 Cl
BRANCH   5  13
ATOM     13  N   UNL     1       1.542   4.778  20.549  0.00  0.00    +0.000 N 
ATOM     14  H   UNL     1       0.975   5.597  20.755  0.00  0.00    +0.000 HD
ATOM     15  H   UNL     1       1.041   3.897  20.643  0.00  0.00    +0.000 HD
ENDBRANCH   5  13
ENDBRANCH   4   9
BRANCH   4  16
ATOM     16  O   UNL     1       5.346   6.496  15.664  0.00  0.00    +0.000 OA
ATOM     17  H   UNL     1       5.923   6.451  14.874  0.00  0.00    +0.000 HD
ENDBRANCH   4  16
ENDBRANCH   3   4
ENDBRANCH   1   3
BRANCH   1  18
ATOM     18  C   UNL     1       7.839   4.628  17.969  0.00  0.00    +0.000 C 
BRANCH  18  19
ATOM     19  C   UNL     1       7.834   5.729  19.021  0.00  0.00    +0.000 C 
BRANCH  19  20
ATOM     20  C   UNL     1       7.409   7.049  18.391  0.00  0.00    +0.000 C 
BRANCH  20  21
ATOM     21  C   UNL     1       8.562   8.039  18.402  0.00  0.00    +0.000 C 
BRANCH  21  22
ATOM     22  C   UNL     1       8.131   9.370  17.803  0.00  0.00    +0.000 C 
BRANCH  22  23
ATOM     23  C   UNL     1       9.119  10.462  18.186  0.00  0.00    +0.000 C 
BRANCH  23  24
ATOM     24  C   UNL     1       9.326  10.498  19.695  0.00  0.00    +0.000 C 
BRANCH  24  25
ATOM     25  C   UNL     1      10.546  11.343  20.047  0.00  0.00    +0.000 C 
BRANCH  25  26
ATOM     26  C   UNL     1      11.407  11.584  18.811  0.00  0.00    +0.000 C 
BRANCH  26  27
ATOM     27  C   UNL     1      11.252  12.991  18.303  0.00  0.00    +0.000 A 
ATOM     28  C   UNL     1      10.098  13.717  18.585  0.00  0.00    +0.000 A 
ATOM     29  C   UNL     1       9.989  15.017  18.101  0.00  0.00    +0.000 A 
ATOM     30  C   UNL     1      11.035  15.556  17.363  0.00  0.00    +0.000 A 
ATOM     31  C   UNL     1      12.153  14.772  17.139  0.00  0.00    +0.000 A 
ATOM     32  N   UNL     1      12.285  13.506  17.595  0.00  0.00    +0.000 NA
ENDBRANCH  26  27
ENDBRANCH  25  26
ENDBRANCH  24  25
ENDBRANCH  23  24
ENDBRANCH  22  23
ENDBRANCH  21  22
ENDBRANCH  20  21
ENDBRANCH  19  20
ENDBRANCH  18  19
ENDBRANCH   1  18
TORSDOF 15
ENDMDL
MODEL 9
REMARK VINA RESULT:      -6.5      1.097      2.071
REMARK  Name = 
REMARK  15 active torsions:
REMARK  status: ('A' for Active; 'I' for Inactive)
REMARK    1  A    between atoms: N_1  and  C_2
REMARK    2  A    between atoms: C_6  and  C_7
REMARK    3  A    between atoms: C_7  and  O_8
REMARK    4  A    between atoms: C_7  and  C_9
REMARK    5  A    between atoms: C_9  and  N_10
REMARK    6  A    between atoms: N_10  and  C_11
REMARK    7  A    between atoms: C_11  and  C_12
REMARK    8  A    between atoms: C_12  and  C_13
REMARK    9  A    between atoms: C_13  and  C_14
REMARK   10  A    between atoms: C_14  and  C_15
REMARK   11  A    between atoms: C_15  and  C_16
REMARK   12  A    between atoms: C_16  and  C_17
REMARK   13  A    between atoms: C_17  and  C_18
REMARK   14  A    between atoms: C_18  and  C_19
REMARK   15  A    between atoms: C_19  and  C_20
REMARK                            x       y       z     vdW  Elec       q    Type
REMARK                         _______ _______ _______ _____ _____    ______ ____
ROOT
ATOM      1  N   UNL     1       1.524   8.786  18.954  0.00  0.00    +0.000 NA
ATOM      2  H   UNL     1       0.760   8.153  19.200  0.00  0.00    +0.000 HD
ENDROOT
BRANCH   1   3
ATOM      3  C   UNL     1       0.968  10.019  18.360  0.00  0.00    +0.000 C 
BRANCH   3   4
ATOM      4  C   UNL     1      -0.103  10.670  19.273  0.00  0.00    +0.000 C 
BRANCH   4   9
ATOM      5  C   UNL     1      -3.933  11.293  17.258  0.00  0.00    +0.000 A 
ATOM      6  C   UNL     1      -3.713  11.768  18.562  0.00  0.00    +0.000 A 
ATOM      7 CL   UNL     1      -4.966  12.607  19.416  0.00  0.00    +0.000 Cl
ATOM      8  C   UNL     1      -2.481  11.601  19.201  0.00  0.00    +0.000 A 
ATOM      9  C   UNL     1      -1.429  10.912  18.573  0.00  0.00    +0.000 A 
ATOM     10  C   UNL     1      -1.643  10.434  17.275  0.00  0.00    +0.000 A 
ATOM     11  C   UNL     1      -2.877  10.596  16.638  0.00  0.00    +0.000 A 
ATOM     12 CL   UNL     1      -3.070   9.932  15.054  0.00  0.00    +0.000 Cl
BRANCH   5  13
ATOM     13  N   UNL     1      -5.225  11.305  16.690  0.00  0.00    +0.000 N 
ATOM     14  H   UNL     1      -5.941  10.954  17.322  0.00  0.00    +0.000 HD
ATOM     15  H   UNL     1      -5.464  12.192  16.251  0.00  0.00    +0.000 HD
ENDBRANCH   5  13
ENDBRANCH   4   9
BRANCH   4  16
ATOM     16  O   UNL     1      -0.287   9.839  20.419  0.00  0.00    +0.000 OA
ATOM     17  H   UNL     1      -0.816   9.081  20.098  0.00  0.00    +0.000 HD
ENDBRANCH   4  16
ENDBRANCH   3   4
ENDBRANCH   1   3
BRANCH   1  18
ATOM     18  C   UNL     1       2.385   8.123  17.976  0.00  0.00    +0.000 C 
BRANCH  18  19
ATOM     19  C   UNL     1       2.433   6.629  18.264  0.00  0.00    +0.000 C 
BRANCH  19  20
ATOM     20  C   UNL     1       2.785   6.392  19.727  0.00  0.00    +0.000 C 
BRANCH  20  21
ATOM     21  C   UNL     1       2.274   5.034  20.183  0.00  0.00    +0.000 C 
BRANCH  21  22
ATOM     22  C   UNL     1       1.239   4.496  19.207  0.00  0.00    +0.000 C 
BRANCH  22  23
ATOM     23  C   UNL     1       1.596   3.075  18.794  0.00  0.00    +0.000 C 
BRANCH  23  24
ATOM     24  C   UNL     1       2.533   2.437  19.811  0.00  0.00    +0.000 C 
BRANCH  24  25
ATOM     25  C   UNL     1       3.856   2.058  19.155  0.00  0.00    +0.000 C 
BRANCH  25  26
ATOM     26  C   UNL     1       3.963   2.680  17.766  0.00  0.00    +0.000 C 
BRANCH  26  27
ATOM     27  C   UNL     1       4.854   3.892  17.777  0.00  0.00    +0.000 A 
ATOM     28  C   UNL     1       4.949   4.704  16.651  0.00  0.00    +0.000 A 
ATOM     29  C   UNL     1       5.782   5.818  16.696  0.00  0.00    +0.000 A 
ATOM     30  C   UNL     1       6.483   6.094  17.864  0.00  0.00    +0.000 A 
ATOM     31  C   UNL     1       6.321   5.243  18.943  0.00  0.00    +0.000 A 
ATOM     32  N   UNL     1       5.521   4.153  18.926  0.00  0.00    +0.000 NA
ENDBRANCH  26  27
ENDBRANCH  25  26
ENDBRANCH  24  25
ENDBRANCH  23  24
ENDBRANCH  22  23
ENDBRANCH  21  22
ENDBRANCH  20  21
ENDBRANCH  19  20
ENDBRANCH  18  19
ENDBRANCH   1  18
TORSDOF 15
ENDMDL
