MODEL 1
REMARK VINA RESULT:      -7.6      0.000      0.000
REMARK  Name = 
REMARK  9 active torsions:
REMARK  status: ('A' for Active; 'I' for Inactive)
REMARK    1  A    between atoms: C_2  and  C_4
REMARK    2  A    between atoms: C_7  and  C_8
REMARK    3  A    between atoms: C_11  and  C_12
REMARK    4  A    between atoms: C_12  and  C_13
REMARK    5  A    between atoms: N_15  and  C_16
REMARK    6  A    between atoms: C_16  and  C_17
REMARK    7  A    between atoms: C_16  and  C_21
REMARK    8  A    between atoms: C_17  and  C_18
REMARK    9  A    between atoms: C_18  and  O_20
REMARK                            x       y       z     vdW  Elec       q    Type
REMARK                         _______ _______ _______ _____ _____    ______ ____
ROOT
ATOM      1  C   UNL     1       0.523  10.942  18.806  0.00  0.00    +0.000 C 
ENDROOT
BRANCH   1   5
ATOM      2  C   UNL     1       2.347   7.893  18.729  0.00  0.00    +0.000 C 
ATOM      3  N   UNL     1       1.917   7.897  19.950  0.00  0.00    +0.000 NA
ATOM      4  O   UNL     1       0.982   8.950  20.073  0.00  0.00    +0.000 OA
ATOM      5  C   UNL     1       0.643   9.424  18.760  0.00  0.00    +0.000 C 
ATOM      6  C   UNL     1       1.753   8.939  17.854  0.00  0.00    +0.000 C 
BRANCH   2  10
ATOM      7  C   UNL     1       5.320   5.200  17.211  0.00  0.00    +0.000 A 
ATOM      8  C   UNL     1       5.146   6.461  16.630  0.00  0.00    +0.000 A 
ATOM      9  C   UNL     1       4.182   7.339  17.135  0.00  0.00    +0.000 A 
ATOM     10  C   UNL     1       3.396   6.969  18.234  0.00  0.00    +0.000 A 
ATOM     11  C   UNL     1       3.590   5.715  18.828  0.00  0.00    +0.000 A 
ATOM     12  C   UNL     1       4.548   4.833  18.318  0.00  0.00    +0.000 A 
BRANCH   7  14
ATOM     13  N   UNL     1       5.937   3.317  15.845  0.00  0.00    +0.000 NA
ATOM     14  C   UNL     1       6.322   4.250  16.651  0.00  0.00    +0.000 C 
ATOM     15  N   UNL     1       7.639   4.357  17.003  0.00  0.00    +0.000 N 
ATOM     16  H   UNL     1       6.743   2.780  15.523  0.00  0.00    +0.000 HD
ATOM     17  H   UNL     1       8.194   3.522  16.860  0.00  0.00    +0.000 HD
ATOM     18  H   UNL     1       7.811   4.760  17.918  0.00  0.00    +0.000 HD
ENDBRANCH   7  14
ENDBRANCH   2  10
ENDBRANCH   1   5
BRANCH   1  19
ATOM     19  C   UNL     1      -0.601  11.387  19.711  0.00  0.00    +0.000 C 
ATOM     20  O   UNL     1      -1.736  11.600  19.293  0.00  0.00    +0.000 OA
ATOM     21  N   UNL     1      -0.281  11.481  21.037  0.00  0.00    +0.000 N 
ATOM     22  H   UNL     1       0.671  11.315  21.359  0.00  0.00    +0.000 HD
BRANCH  21  23
ATOM     23  C   UNL     1      -1.251  11.830  22.087  0.00  0.00    +0.000 C 
BRANCH  23  24
ATOM     24  C   UNL     1      -0.935  13.287  22.526  0.00  0.00    +0.000 C 
ATOM     25  O   UNL     1       0.249  13.638  22.607  0.00  0.00    +0.000 OA
ATOM     26  N   UNL     1      -1.959  14.196  22.759  0.00  0.00    +0.000 N 
ATOM     27  C   UNL     1      -3.403  13.944  22.742  0.00  0.00    +0.000 C 
ATOM     28  C   UNL     1      -4.036  14.201  24.114  0.00  0.00    +0.000 C 
ATOM     29  S   UNL     1      -3.844  15.939  24.635  0.00  0.00    +0.000 S 
ATOM     30  C   UNL     1      -2.035  16.080  24.403  0.00  0.00    +0.000 C 
ATOM     31  C   UNL     1      -1.600  15.602  23.016  0.00  0.00    +0.000 C 
ENDBRANCH  23  24
BRANCH  23  32
ATOM     32  C   UNL     1      -1.267  10.772  23.196  0.00  0.00    +0.000 C 
BRANCH  32  33
ATOM     33  C   UNL     1      -0.253   9.674  23.016  0.00  0.00    +0.000 C 
ATOM     34  O   UNL     1       0.935   9.759  23.273  0.00  0.00    +0.000 OA
BRANCH  33  35
ATOM     35  O   UNL     1      -0.795   8.559  22.469  0.00  0.00    +0.000 OA
ATOM     36  H   UNL     1      -0.271   8.144  21.760  0.00  0.00    +0.000 HD
ENDBRANCH  33  35
ENDBRANCH  32  33
ENDBRANCH  23  32
ENDBRANCH  21  23
ENDBRANCH   1  19
TORSDOF 9
ENDMDL
MODEL 2
REMARK VINA RESULT:      -7.2      1.737      3.240
REMARK  Name = 
REMARK  9 active torsions:
REMARK  status: ('A' for Active; 'I' for Inactive)
REMARK    1  A    between atoms: C_2  and  C_4
REMARK    2  A    between atoms: C_7  and  C_8
REMARK    3  A    between atoms: C_11  and  C_12
REMARK    4  A    between atoms: C_12  and  C_13
REMARK    5  A    between atoms: N_15  and  C_16
REMARK    6  A    between atoms: C_16  and  C_17
REMARK    7  A    between atoms: C_16  and  C_21
REMARK    8  A    between atoms: C_17  and  C_18
REMARK    9  A    between atoms: C_18  and  O_20
REMARK                            x       y       z     vdW  Elec       q    Type
REMARK                         _______ _______ _______ _____ _____    ______ ____
ROOT
ATOM      1  C   UNL     1      -0.327   9.581  22.100  0.00  0.00    +0.000 C 
ENDROOT
BRANCH   1   5
ATOM      2  C   UNL     1       1.818   7.978  19.764  0.00  0.00    +0.000 C 
ATOM      3  N   UNL     1       1.551   9.081  19.142  0.00  0.00    +0.000 NA
ATOM      4  O   UNL     1       0.876   9.932  20.048  0.00  0.00    +0.000 OA
ATOM      5  C   UNL     1       0.998   9.388  21.372  0.00  0.00    +0.000 C 
ATOM      6  C   UNL     1       1.369   7.935  21.181  0.00  0.00    +0.000 C 
BRANCH   2  10
ATOM      7  C   UNL     1       3.753   4.593  17.976  0.00  0.00    +0.000 A 
ATOM      8  C   UNL     1       2.911   4.424  19.080  0.00  0.00    +0.000 A 
ATOM      9  C   UNL     1       2.274   5.530  19.653  0.00  0.00    +0.000 A 
ATOM     10  C   UNL     1       2.463   6.809  19.117  0.00  0.00    +0.000 A 
ATOM     11  C   UNL     1       3.289   6.972  17.997  0.00  0.00    +0.000 A 
ATOM     12  C   UNL     1       3.932   5.868  17.429  0.00  0.00    +0.000 A 
BRANCH   7  14
ATOM     13  N   UNL     1       4.136   2.227  17.760  0.00  0.00    +0.000 NA
ATOM     14  C   UNL     1       4.459   3.421  17.387  0.00  0.00    +0.000 C 
ATOM     15  N   UNL     1       5.456   3.610  16.471  0.00  0.00    +0.000 N 
ATOM     16  H   UNL     1       4.682   1.539  17.240  0.00  0.00    +0.000 HD
ATOM     17  H   UNL     1       6.094   2.832  16.359  0.00  0.00    +0.000 HD
ATOM     18  H   UNL     1       5.959   4.488  16.553  0.00  0.00    +0.000 HD
ENDBRANCH   7  14
ENDBRANCH   2  10
ENDBRANCH   1   5
BRANCH   1  19
ATOM     19  C   UNL     1      -0.739  11.034  22.135  0.00  0.00    +0.000 C 
ATOM     20  O   UNL     1      -0.567  11.742  23.125  0.00  0.00    +0.000 OA
ATOM     21  N   UNL     1      -1.264  11.521  20.971  0.00  0.00    +0.000 N 
ATOM     22  H   UNL     1      -1.411  10.911  20.168  0.00  0.00    +0.000 HD
BRANCH  21  23
ATOM     23  C   UNL     1      -1.660  12.925  20.780  0.00  0.00    +0.000 C 
BRANCH  23  24
ATOM     24  C   UNL     1      -3.202  12.986  20.966  0.00  0.00    +0.000 C 
ATOM     25  O   UNL     1      -3.926  12.512  20.080  0.00  0.00    +0.000 OA
ATOM     26  N   UNL     1      -3.757  13.502  22.130  0.00  0.00    +0.000 N 
ATOM     27  C   UNL     1      -3.057  14.130  23.255  0.00  0.00    +0.000 C 
ATOM     28  C   UNL     1      -3.480  15.592  23.438  0.00  0.00    +0.000 C 
ATOM     29  S   UNL     1      -5.259  15.740  23.817  0.00  0.00    +0.000 S 
ATOM     30  C   UNL     1      -5.905  14.751  22.420  0.00  0.00    +0.000 C 
ATOM     31  C   UNL     1      -5.214  13.390  22.320  0.00  0.00    +0.000 C 
ENDBRANCH  23  24
BRANCH  23  32
ATOM     32  C   UNL     1      -1.111  13.478  19.461  0.00  0.00    +0.000 C 
BRANCH  32  33
ATOM     33  C   UNL     1      -0.863  12.430  18.408  0.00  0.00    +0.000 C 
ATOM     34  O   UNL     1      -1.715  11.922  17.701  0.00  0.00    +0.000 OA
BRANCH  33  35
ATOM     35  O   UNL     1       0.438  12.052  18.356  0.00  0.00    +0.000 OA
ATOM     36  H   UNL     1       0.748  11.518  19.109  0.00  0.00    +0.000 HD
ENDBRANCH  33  35
ENDBRANCH  32  33
ENDBRANCH  23  32
ENDBRANCH  21  23
ENDBRANCH   1  19
TORSDOF 9
ENDMDL
MODEL 3
REMARK VINA RESULT:      -7.0      1.093      1.196
REMARK  Name = 
REMARK  9 active torsions:
REMARK  status: ('A' for Active; 'I' for Inactive)
REMARK    1  A    between atoms: C_2  and  C_4
REMARK    2  A    between atoms: C_7  and  C_8
REMARK    3  A    between atoms: C_11  and  C_12
REMARK    4  A    between atoms: C_12  and  C_13
REMARK    5  A    between atoms: N_15  and  C_16
REMARK    6  A    between atoms: C_16  and  C_17
REMARK    7  A    between atoms: C_16  and  C_21
REMARK    8  A    between atoms: C_17  and  C_18
REMARK    9  A    between atoms: C_18  and  O_20
REMARK                            x       y       z     vdW  Elec       q    Type
REMARK                         _______ _______ _______ _____ _____    ______ ____
ROOT
ATOM      1  C   UNL     1       0.540  10.643  18.608  0.00  0.00    +0.000 C 
ENDROOT
BRANCH   1   5
ATOM      2  C   UNL     1       2.656   7.789  18.587  0.00  0.00    +0.000 C 
ATOM      3  N   UNL     1       2.117   7.693  19.760  0.00  0.00    +0.000 NA
ATOM      4  O   UNL     1       1.075   8.645  19.833  0.00  0.00    +0.000 OA
ATOM      5  C   UNL     1       0.813   9.147  18.513  0.00  0.00    +0.000 C 
ATOM      6  C   UNL     1       2.044   8.814  17.701  0.00  0.00    +0.000 C 
BRANCH   2  10
ATOM      7  C   UNL     1       6.000   5.447  17.270  0.00  0.00    +0.000 A 
ATOM      8  C   UNL     1       5.593   6.570  16.542  0.00  0.00    +0.000 A 
ATOM      9  C   UNL     1       4.508   7.336  16.981  0.00  0.00    +0.000 A 
ATOM     10  C   UNL     1       3.833   6.994  18.159  0.00  0.00    +0.000 A 
ATOM     11  C   UNL     1       4.258   5.882  18.898  0.00  0.00    +0.000 A 
ATOM     12  C   UNL     1       5.337   5.111  18.455  0.00  0.00    +0.000 A 
BRANCH   7  14
ATOM     13  N   UNL     1       7.982   4.131  17.631  0.00  0.00    +0.000 NA
ATOM     14  C   UNL     1       7.133   4.610  16.784  0.00  0.00    +0.000 C 
ATOM     15  N   UNL     1       7.280   4.367  15.447  0.00  0.00    +0.000 N 
ATOM     16  H   UNL     1       8.670   3.554  17.146  0.00  0.00    +0.000 HD
ATOM     17  H   UNL     1       8.208   4.084  15.159  0.00  0.00    +0.000 HD
ATOM     18  H   UNL     1       6.908   5.084  14.833  0.00  0.00    +0.000 HD
ENDBRANCH   7  14
ENDBRANCH   2  10
ENDBRANCH   1   5
BRANCH   1  19
ATOM     19  C   UNL     1      -0.681  10.937  19.447  0.00  0.00    +0.000 C 
ATOM     20  O   UNL     1      -1.823  10.794  19.018  0.00  0.00    +0.000 OA
ATOM     21  N   UNL     1      -0.427  11.318  20.735  0.00  0.00    +0.000 N 
ATOM     22  H   UNL     1       0.529  11.445  21.064  0.00  0.00    +0.000 HD
BRANCH  21  23
ATOM     23  C   UNL     1      -1.478  11.581  21.730  0.00  0.00    +0.000 C 
BRANCH  23  24
ATOM     24  C   UNL     1      -1.797  13.100  21.657  0.00  0.00    +0.000 C 
ATOM     25  O   UNL     1      -0.877  13.888  21.398  0.00  0.00    +0.000 OA
ATOM     26  N   UNL     1      -3.097  13.562  21.815  0.00  0.00    +0.000 N 
ATOM     27  C   UNL     1      -4.290  12.781  22.157  0.00  0.00    +0.000 C 
ATOM     28  C   UNL     1      -4.893  13.229  23.494  0.00  0.00    +0.000 C 
ATOM     29  S   UNL     1      -5.439  14.969  23.441  0.00  0.00    +0.000 S 
ATOM     30  C   UNL     1      -3.884  15.710  22.826  0.00  0.00    +0.000 C 
ATOM     31  C   UNL     1      -3.365  14.992  21.579  0.00  0.00    +0.000 C 
ENDBRANCH  23  24
BRANCH  23  32
ATOM     32  C   UNL     1      -1.085  11.032  23.105  0.00  0.00    +0.000 C 
BRANCH  32  33
ATOM     33  C   UNL     1      -0.260   9.774  23.054  0.00  0.00    +0.000 C 
ATOM     34  O   UNL     1       0.784   9.587  23.654  0.00  0.00    +0.000 OA
BRANCH  33  35
ATOM     35  O   UNL     1      -0.777   8.854  22.203  0.00  0.00    +0.000 OA
ATOM     36  H   UNL     1      -1.126   9.210  21.365  0.00  0.00    +0.000 HD
ENDBRANCH  33  35
ENDBRANCH  32  33
ENDBRANCH  23  32
ENDBRANCH  21  23
ENDBRANCH   1  19
TORSDOF 9
ENDMDL
MODEL 4
REMARK VINA RESULT:      -7.0      1.570      1.855
REMARK  Name = 
REMARK  9 active torsions:
REMARK  status: ('A' for Active; 'I' for Inactive)
REMARK    1  A    between atoms: C_2  and  C_4
REMARK    2  A    between atoms: C_7  and  C_8
REMARK    3  A    between atoms: C_11  and  C_12
REMARK    4  A    between atoms: C_12  and  C_13
REMARK    5  A    between atoms: N_15  and  C_16
REMARK    6  A    between atoms: C_16  and  C_17
REMARK    7  A    between atoms: C_16  and  C_21
REMARK    8  A    between atoms: C_17  and  C_18
REMARK    9  A    between atoms: C_18  and  O_20
REMARK                            x       y       z     vdW  Elec       q    Type
REMARK                         _______ _______ _______ _____ _____    ______ ____
ROOT
ATOM      1  C   UNL     1      -0.181  10.586  18.272  0.00  0.00    +0.000 C 
ENDROOT
BRANCH   1   5
ATOM      2  C   UNL     1       2.328   8.073  18.411  0.00  0.00    +0.000 C 
ATOM      3  N   UNL     1       2.881   8.936  17.621  0.00  0.00    +0.000 NA
ATOM      4  O   UNL     1       2.089  10.107  17.642  0.00  0.00    +0.000 OA
ATOM      5  C   UNL     1       1.156  10.015  18.730  0.00  0.00    +0.000 C 
ATOM      6  C   UNL     1       1.089   8.546  19.084  0.00  0.00    +0.000 C 
BRANCH   2  10
ATOM      7  C   UNL     1       3.726   4.044  18.877  0.00  0.00    +0.000 A 
ATOM      8  C   UNL     1       4.107   4.801  17.763  0.00  0.00    +0.000 A 
ATOM      9  C   UNL     1       3.656   6.117  17.621  0.00  0.00    +0.000 A 
ATOM     10  C   UNL     1       2.834   6.692  18.598  0.00  0.00    +0.000 A 
ATOM     11  C   UNL     1       2.474   5.940  19.724  0.00  0.00    +0.000 A 
ATOM     12  C   UNL     1       2.918   4.621  19.863  0.00  0.00    +0.000 A 
BRANCH   7  14
ATOM     13  N   UNL     1       3.782   1.751  18.152  0.00  0.00    +0.000 NA
ATOM     14  C   UNL     1       4.176   2.631  19.011  0.00  0.00    +0.000 C 
ATOM     15  N   UNL     1       4.987   2.266  20.049  0.00  0.00    +0.000 N 
ATOM     16  H   UNL     1       4.206   0.846  18.360  0.00  0.00    +0.000 HD
ATOM     17  H   UNL     1       4.991   1.278  20.268  0.00  0.00    +0.000 HD
ATOM     18  H   UNL     1       4.895   2.827  20.890  0.00  0.00    +0.000 HD
ENDBRANCH   7  14
ENDBRANCH   2  10
ENDBRANCH   1   5
BRANCH   1  19
ATOM     19  C   UNL     1      -0.989  11.116  19.434  0.00  0.00    +0.000 C 
ATOM     20  O   UNL     1      -2.183  11.388  19.333  0.00  0.00    +0.000 OA
ATOM     21  N   UNL     1      -0.313  11.219  20.617  0.00  0.00    +0.000 N 
ATOM     22  H   UNL     1       0.682  11.004  20.672  0.00  0.00    +0.000 HD
BRANCH  21  23
ATOM     23  C   UNL     1      -0.938  11.648  21.878  0.00  0.00    +0.000 C 
BRANCH  23  24
ATOM     24  C   UNL     1      -0.440  13.093  22.159  0.00  0.00    +0.000 C 
ATOM     25  O   UNL     1       0.748  13.365  21.936  0.00  0.00    +0.000 OA
ATOM     26  N   UNL     1      -1.320  14.077  22.590  0.00  0.00    +0.000 N 
ATOM     27  C   UNL     1      -2.737  13.923  22.934  0.00  0.00    +0.000 C 
ATOM     28  C   UNL     1      -3.000  14.264  24.406  0.00  0.00    +0.000 C 
ATOM     29  S   UNL     1      -2.585  16.001  24.783  0.00  0.00    +0.000 S 
ATOM     30  C   UNL     1      -0.882  16.011  24.114  0.00  0.00    +0.000 C 
ATOM     31  C   UNL     1      -0.827  15.462  22.688  0.00  0.00    +0.000 C 
ENDBRANCH  23  24
BRANCH  23  32
ATOM     32  C   UNL     1      -0.702  10.617  22.988  0.00  0.00    +0.000 C 
BRANCH  32  33
ATOM     33  C   UNL     1      -0.089   9.327  22.511  0.00  0.00    +0.000 C 
ATOM     34  O   UNL     1      -0.704   8.367  22.084  0.00  0.00    +0.000 OA
BRANCH  33  35
ATOM     35  O   UNL     1       1.258   9.314  22.660  0.00  0.00    +0.000 OA
ATOM     36  H   UNL     1       1.768   9.186  21.840  0.00  0.00    +0.000 HD
ENDBRANCH  33  35
ENDBRANCH  32  33
ENDBRANCH  23  32
ENDBRANCH  21  23
ENDBRANCH   1  19
TORSDOF 9
ENDMDL
MODEL 5
REMARK VINA RESULT:      -7.0      2.316      3.530
REMARK  Name = 
REMARK  9 active torsions:
REMARK  status: ('A' for Active; 'I' for Inactive)
REMARK    1  A    between atoms: C_2  and  C_4
REMARK    2  A    between atoms: C_7  and  C_8
REMARK    3  A    between atoms: C_11  and  C_12
REMARK    4  A    between atoms: C_12  and  C_13
REMARK    5  A    between atoms: N_15  and  C_16
REMARK    6  A    between atoms: C_16  and  C_17
REMARK    7  A    between atoms: C_16  and  C_21
REMARK    8  A    between atoms: C_17  and  C_18
REMARK    9  A    between atoms: C_18  and  O_20
REMARK                            x       y       z     vdW  Elec       q    Type
REMARK                         _______ _______ _______ _____ _____    ______ ____
ROOT
ATOM      1  C   UNL     1       2.171  10.653  18.247  0.00  0.00    +0.000 C 
ENDROOT
BRANCH   1   5
ATOM      2  C   UNL     1       2.230   7.241  19.238  0.00  0.00    +0.000 C 
ATOM      3  N   UNL     1       1.639   7.786  20.252  0.00  0.00    +0.000 NA
ATOM      4  O   UNL     1       1.342   9.125  19.908  0.00  0.00    +0.000 OA
ATOM      5  C   UNL     1       1.532   9.292  18.494  0.00  0.00    +0.000 C 
ATOM      6  C   UNL     1       2.405   8.135  18.062  0.00  0.00    +0.000 C 
BRANCH   2  10
ATOM      7  C   UNL     1       3.800   3.251  19.354  0.00  0.00    +0.000 A 
ATOM      8  C   UNL     1       2.689   3.596  20.131  0.00  0.00    +0.000 A 
ATOM      9  C   UNL     1       2.174   4.896  20.081  0.00  0.00    +0.000 A 
ATOM     10  C   UNL     1       2.758   5.855  19.245  0.00  0.00    +0.000 A 
ATOM     11  C   UNL     1       3.857   5.500  18.451  0.00  0.00    +0.000 A 
ATOM     12  C   UNL     1       4.376   4.202  18.506  0.00  0.00    +0.000 A 
BRANCH   7  14
ATOM     13  N   UNL     1       4.040   0.997  18.547  0.00  0.00    +0.000 NA
ATOM     14  C   UNL     1       4.370   1.877  19.433  0.00  0.00    +0.000 C 
ATOM     15  N   UNL     1       5.223   1.546  20.449  0.00  0.00    +0.000 N 
ATOM     16  H   UNL     1       4.541   0.125  18.719  0.00  0.00    +0.000 HD
ATOM     17  H   UNL     1       5.313   0.555  20.632  0.00  0.00    +0.000 HD
ATOM     18  H   UNL     1       5.095   2.068  21.310  0.00  0.00    +0.000 HD
ENDBRANCH   7  14
ENDBRANCH   2  10
ENDBRANCH   1   5
BRANCH   1  19
ATOM     19  C   UNL     1       1.218  11.783  18.560  0.00  0.00    +0.000 C 
ATOM     20  O   UNL     1       1.575  12.958  18.577  0.00  0.00    +0.000 OA
ATOM     21  N   UNL     1      -0.081  11.411  18.768  0.00  0.00    +0.000 N 
ATOM     22  H   UNL     1      -0.351  10.428  18.765  0.00  0.00    +0.000 HD
BRANCH  21  23
ATOM     23  C   UNL     1      -1.172  12.366  19.018  0.00  0.00    +0.000 C 
BRANCH  23  24
ATOM     24  C   UNL     1      -1.233  12.588  20.555  0.00  0.00    +0.000 C 
ATOM     25  O   UNL     1      -1.423  11.608  21.288  0.00  0.00    +0.000 OA
ATOM     26  N   UNL     1      -1.016  13.847  21.100  0.00  0.00    +0.000 N 
ATOM     27  C   UNL     1      -0.813  15.110  20.384  0.00  0.00    +0.000 C 
ATOM     28  C   UNL     1      -1.923  16.120  20.699  0.00  0.00    +0.000 C 
ATOM     29  S   UNL     1      -1.960  16.555  22.471  0.00  0.00    +0.000 S 
ATOM     30  C   UNL     1      -2.024  14.859  23.153  0.00  0.00    +0.000 C 
ATOM     31  C   UNL     1      -0.928  13.968  22.566  0.00  0.00    +0.000 C 
ENDBRANCH  23  24
BRANCH  23  32
ATOM     32  C   UNL     1      -2.470  11.908  18.343  0.00  0.00    +0.000 C 
BRANCH  32  33
ATOM     33  C   UNL     1      -2.265  10.955  17.196  0.00  0.00    +0.000 C 
ATOM     34  O   UNL     1      -1.949   9.783  17.296  0.00  0.00    +0.000 OA
BRANCH  33  35
ATOM     35  O   UNL     1      -2.418  11.560  15.992  0.00  0.00    +0.000 OA
ATOM     36  H   UNL     1      -2.735  12.480  16.024  0.00  0.00    +0.000 HD
ENDBRANCH  33  35
ENDBRANCH  32  33
ENDBRANCH  23  32
ENDBRANCH  21  23
ENDBRANCH   1  19
TORSDOF 9
ENDMDL
MODEL 6
REMARK VINA RESULT:      -6.9      2.950      4.295
REMARK  Name = 
REMARK  9 active torsions:
REMARK  status: ('A' for Active; 'I' for Inactive)
REMARK    1  A    between atoms: C_2  and  C_4
REMARK    2  A    between atoms: C_7  and  C_8
REMARK    3  A    between atoms: C_11  and  C_12
REMARK    4  A    between atoms: C_12  and  C_13
REMARK    5  A    between atoms: N_15  and  C_16
REMARK    6  A    between atoms: C_16  and  C_17
REMARK    7  A    between atoms: C_16  and  C_21
REMARK    8  A    between atoms: C_17  and  C_18
REMARK    9  A    between atoms: C_18  and  O_20
REMARK                            x       y       z     vdW  Elec       q    Type
REMARK                         _______ _______ _______ _____ _____    ______ ____
ROOT
ATOM      1  C   UNL     1      -0.192  10.001  22.456  0.00  0.00    +0.000 C 
ENDROOT
BRANCH   1   5
ATOM      2  C   UNL     1       1.630   7.860  20.283  0.00  0.00    +0.000 C 
ATOM      3  N   UNL     1       1.644   8.967  19.613  0.00  0.00    +0.000 NA
ATOM      4  O   UNL     1       1.141   9.985  20.455  0.00  0.00    +0.000 OA
ATOM      5  C   UNL     1       1.083   9.487  21.801  0.00  0.00    +0.000 C 
ATOM      6  C   UNL     1       1.126   7.980  21.677  0.00  0.00    +0.000 C 
BRANCH   2  10
ATOM      7  C   UNL     1       2.850   4.071  18.685  0.00  0.00    +0.000 A 
ATOM      8  C   UNL     1       2.293   4.152  19.966  0.00  0.00    +0.000 A 
ATOM      9  C   UNL     1       1.887   5.388  20.478  0.00  0.00    +0.000 A 
ATOM     10  C   UNL     1       2.022   6.550  19.709  0.00  0.00    +0.000 A 
ATOM     11  C   UNL     1       2.559   6.463  18.417  0.00  0.00    +0.000 A 
ATOM     12  C   UNL     1       2.972   5.227  17.908  0.00  0.00    +0.000 A 
BRANCH   7  14
ATOM     13  N   UNL     1       4.458   2.681  17.557  0.00  0.00    +0.000 NA
ATOM     14  C   UNL     1       3.315   2.760  18.153  0.00  0.00    +0.000 C 
ATOM     15  N   UNL     1       2.526   1.651  18.279  0.00  0.00    +0.000 N 
ATOM     16  H   UNL     1       4.645   1.715  17.287  0.00  0.00    +0.000 HD
ATOM     17  H   UNL     1       2.735   0.896  17.637  0.00  0.00    +0.000 HD
ATOM     18  H   UNL     1       1.528   1.831  18.320  0.00  0.00    +0.000 HD
ENDBRANCH   7  14
ENDBRANCH   2  10
ENDBRANCH   1   5
BRANCH   1  19
ATOM     19  C   UNL     1      -0.594  11.352  21.911  0.00  0.00    +0.000 C 
ATOM     20  O   UNL     1      -0.183  12.404  22.394  0.00  0.00    +0.000 OA
ATOM     21  N   UNL     1      -1.403  11.320  20.810  0.00  0.00    +0.000 N 
ATOM     22  H   UNL     1      -1.746  10.436  20.437  0.00  0.00    +0.000 HD
BRANCH  21  23
ATOM     23  C   UNL     1      -1.848  12.524  20.090  0.00  0.00    +0.000 C 
BRANCH  23  24
ATOM     24  C   UNL     1      -3.308  12.805  20.542  0.00  0.00    +0.000 C 
ATOM     25  O   UNL     1      -3.498  13.309  21.656  0.00  0.00    +0.000 OA
ATOM     26  N   UNL     1      -4.376  12.557  19.688  0.00  0.00    +0.000 N 
ATOM     27  C   UNL     1      -4.336  11.936  18.360  0.00  0.00    +0.000 C 
ATOM     28  C   UNL     1      -5.130  10.625  18.326  0.00  0.00    +0.000 C 
ATOM     29  S   UNL     1      -6.897  10.893  18.694  0.00  0.00    +0.000 S 
ATOM     30  C   UNL     1      -6.697  11.822  20.258  0.00  0.00    +0.000 C 
ATOM     31  C   UNL     1      -5.721  12.989  20.107  0.00  0.00    +0.000 C 
ENDBRANCH  23  24
BRANCH  23  32
ATOM     32  C   UNL     1      -1.616  12.382  18.582  0.00  0.00    +0.000 C 
BRANCH  32  33
ATOM     33  C   UNL     1      -0.903  11.117  18.184  0.00  0.00    +0.000 C 
ATOM     34  O   UNL     1      -1.431  10.036  17.996  0.00  0.00    +0.000 OA
BRANCH  33  35
ATOM     35  O   UNL     1       0.440  11.288  18.106  0.00  0.00    +0.000 OA
ATOM     36  H   UNL     1       0.914  11.270  18.957  0.00  0.00    +0.000 HD
ENDBRANCH  33  35
ENDBRANCH  32  33
ENDBRANCH  23  32
ENDBRANCH  21  23
ENDBRANCH   1  19
TORSDOF 9
ENDMDL
MODEL 7
REMARK VINA RESULT:      -6.8      2.743      3.507
REMARK  Name = 
REMARK  9 active torsions:
REMARK  status: ('A' for Active; 'I' for Inactive)
REMARK    1  A    between atoms: C_2  and  C_4
REMARK    2  A    between atoms: C_7  and  C_8
REMARK    3  A    between atoms: C_11  and  C_12
REMARK    4  A    between atoms: C_12  and  C_13
REMARK    5  A    between atoms: N_15  and  C_16
REMARK    6  A    between atoms: C_16  and  C_17
REMARK    7  A    between atoms: C_16  and  C_21
REMARK    8  A    between atoms: C_17  and  C_18
REMARK    9  A    between atoms: C_18  and  O_20
REMARK                            x       y       z     vdW  Elec       q    Type
REMARK                         _______ _______ _______ _____ _____    ______ ____
ROOT
ATOM      1  C   UNL     1       1.369   8.648  21.254  0.00  0.00    +0.000 C 
ENDROOT
BRANCH   1   5
ATOM      2  C   UNL     1       2.825   6.339  18.979  0.00  0.00    +0.000 C 
ATOM      3  N   UNL     1       2.454   5.549  19.934  0.00  0.00    +0.000 NA
ATOM      4  O   UNL     1       1.653   6.299  20.825  0.00  0.00    +0.000 OA
ATOM      5  C   UNL     1       1.311   7.547  20.202  0.00  0.00    +0.000 C 
ATOM      6  C   UNL     1       2.316   7.733  19.087  0.00  0.00    +0.000 C 
BRANCH   2  10
ATOM      7  C   UNL     1       5.530   5.111  15.884  0.00  0.00    +0.000 A 
ATOM      8  C   UNL     1       4.735   4.168  16.543  0.00  0.00    +0.000 A 
ATOM      9  C   UNL     1       3.847   4.575  17.545  0.00  0.00    +0.000 A 
ATOM     10  C   UNL     1       3.737   5.929  17.884  0.00  0.00    +0.000 A 
ATOM     11  C   UNL     1       4.518   6.874  17.205  0.00  0.00    +0.000 A 
ATOM     12  C   UNL     1       5.412   6.466  16.210  0.00  0.00    +0.000 A 
BRANCH   7  14
ATOM     13  N   UNL     1       7.596   5.338  14.672  0.00  0.00    +0.000 NA
ATOM     14  C   UNL     1       6.501   4.674  14.843  0.00  0.00    +0.000 C 
ATOM     15  N   UNL     1       6.225   3.587  14.062  0.00  0.00    +0.000 N 
ATOM     16  H   UNL     1       8.166   4.891  13.952  0.00  0.00    +0.000 HD
ATOM     17  H   UNL     1       6.740   3.537  13.192  0.00  0.00    +0.000 HD
ATOM     18  H   UNL     1       5.238   3.398  13.915  0.00  0.00    +0.000 HD
ENDBRANCH   7  14
ENDBRANCH   2  10
ENDBRANCH   1   5
BRANCH   1  19
ATOM     19  C   UNL     1       0.556   9.854  20.847  0.00  0.00    +0.000 C 
ATOM     20  O   UNL     1      -0.482   9.757  20.196  0.00  0.00    +0.000 OA
ATOM     21  N   UNL     1       1.024  11.055  21.301  0.00  0.00    +0.000 N 
ATOM     22  H   UNL     1       1.895  11.112  21.827  0.00  0.00    +0.000 HD
BRANCH  21  23
ATOM     23  C   UNL     1       0.338  12.336  21.073  0.00  0.00    +0.000 C 
BRANCH  23  24
ATOM     24  C   UNL     1       1.415  13.342  20.580  0.00  0.00    +0.000 C 
ATOM     25  O   UNL     1       2.568  13.238  21.020  0.00  0.00    +0.000 OA
ATOM     26  N   UNL     1       1.110  14.297  19.619  0.00  0.00    +0.000 N 
ATOM     27  C   UNL     1      -0.199  14.579  19.021  0.00  0.00    +0.000 C 
ATOM     28  C   UNL     1      -0.666  16.005  19.335  0.00  0.00    +0.000 C 
ATOM     29  S   UNL     1       0.471  17.257  18.650  0.00  0.00    +0.000 S 
ATOM     30  C   UNL     1       2.028  16.609  19.361  0.00  0.00    +0.000 C 
ATOM     31  C   UNL     1       2.207  15.117  19.074  0.00  0.00    +0.000 C 
ENDBRANCH  23  24
BRANCH  23  32
ATOM     32  C   UNL     1      -0.473  12.755  22.304  0.00  0.00    +0.000 C 
BRANCH  32  33
ATOM     33  C   UNL     1      -1.856  12.162  22.362  0.00  0.00    +0.000 C 
ATOM     34  O   UNL     1      -2.310  11.514  23.288  0.00  0.00    +0.000 OA
BRANCH  33  35
ATOM     35  O   UNL     1      -2.556  12.379  21.222  0.00  0.00    +0.000 OA
ATOM     36  H   UNL     1      -2.897  11.580  20.782  0.00  0.00    +0.000 HD
ENDBRANCH  33  35
ENDBRANCH  32  33
ENDBRANCH  23  32
ENDBRANCH  21  23
ENDBRANCH   1  19
TORSDOF 9
ENDMDL
MODEL 8
REMARK VINA RESULT:      -6.8      7.865      9.475
REMARK  Name = 
REMARK  9 active torsions:
REMARK  status: ('A' for Active; 'I' for Inactive)
REMARK    1  A    between atoms: C_2  and  C_4
REMARK    2  A    between atoms: C_7  and  C_8
REMARK    3  A    between atoms: C_11  and  C_12
REMARK    4  A    between atoms: C_12  and  C_13
REMARK    5  A    between atoms: N_15  and  C_16
REMARK    6  A    between atoms: C_16  and  C_17
REMARK    7  A    between atoms: C_16  and  C_21
REMARK    8  A    between atoms: C_17  and  C_18
REMARK    9  A    between atoms: C_18  and  O_20
REMARK                            x       y       z     vdW  Elec       q    Type
REMARK                         _______ _______ _______ _____ _____    ______ ____
ROOT
ATOM      1  C   UNL     1       7.920   8.559  17.150  0.00  0.00    +0.000 C 
ENDROOT
BRANCH   1   5
ATOM      2  C   UNL     1       5.865   5.691  17.569  0.00  0.00    +0.000 C 
ATOM      3  N   UNL     1       6.553   5.355  16.526  0.00  0.00    +0.000 NA
ATOM      4  O   UNL     1       7.581   6.312  16.363  0.00  0.00    +0.000 OA
ATOM      5  C   UNL     1       7.661   7.113  17.554  0.00  0.00    +0.000 C 
ATOM      6  C   UNL     1       6.339   6.918  18.263  0.00  0.00    +0.000 C 
BRANCH   2  10
ATOM      7  C   UNL     1       2.393   3.500  18.813  0.00  0.00    +0.000 A 
ATOM      8  C   UNL     1       3.659   3.150  19.295  0.00  0.00    +0.000 A 
ATOM      9  C   UNL     1       4.787   3.874  18.894  0.00  0.00    +0.000 A 
ATOM     10  C   UNL     1       4.655   4.961  18.021  0.00  0.00    +0.000 A 
ATOM     11  C   UNL     1       3.382   5.323  17.560  0.00  0.00    +0.000 A 
ATOM     12  C   UNL     1       2.256   4.595  17.954  0.00  0.00    +0.000 A 
BRANCH   7  14
ATOM     13  N   UNL     1       0.733   1.804  18.413  0.00  0.00    +0.000 NA
ATOM     14  C   UNL     1       1.196   2.707  19.212  0.00  0.00    +0.000 C 
ATOM     15  N   UNL     1       0.583   2.948  20.410  0.00  0.00    +0.000 N 
ATOM     16  H   UNL     1      -0.059   1.329  18.846  0.00  0.00    +0.000 HD
ATOM     17  H   UNL     1      -0.374   2.625  20.478  0.00  0.00    +0.000 HD
ATOM     18  H   UNL     1       0.677   3.895  20.762  0.00  0.00    +0.000 HD
ENDBRANCH   7  14
ENDBRANCH   2  10
ENDBRANCH   1   5
BRANCH   1  19
ATOM     19  C   UNL     1       8.596   9.335  18.256  0.00  0.00    +0.000 C 
ATOM     20  O   UNL     1       8.967   8.803  19.300  0.00  0.00    +0.000 OA
ATOM     21  N   UNL     1       8.816  10.657  17.992  0.00  0.00    +0.000 N 
ATOM     22  H   UNL     1       8.484  11.080  17.126  0.00  0.00    +0.000 HD
BRANCH  21  23
ATOM     23  C   UNL     1       9.520  11.566  18.910  0.00  0.00    +0.000 C 
BRANCH  23  24
ATOM     24  C   UNL     1       8.943  12.988  18.667  0.00  0.00    +0.000 C 
ATOM     25  O   UNL     1       8.487  13.260  17.548  0.00  0.00    +0.000 OA
ATOM     26  N   UNL     1       8.879  13.915  19.700  0.00  0.00    +0.000 N 
ATOM     27  C   UNL     1       9.399  13.774  21.064  0.00  0.00    +0.000 C 
ATOM     28  C   UNL     1      10.486  14.812  21.363  0.00  0.00    +0.000 C 
ATOM     29  S   UNL     1       9.845  16.517  21.251  0.00  0.00    +0.000 S 
ATOM     30  C   UNL     1       9.098  16.404  19.585  0.00  0.00    +0.000 C 
ATOM     31  C   UNL     1       8.179  15.188  19.454  0.00  0.00    +0.000 C 
ENDBRANCH  23  24
BRANCH  23  32
ATOM     32  C   UNL     1      11.040  11.415  18.775  0.00  0.00    +0.000 C 
BRANCH  32  33
ATOM     33  C   UNL     1      11.700  12.508  17.977  0.00  0.00    +0.000 C 
ATOM     34  O   UNL     1      12.333  13.439  18.441  0.00  0.00    +0.000 OA
BRANCH  33  35
ATOM     35  O   UNL     1      11.468  12.384  16.647  0.00  0.00    +0.000 OA
ATOM     36  H   UNL     1      11.899  13.051  16.084  0.00  0.00    +0.000 HD
ENDBRANCH  33  35
ENDBRANCH  32  33
ENDBRANCH  23  32
ENDBRANCH  21  23
ENDBRANCH   1  19
TORSDOF 9
ENDMDL
MODEL 9
REMARK VINA RESULT:      -6.7      2.312      3.669
REMARK  Name = 
REMARK  9 active torsions:
REMARK  status: ('A' for Active; 'I' for Inactive)
REMARK    1  A    between atoms: C_2  and  C_4
REMARK    2  A    between atoms: C_7  and  C_8
REMARK    3  A    between atoms: C_11  and  C_12
REMARK    4  A    between atoms: C_12  and  C_13
REMARK    5  A    between atoms: N_15  and  C_16
REMARK    6  A    between atoms: C_16  and  C_17
REMARK    7  A    between atoms: C_16  and  C_21
REMARK    8  A    between atoms: C_17  and  C_18
REMARK    9  A    between atoms: C_18  and  O_20
REMARK                            x       y       z     vdW  Elec       q    Type
REMARK                         _______ _______ _______ _____ _____    ______ ____
ROOT
ATOM      1  C   UNL     1       2.226  11.052  17.919  0.00  0.00    +0.000 C 
ENDROOT
BRANCH   1   5
ATOM      2  C   UNL     1       2.148   7.667  18.998  0.00  0.00    +0.000 C 
ATOM      3  N   UNL     1       1.641   8.269  20.025  0.00  0.00    +0.000 NA
ATOM      4  O   UNL     1       1.400   9.614  19.659  0.00  0.00    +0.000 OA
ATOM      5  C   UNL     1       1.527   9.736  18.234  0.00  0.00    +0.000 C 
ATOM      6  C   UNL     1       2.312   8.521  17.791  0.00  0.00    +0.000 C 
BRANCH   2  10
ATOM      7  C   UNL     1       3.531   3.608  19.119  0.00  0.00    +0.000 A 
ATOM      8  C   UNL     1       2.833   4.150  20.204  0.00  0.00    +0.000 A 
ATOM      9  C   UNL     1       2.376   5.472  20.155  0.00  0.00    +0.000 A 
ATOM     10  C   UNL     1       2.599   6.255  19.016  0.00  0.00    +0.000 A 
ATOM     11  C   UNL     1       3.277   5.701  17.922  0.00  0.00    +0.000 A 
ATOM     12  C   UNL     1       3.742   4.383  17.974  0.00  0.00    +0.000 A 
BRANCH   7  14
ATOM     13  N   UNL     1       3.585   1.322  18.373  0.00  0.00    +0.000 NA
ATOM     14  C   UNL     1       4.049   2.213  19.184  0.00  0.00    +0.000 C 
ATOM     15  N   UNL     1       4.996   1.877  20.110  0.00  0.00    +0.000 N 
ATOM     16  H   UNL     1       4.066   0.433  18.520  0.00  0.00    +0.000 HD
ATOM     17  H   UNL     1       5.066   0.889  20.319  0.00  0.00    +0.000 HD
ATOM     18  H   UNL     1       4.988   2.432  20.960  0.00  0.00    +0.000 HD
ENDBRANCH   7  14
ENDBRANCH   2  10
ENDBRANCH   1   5
BRANCH   1  19
ATOM     19  C   UNL     1       1.810  12.148  18.872  0.00  0.00    +0.000 C 
ATOM     20  O   UNL     1       2.596  13.002  19.275  0.00  0.00    +0.000 OA
ATOM     21  N   UNL     1       0.486  12.155  19.212  0.00  0.00    +0.000 N 
ATOM     22  H   UNL     1      -0.144  11.427  18.879  0.00  0.00    +0.000 HD
BRANCH  21  23
ATOM     23  C   UNL     1      -0.129  13.179  20.071  0.00  0.00    +0.000 C 
BRANCH  23  24
ATOM     24  C   UNL     1      -1.225  12.464  20.910  0.00  0.00    +0.000 C 
ATOM     25  O   UNL     1      -1.829  11.508  20.404  0.00  0.00    +0.000 OA
ATOM     26  N   UNL     1      -1.478  12.845  22.221  0.00  0.00    +0.000 N 
ATOM     27  C   UNL     1      -0.886  13.965  22.958  0.00  0.00    +0.000 C 
ATOM     28  C   UNL     1      -1.948  14.991  23.372  0.00  0.00    +0.000 C 
ATOM     29  S   UNL     1      -3.193  14.265  24.491  0.00  0.00    +0.000 S 
ATOM     30  C   UNL     1      -3.645  12.816  23.469  0.00  0.00    +0.000 C 
ATOM     31  C   UNL     1      -2.413  12.030  23.018  0.00  0.00    +0.000 C 
ENDBRANCH  23  24
BRANCH  23  32
ATOM     32  C   UNL     1      -0.583  14.389  19.248  0.00  0.00    +0.000 C 
BRANCH  32  33
ATOM     33  C   UNL     1       0.163  15.660  19.557  0.00  0.00    +0.000 C 
ATOM     34  O   UNL     1      -0.249  16.572  20.250  0.00  0.00    +0.000 OA
BRANCH  33  35
ATOM     35  O   UNL     1       1.360  15.719  18.922  0.00  0.00    +0.000 OA
ATOM     36  H   UNL     1       2.089  15.242  19.358  0.00  0.00    +0.000 HD
ENDBRANCH  33  35
ENDBRANCH  32  33
ENDBRANCH  23  32
ENDBRANCH  21  23
ENDBRANCH   1  19
TORSDOF 9
ENDMDL
