MODEL 1
REMARK VINA RESULT:      -4.7      0.000      0.000
REMARK  Name = 
REMARK  5 active torsions:
REMARK  status: ('A' for Active; 'I' for Inactive)
REMARK    1  A    between atoms: C_1  and  C_2
REMARK    2  A    between atoms: C_2  and  C_3
REMARK    3  A    between atoms: C_2  and  C_4
REMARK    4  A    between atoms: C_2  and  N_5
REMARK    5  A    between atoms: C_6  and  C_8
REMARK                            x       y       z     vdW  Elec       q    Type
REMARK                         _______ _______ _______ _____ _____    ______ ____
ROOT
ATOM      1  N   UNL     1       5.595   5.769  18.281  0.00  0.00    +0.000 N 
ATOM      2  C   UNL     1       4.868   4.750  18.879  0.00  0.00    +0.000 C 
ATOM      3  O   UNL     1       5.389   3.732  19.336  0.00  0.00    +0.000 OA
ATOM      4  H   UNL     1       5.064   6.520  17.851  0.00  0.00    +0.000 HD
ENDROOT
BRANCH   1   6
ATOM      5  C   UNL     1       7.509   4.613  17.219  0.00  0.00    +0.000 C 
ATOM      6  C   UNL     1       7.056   5.778  18.110  0.00  0.00    +0.000 C 
ATOM      7  C   UNL     1       7.768   5.717  19.471  0.00  0.00    +0.000 C 
ATOM      8  C   UNL     1       7.453   7.098  17.422  0.00  0.00    +0.000 C 
ENDBRANCH   1   6
BRANCH   2   9
ATOM      9  C   UNL     1       3.358   4.966  18.959  0.00  0.00    +0.000 C 
ATOM     10 CL   UNL     1       2.998   6.687  18.702  0.00  0.00    +0.000 Cl
ATOM     11 CL   UNL     1       2.546   3.970  17.730  0.00  0.00    +0.000 Cl
ENDBRANCH   2   9
TORSDOF 2
ENDMDL
MODEL 2
REMARK VINA RESULT:      -4.7      0.941      1.122
REMARK  Name = 
REMARK  5 active torsions:
REMARK  status: ('A' for Active; 'I' for Inactive)
REMARK    1  A    between atoms: C_1  and  C_2
REMARK    2  A    between atoms: C_2  and  C_3
REMARK    3  A    between atoms: C_2  and  C_4
REMARK    4  A    between atoms: C_2  and  N_5
REMARK    5  A    between atoms: C_6  and  C_8
REMARK                            x       y       z     vdW  Elec       q    Type
REMARK                         _______ _______ _______ _____ _____    ______ ____
ROOT
ATOM      1  N   UNL     1       5.603   5.822  18.439  0.00  0.00    +0.000 N 
ATOM      2  C   UNL     1       4.894   4.800  19.053  0.00  0.00    +0.000 C 
ATOM      3  O   UNL     1       5.413   3.743  19.411  0.00  0.00    +0.000 OA
ATOM      4  H   UNL     1       5.067   6.612  18.096  0.00  0.00    +0.000 HD
ENDROOT
BRANCH   1   6
ATOM      5  C   UNL     1       7.374   4.618  17.194  0.00  0.00    +0.000 C 
ATOM      6  C   UNL     1       7.042   5.787  18.133  0.00  0.00    +0.000 C 
ATOM      7  C   UNL     1       7.875   5.690  19.421  0.00  0.00    +0.000 C 
ATOM      8  C   UNL     1       7.415   7.101  17.421  0.00  0.00    +0.000 C 
ENDBRANCH   1   6
BRANCH   2   9
ATOM      9  C   UNL     1       3.408   5.066  19.284  0.00  0.00    +0.000 C 
ATOM     10 CL   UNL     1       2.528   4.847  17.756  0.00  0.00    +0.000 Cl
ATOM     11 CL   UNL     1       2.788   3.951  20.524  0.00  0.00    +0.000 Cl
ENDBRANCH   2   9
TORSDOF 2
ENDMDL
MODEL 3
REMARK VINA RESULT:      -4.6      2.156      2.686
REMARK  Name = 
REMARK  5 active torsions:
REMARK  status: ('A' for Active; 'I' for Inactive)
REMARK    1  A    between atoms: C_1  and  C_2
REMARK    2  A    between atoms: C_2  and  C_3
REMARK    3  A    between atoms: C_2  and  C_4
REMARK    4  A    between atoms: C_2  and  N_5
REMARK    5  A    between atoms: C_6  and  C_8
REMARK                            x       y       z     vdW  Elec       q    Type
REMARK                         _______ _______ _______ _____ _____    ______ ____
ROOT
ATOM      1  N   UNL     1       5.173   3.577  17.480  0.00  0.00    +0.000 N 
ATOM      2  C   UNL     1       4.875   3.818  18.813  0.00  0.00    +0.000 C 
ATOM      3  O   UNL     1       5.221   4.841  19.404  0.00  0.00    +0.000 OA
ATOM      4  H   UNL     1       4.926   2.664  17.112  0.00  0.00    +0.000 HD
ENDROOT
BRANCH   1   6
ATOM      5  C   UNL     1       7.357   4.687  17.126  0.00  0.00    +0.000 C 
ATOM      6  C   UNL     1       5.927   4.487  16.604  0.00  0.00    +0.000 C 
ATOM      7  C   UNL     1       5.212   5.841  16.473  0.00  0.00    +0.000 C 
ATOM      8  C   UNL     1       6.006   3.852  15.203  0.00  0.00    +0.000 C 
ENDBRANCH   1   6
BRANCH   2   9
ATOM      9  C   UNL     1       4.064   2.735  19.522  0.00  0.00    +0.000 C 
ATOM     10 CL   UNL     1       2.681   3.484  20.348  0.00  0.00    +0.000 Cl
ATOM     11 CL   UNL     1       3.505   1.536  18.334  0.00  0.00    +0.000 Cl
ENDBRANCH   2   9
TORSDOF 2
ENDMDL
MODEL 4
REMARK VINA RESULT:      -4.6      2.381      3.028
REMARK  Name = 
REMARK  5 active torsions:
REMARK  status: ('A' for Active; 'I' for Inactive)
REMARK    1  A    between atoms: C_1  and  C_2
REMARK    2  A    between atoms: C_2  and  C_3
REMARK    3  A    between atoms: C_2  and  C_4
REMARK    4  A    between atoms: C_2  and  N_5
REMARK    5  A    between atoms: C_6  and  C_8
REMARK                            x       y       z     vdW  Elec       q    Type
REMARK                         _______ _______ _______ _____ _____    ______ ____
ROOT
ATOM      1  N   UNL     1       5.088   3.680  17.241  0.00  0.00    +0.000 N 
ATOM      2  C   UNL     1       4.748   3.910  18.566  0.00  0.00    +0.000 C 
ATOM      3  O   UNL     1       5.173   4.868  19.212  0.00  0.00    +0.000 OA
ATOM      4  H   UNL     1       4.762   2.813  16.827  0.00  0.00    +0.000 HD
ENDROOT
BRANCH   1   6
ATOM      5  C   UNL     1       7.381   4.602  17.077  0.00  0.00    +0.000 C 
ATOM      6  C   UNL     1       5.986   4.526  16.439  0.00  0.00    +0.000 C 
ATOM      7  C   UNL     1       5.401   5.937  16.266  0.00  0.00    +0.000 C 
ATOM      8  C   UNL     1       6.125   3.892  15.042  0.00  0.00    +0.000 C 
ENDBRANCH   1   6
BRANCH   2   9
ATOM      9  C   UNL     1       3.784   2.904  19.191  0.00  0.00    +0.000 C 
ATOM     10 CL   UNL     1       3.182   1.807  17.930  0.00  0.00    +0.000 Cl
ATOM     11 CL   UNL     1       4.621   1.988  20.465  0.00  0.00    +0.000 Cl
ENDBRANCH   2   9
TORSDOF 2
ENDMDL
MODEL 5
REMARK VINA RESULT:      -4.6      2.770      4.450
REMARK  Name = 
REMARK  5 active torsions:
REMARK  status: ('A' for Active; 'I' for Inactive)
REMARK    1  A    between atoms: C_1  and  C_2
REMARK    2  A    between atoms: C_2  and  C_3
REMARK    3  A    between atoms: C_2  and  C_4
REMARK    4  A    between atoms: C_2  and  N_5
REMARK    5  A    between atoms: C_6  and  C_8
REMARK                            x       y       z     vdW  Elec       q    Type
REMARK                         _______ _______ _______ _____ _____    ______ ____
ROOT
ATOM      1  N   UNL     1       5.027   3.573  18.086  0.00  0.00    +0.000 N 
ATOM      2  C   UNL     1       5.765   4.643  18.571  0.00  0.00    +0.000 C 
ATOM      3  O   UNL     1       5.342   5.415  19.431  0.00  0.00    +0.000 OA
ATOM      4  H   UNL     1       5.425   3.054  17.310  0.00  0.00    +0.000 HD
ENDROOT
BRANCH   1   6
ATOM      5  C   UNL     1       2.658   4.295  18.091  0.00  0.00    +0.000 C 
ATOM      6  C   UNL     1       3.666   3.219  18.519  0.00  0.00    +0.000 C 
ATOM      7  C   UNL     1       3.611   3.011  20.041  0.00  0.00    +0.000 C 
ATOM      8  C   UNL     1       3.275   1.891  17.842  0.00  0.00    +0.000 C 
ENDBRANCH   1   6
BRANCH   2   9
ATOM      9  C   UNL     1       7.165   4.808  17.983  0.00  0.00    +0.000 C 
ATOM     10 CL   UNL     1       7.101   4.531  16.229  0.00  0.00    +0.000 Cl
ATOM     11 CL   UNL     1       7.770   6.443  18.334  0.00  0.00    +0.000 Cl
ENDBRANCH   2   9
TORSDOF 2
ENDMDL
MODEL 6
REMARK VINA RESULT:      -4.6      3.061      3.837
REMARK  Name = 
REMARK  5 active torsions:
REMARK  status: ('A' for Active; 'I' for Inactive)
REMARK    1  A    between atoms: C_1  and  C_2
REMARK    2  A    between atoms: C_2  and  C_3
REMARK    3  A    between atoms: C_2  and  C_4
REMARK    4  A    between atoms: C_2  and  N_5
REMARK    5  A    between atoms: C_6  and  C_8
REMARK                            x       y       z     vdW  Elec       q    Type
REMARK                         _______ _______ _______ _____ _____    ______ ____
ROOT
ATOM      1  N   UNL     1       2.782   4.306  18.779  0.00  0.00    +0.000 N 
ATOM      2  C   UNL     1       1.977   4.600  19.870  0.00  0.00    +0.000 C 
ATOM      3  O   UNL     1       2.081   5.640  20.520  0.00  0.00    +0.000 OA
ATOM      4  H   UNL     1       2.682   3.383  18.370  0.00  0.00    +0.000 HD
ENDROOT
BRANCH   1   6
ATOM      5  C   UNL     1       5.022   5.252  19.250  0.00  0.00    +0.000 C 
ATOM      6  C   UNL     1       3.851   5.173  18.259  0.00  0.00    +0.000 C 
ATOM      7  C   UNL     1       3.316   6.580  17.952  0.00  0.00    +0.000 C 
ATOM      8  C   UNL     1       4.370   4.562  16.943  0.00  0.00    +0.000 C 
ENDBRANCH   1   6
BRANCH   2   9
ATOM      9  C   UNL     1       0.919   3.555  20.219  0.00  0.00    +0.000 C 
ATOM     10 CL   UNL     1       0.705   2.455  18.840  0.00  0.00    +0.000 Cl
ATOM     11 CL   UNL     1       1.429   2.650  21.663  0.00  0.00    +0.000 Cl
ENDBRANCH   2   9
TORSDOF 2
ENDMDL
MODEL 7
REMARK VINA RESULT:      -4.6      0.148      1.375
REMARK  Name = 
REMARK  5 active torsions:
REMARK  status: ('A' for Active; 'I' for Inactive)
REMARK    1  A    between atoms: C_1  and  C_2
REMARK    2  A    between atoms: C_2  and  C_3
REMARK    3  A    between atoms: C_2  and  C_4
REMARK    4  A    between atoms: C_2  and  N_5
REMARK    5  A    between atoms: C_6  and  C_8
REMARK                            x       y       z     vdW  Elec       q    Type
REMARK                         _______ _______ _______ _____ _____    ______ ____
ROOT
ATOM      1  N   UNL     1       5.565   5.804  18.225  0.00  0.00    +0.000 N 
ATOM      2  C   UNL     1       4.832   4.773  18.795  0.00  0.00    +0.000 C 
ATOM      3  O   UNL     1       5.352   3.781  19.305  0.00  0.00    +0.000 OA
ATOM      4  H   UNL     1       5.041   6.531  17.748  0.00  0.00    +0.000 HD
ENDROOT
BRANCH   1   6
ATOM      5  C   UNL     1       7.658   5.728  19.547  0.00  0.00    +0.000 C 
ATOM      6  C   UNL     1       7.033   5.856  18.149  0.00  0.00    +0.000 C 
ATOM      7  C   UNL     1       7.502   7.153  17.472  0.00  0.00    +0.000 C 
ATOM      8  C   UNL     1       7.514   4.670  17.292  0.00  0.00    +0.000 C 
ENDBRANCH   1   6
BRANCH   2   9
ATOM      9  C   UNL     1       3.314   4.944  18.774  0.00  0.00    +0.000 C 
ATOM     10 CL   UNL     1       2.919   6.648  18.466  0.00  0.00    +0.000 Cl
ATOM     11 CL   UNL     1       2.615   3.905  17.511  0.00  0.00    +0.000 Cl
ENDBRANCH   2   9
TORSDOF 2
ENDMDL
MODEL 8
REMARK VINA RESULT:      -4.6      2.667      4.366
REMARK  Name = 
REMARK  5 active torsions:
REMARK  status: ('A' for Active; 'I' for Inactive)
REMARK    1  A    between atoms: C_1  and  C_2
REMARK    2  A    between atoms: C_2  and  C_3
REMARK    3  A    between atoms: C_2  and  C_4
REMARK    4  A    between atoms: C_2  and  N_5
REMARK    5  A    between atoms: C_6  and  C_8
REMARK                            x       y       z     vdW  Elec       q    Type
REMARK                         _______ _______ _______ _____ _____    ______ ____
ROOT
ATOM      1  N   UNL     1       4.990   3.620  17.823  0.00  0.00    +0.000 N 
ATOM      2  C   UNL     1       6.018   4.429  18.284  0.00  0.00    +0.000 C 
ATOM      3  O   UNL     1       6.070   4.858  19.437  0.00  0.00    +0.000 OA
ATOM      4  H   UNL     1       4.989   3.398  16.833  0.00  0.00    +0.000 HD
ENDROOT
BRANCH   1   6
ATOM      5  C   UNL     1       2.958   2.205  17.824  0.00  0.00    +0.000 C 
ATOM      6  C   UNL     1       3.842   3.171  18.626  0.00  0.00    +0.000 C 
ATOM      7  C   UNL     1       3.014   4.369  19.118  0.00  0.00    +0.000 C 
ATOM      8  C   UNL     1       4.380   2.424  19.861  0.00  0.00    +0.000 C 
ENDBRANCH   1   6
BRANCH   2   9
ATOM      9  C   UNL     1       7.116   4.754  17.273  0.00  0.00    +0.000 C 
ATOM     10 CL   UNL     1       6.605   4.213  15.659  0.00  0.00    +0.000 Cl
ATOM     11 CL   UNL     1       7.427   6.505  17.272  0.00  0.00    +0.000 Cl
ENDBRANCH   2   9
TORSDOF 2
ENDMDL
MODEL 9
REMARK VINA RESULT:      -4.5      2.168      2.787
REMARK  Name = 
REMARK  5 active torsions:
REMARK  status: ('A' for Active; 'I' for Inactive)
REMARK    1  A    between atoms: C_1  and  C_2
REMARK    2  A    between atoms: C_2  and  C_3
REMARK    3  A    between atoms: C_2  and  C_4
REMARK    4  A    between atoms: C_2  and  N_5
REMARK    5  A    between atoms: C_6  and  C_8
REMARK                            x       y       z     vdW  Elec       q    Type
REMARK                         _______ _______ _______ _____ _____    ______ ____
ROOT
ATOM      1  N   UNL     1       5.188   3.567  17.482  0.00  0.00    +0.000 N 
ATOM      2  C   UNL     1       4.894   3.832  18.812  0.00  0.00    +0.000 C 
ATOM      3  O   UNL     1       5.218   4.877  19.376  0.00  0.00    +0.000 OA
ATOM      4  H   UNL     1       4.962   2.640  17.137  0.00  0.00    +0.000 HD
ENDROOT
BRANCH   1   6
ATOM      5  C   UNL     1       5.227   5.847  16.517  0.00  0.00    +0.000 C 
ATOM      6  C   UNL     1       5.914   4.474  16.580  0.00  0.00    +0.000 C 
ATOM      7  C   UNL     1       6.031   3.871  15.171  0.00  0.00    +0.000 C 
ATOM      8  C   UNL     1       7.338   4.670  17.135  0.00  0.00    +0.000 C 
ENDBRANCH   1   6
BRANCH   2   9
ATOM      9  C   UNL     1       4.114   2.746  19.551  0.00  0.00    +0.000 C 
ATOM     10 CL   UNL     1       2.765   3.491  20.435  0.00  0.00    +0.000 Cl
ATOM     11 CL   UNL     1       3.508   1.548  18.385  0.00  0.00    +0.000 Cl
ENDBRANCH   2   9
TORSDOF 2
ENDMDL
