MODEL 1
REMARK VINA RESULT:      -9.2      0.000      0.000
REMARK  Name = 
REMARK  5 active torsions:
REMARK  status: ('A' for Active; 'I' for Inactive)
REMARK    1  A    between atoms: C_2  and  C_3
REMARK    2  A    between atoms: C_3  and  C_4
REMARK    3  A    between atoms: C_7  and  O_8
REMARK    4  A    between atoms: O_8  and  C_9
REMARK    5  A    between atoms: C_9  and  C_10
REMARK                            x       y       z     vdW  Elec       q    Type
REMARK                         _______ _______ _______ _____ _____    ______ ____
ROOT
ATOM      1  C   UNL     1       7.139   5.472  17.401  0.00  0.00    +0.000 A 
ATOM      2  C   UNL     1       7.744   5.355  18.657  0.00  0.00    +0.000 A 
ATOM      3  C   UNL     1       8.300   6.475  19.288  0.00  0.00    +0.000 A 
ATOM      4  C   UNL     1       8.297   7.721  18.654  0.00  0.00    +0.000 A 
ATOM      5  C   UNL     1       7.636   7.859  17.436  0.00  0.00    +0.000 A 
ATOM      6  C   UNL     1       7.070   6.745  16.810  0.00  0.00    +0.000 A 
ENDROOT
BRANCH   1   7
ATOM      7  C   UNL     1       6.656   4.276  16.611  0.00  0.00    +0.000 C 
BRANCH   7   9
ATOM      8  O   UNL     1       4.769   4.153  15.144  0.00  0.00    +0.000 OA
ATOM      9  C   UNL     1       5.164   4.180  16.313  0.00  0.00    +0.000 C 
ATOM     10  N   UNL     1       4.288   4.211  17.380  0.00  0.00    +0.000 N 
ATOM     11  C   UNL     1       2.843   4.406  17.150  0.00  0.00    +0.000 C 
ATOM     12  C   UNL     1       2.208   5.267  18.272  0.00  0.00    +0.000 C 
ATOM     13  C   UNL     1       2.383   4.493  19.561  0.00  0.00    +0.000 A 
ATOM     14  C   UNL     1       1.364   4.348  20.497  0.00  0.00    +0.000 A 
ATOM     15  C   UNL     1       1.400   3.254  21.359  0.00  0.00    +0.000 A 
ATOM     16  C   UNL     1       2.441   2.325  21.274  0.00  0.00    +0.000 A 
ATOM     17  C   UNL     1       3.541   2.575  20.454  0.00  0.00    +0.000 A 
ATOM     18  C   UNL     1       3.550   3.713  19.656  0.00  0.00    +0.000 A 
ATOM     19  C   UNL     1       4.706   4.095  18.772  0.00  0.00    +0.000 C 
ENDBRANCH   7   9
ENDBRANCH   1   7
BRANCH   4  20
ATOM     20  O   UNL     1       8.917   8.850  19.127  0.00  0.00    +0.000 OA
BRANCH  20  21
ATOM     21  C   UNL     1       8.842   9.992  18.264  0.00  0.00    +0.000 C 
BRANCH  21  22
ATOM     22  C   UNL     1       9.912  11.015  18.584  0.00  0.00    +0.000 A 
ATOM     23  C   UNL     1      10.615  11.700  17.586  0.00  0.00    +0.000 A 
ATOM     24  C   UNL     1      11.565  12.668  17.928  0.00  0.00    +0.000 A 
ATOM     25  C   UNL     1      11.813  12.971  19.268  0.00  0.00    +0.000 A 
ATOM     26  C   UNL     1      11.112  12.308  20.269  0.00  0.00    +0.000 A 
ATOM     27  C   UNL     1      10.165  11.342  19.932  0.00  0.00    +0.000 A 
ENDBRANCH  21  22
ENDBRANCH  20  21
ENDBRANCH   4  20
TORSDOF 5
ENDMDL
MODEL 2
REMARK VINA RESULT:      -9.1      4.576      8.254
REMARK  Name = 
REMARK  5 active torsions:
REMARK  status: ('A' for Active; 'I' for Inactive)
REMARK    1  A    between atoms: C_2  and  C_3
REMARK    2  A    between atoms: C_3  and  C_4
REMARK    3  A    between atoms: C_7  and  O_8
REMARK    4  A    between atoms: O_8  and  C_9
REMARK    5  A    between atoms: C_9  and  C_10
REMARK                            x       y       z     vdW  Elec       q    Type
REMARK                         _______ _______ _______ _____ _____    ______ ____
ROOT
ATOM      1  C   UNL     1       2.955   5.693  18.725  0.00  0.00    +0.000 A 
ATOM      2  C   UNL     1       3.016   6.835  17.921  0.00  0.00    +0.000 A 
ATOM      3  C   UNL     1       2.451   8.042  18.353  0.00  0.00    +0.000 A 
ATOM      4  C   UNL     1       1.779   8.113  19.576  0.00  0.00    +0.000 A 
ATOM      5  C   UNL     1       1.773   6.999  20.411  0.00  0.00    +0.000 A 
ATOM      6  C   UNL     1       2.347   5.796  19.987  0.00  0.00    +0.000 A 
ENDROOT
BRANCH   1   7
ATOM      7  C   UNL     1       3.416   4.332  18.250  0.00  0.00    +0.000 C 
BRANCH   7   9
ATOM      8  O   UNL     1       5.573   3.760  19.115  0.00  0.00    +0.000 OA
ATOM      9  C   UNL     1       4.917   4.096  18.125  0.00  0.00    +0.000 C 
ATOM     10  N   UNL     1       5.513   4.353  16.906  0.00  0.00    +0.000 N 
ATOM     11  C   UNL     1       6.983   4.417  16.796  0.00  0.00    +0.000 C 
ATOM     12  C   UNL     1       7.422   5.502  15.779  0.00  0.00    +0.000 C 
ATOM     13  C   UNL     1       6.864   5.083  14.435  0.00  0.00    +0.000 A 
ATOM     14  C   UNL     1       7.610   5.131  13.262  0.00  0.00    +0.000 A 
ATOM     15  C   UNL     1       7.255   4.290  12.210  0.00  0.00    +0.000 A 
ATOM     16  C   UNL     1       6.169   3.417  12.343  0.00  0.00    +0.000 A 
ATOM     17  C   UNL     1       5.329   3.504  13.451  0.00  0.00    +0.000 A 
ATOM     18  C   UNL     1       5.632   4.406  14.466  0.00  0.00    +0.000 A 
ATOM     19  C   UNL     1       4.767   4.608  15.679  0.00  0.00    +0.000 C 
ENDBRANCH   7   9
ENDBRANCH   1   7
BRANCH   4  20
ATOM     20  O   UNL     1       1.088   9.205  20.037  0.00  0.00    +0.000 OA
BRANCH  20  21
ATOM     21  C   UNL     1       1.044  10.321  19.138  0.00  0.00    +0.000 C 
BRANCH  21  22
ATOM     22  C   UNL     1      -0.366  10.620  18.675  0.00  0.00    +0.000 A 
ATOM     23  C   UNL     1      -0.974   9.919  17.627  0.00  0.00    +0.000 A 
ATOM     24  C   UNL     1      -2.295  10.200  17.261  0.00  0.00    +0.000 A 
ATOM     25  C   UNL     1      -3.024  11.175  17.945  0.00  0.00    +0.000 A 
ATOM     26  C   UNL     1      -2.437  11.869  18.996  0.00  0.00    +0.000 A 
ATOM     27  C   UNL     1      -1.121  11.591  19.363  0.00  0.00    +0.000 A 
ENDBRANCH  21  22
ENDBRANCH  20  21
ENDBRANCH   4  20
TORSDOF 5
ENDMDL
MODEL 3
REMARK VINA RESULT:      -9.0      4.533      8.170
REMARK  Name = 
REMARK  5 active torsions:
REMARK  status: ('A' for Active; 'I' for Inactive)
REMARK    1  A    between atoms: C_2  and  C_3
REMARK    2  A    between atoms: C_3  and  C_4
REMARK    3  A    between atoms: C_7  and  O_8
REMARK    4  A    between atoms: O_8  and  C_9
REMARK    5  A    between atoms: C_9  and  C_10
REMARK                            x       y       z     vdW  Elec       q    Type
REMARK                         _______ _______ _______ _____ _____    ______ ____
ROOT
ATOM      1  C   UNL     1       2.715   5.127  18.693  0.00  0.00    +0.000 A 
ATOM      2  C   UNL     1       2.018   5.075  19.904  0.00  0.00    +0.000 A 
ATOM      3  C   UNL     1       1.581   6.251  20.527  0.00  0.00    +0.000 A 
ATOM      4  C   UNL     1       1.872   7.499  19.970  0.00  0.00    +0.000 A 
ATOM      5  C   UNL     1       2.505   7.556  18.731  0.00  0.00    +0.000 A 
ATOM      6  C   UNL     1       2.932   6.383  18.101  0.00  0.00    +0.000 A 
ENDROOT
BRANCH   1   7
ATOM      7  C   UNL     1       3.337   3.906  18.053  0.00  0.00    +0.000 C 
BRANCH   7   9
ATOM      8  O   UNL     1       5.502   3.540  19.006  0.00  0.00    +0.000 OA
ATOM      9  C   UNL     1       4.859   3.834  17.994  0.00  0.00    +0.000 C 
ATOM     10  N   UNL     1       5.477   4.187  16.811  0.00  0.00    +0.000 N 
ATOM     11  C   UNL     1       6.935   4.410  16.772  0.00  0.00    +0.000 C 
ATOM     12  C   UNL     1       7.301   5.564  15.803  0.00  0.00    +0.000 C 
ATOM     13  C   UNL     1       6.851   5.128  14.425  0.00  0.00    +0.000 A 
ATOM     14  C   UNL     1       7.640   5.287  13.290  0.00  0.00    +0.000 A 
ATOM     15  C   UNL     1       7.424   4.444  12.203  0.00  0.00    +0.000 A 
ATOM     16  C   UNL     1       6.433   3.458  12.263  0.00  0.00    +0.000 A 
ATOM     17  C   UNL     1       5.540   3.424  13.332  0.00  0.00    +0.000 A 
ATOM     18  C   UNL     1       5.699   4.323  14.381  0.00  0.00    +0.000 A 
ATOM     19  C   UNL     1       4.764   4.397  15.557  0.00  0.00    +0.000 C 
ENDBRANCH   7   9
ENDBRANCH   1   7
BRANCH   4  20
ATOM     20  O   UNL     1       1.599   8.709  20.555  0.00  0.00    +0.000 OA
BRANCH  20  21
ATOM     21  C   UNL     1       0.831   8.642  21.763  0.00  0.00    +0.000 C 
BRANCH  21  22
ATOM     22  C   UNL     1      -0.123   9.810  21.895  0.00  0.00    +0.000 A 
ATOM     23  C   UNL     1      -0.714  10.160  23.115  0.00  0.00    +0.000 A 
ATOM     24  C   UNL     1      -1.556  11.274  23.199  0.00  0.00    +0.000 A 
ATOM     25  C   UNL     1      -1.805  12.057  22.070  0.00  0.00    +0.000 A 
ATOM     26  C   UNL     1      -1.214  11.729  20.856  0.00  0.00    +0.000 A 
ATOM     27  C   UNL     1      -0.375  10.619  20.768  0.00  0.00    +0.000 A 
ENDBRANCH  21  22
ENDBRANCH  20  21
ENDBRANCH   4  20
TORSDOF 5
ENDMDL
MODEL 4
REMARK VINA RESULT:      -8.8      5.465      8.078
REMARK  Name = 
REMARK  5 active torsions:
REMARK  status: ('A' for Active; 'I' for Inactive)
REMARK    1  A    between atoms: C_2  and  C_3
REMARK    2  A    between atoms: C_3  and  C_4
REMARK    3  A    between atoms: C_7  and  O_8
REMARK    4  A    between atoms: O_8  and  C_9
REMARK    5  A    between atoms: C_9  and  C_10
REMARK                            x       y       z     vdW  Elec       q    Type
REMARK                         _______ _______ _______ _____ _____    ______ ____
ROOT
ATOM      1  C   UNL     1       1.499   8.297  20.245  0.00  0.00    +0.000 A 
ATOM      2  C   UNL     1       1.785   6.966  20.561  0.00  0.00    +0.000 A 
ATOM      3  C   UNL     1       2.433   6.136  19.637  0.00  0.00    +0.000 A 
ATOM      4  C   UNL     1       2.767   6.614  18.367  0.00  0.00    +0.000 A 
ATOM      5  C   UNL     1       2.547   7.957  18.070  0.00  0.00    +0.000 A 
ATOM      6  C   UNL     1       1.910   8.790  18.995  0.00  0.00    +0.000 A 
ENDROOT
BRANCH   1   7
ATOM      7  C   UNL     1       0.673   9.193  21.143  0.00  0.00    +0.000 C 
BRANCH   7   9
ATOM      8  O   UNL     1       1.067  11.553  21.076  0.00  0.00    +0.000 OA
ATOM      9  C   UNL     1       0.388  10.610  20.659  0.00  0.00    +0.000 C 
ATOM     10  N   UNL     1      -0.693  10.802  19.821  0.00  0.00    +0.000 N 
ATOM     11  C   UNL     1      -1.189  12.164  19.548  0.00  0.00    +0.000 C 
ATOM     12  C   UNL     1      -2.734  12.184  19.420  0.00  0.00    +0.000 C 
ATOM     13  C   UNL     1      -3.080  11.307  18.236  0.00  0.00    +0.000 A 
ATOM     14  C   UNL     1      -4.013  11.676  17.273  0.00  0.00    +0.000 A 
ATOM     15  C   UNL     1      -3.917  11.118  16.000  0.00  0.00    +0.000 A 
ATOM     16  C   UNL     1      -2.896  10.208  15.707  0.00  0.00    +0.000 A 
ATOM     17  C   UNL     1      -2.078   9.717  16.724  0.00  0.00    +0.000 A 
ATOM     18  C   UNL     1      -2.229  10.209  18.016  0.00  0.00    +0.000 A 
ATOM     19  C   UNL     1      -1.429   9.713  19.189  0.00  0.00    +0.000 C 
ENDBRANCH   7   9
ENDBRANCH   1   7
BRANCH   4  20
ATOM     20  O   UNL     1       3.290   5.857  17.349  0.00  0.00    +0.000 OA
BRANCH  20  21
ATOM     21  C   UNL     1       4.300   4.921  17.745  0.00  0.00    +0.000 C 
BRANCH  21  22
ATOM     22  C   UNL     1       5.636   5.593  17.978  0.00  0.00    +0.000 A 
ATOM     23  C   UNL     1       6.115   6.613  17.147  0.00  0.00    +0.000 A 
ATOM     24  C   UNL     1       7.337   7.236  17.425  0.00  0.00    +0.000 A 
ATOM     25  C   UNL     1       8.085   6.856  18.541  0.00  0.00    +0.000 A 
ATOM     26  C   UNL     1       7.614   5.855  19.381  0.00  0.00    +0.000 A 
ATOM     27  C   UNL     1       6.398   5.231  19.107  0.00  0.00    +0.000 A 
ENDBRANCH  21  22
ENDBRANCH  20  21
ENDBRANCH   4  20
TORSDOF 5
ENDMDL
MODEL 5
REMARK VINA RESULT:      -8.7      4.607      8.330
REMARK  Name = 
REMARK  5 active torsions:
REMARK  status: ('A' for Active; 'I' for Inactive)
REMARK    1  A    between atoms: C_2  and  C_3
REMARK    2  A    between atoms: C_3  and  C_4
REMARK    3  A    between atoms: C_7  and  O_8
REMARK    4  A    between atoms: O_8  and  C_9
REMARK    5  A    between atoms: C_9  and  C_10
REMARK                            x       y       z     vdW  Elec       q    Type
REMARK                         _______ _______ _______ _____ _____    ______ ____
ROOT
ATOM      1  C   UNL     1       3.238   5.706  18.609  0.00  0.00    +0.000 A 
ATOM      2  C   UNL     1       3.365   6.788  17.732  0.00  0.00    +0.000 A 
ATOM      3  C   UNL     1       2.768   8.020  18.029  0.00  0.00    +0.000 A 
ATOM      4  C   UNL     1       2.001   8.176  19.186  0.00  0.00    +0.000 A 
ATOM      5  C   UNL     1       1.927   7.125  20.096  0.00  0.00    +0.000 A 
ATOM      6  C   UNL     1       2.531   5.898  19.808  0.00  0.00    +0.000 A 
ENDROOT
BRANCH   1   7
ATOM      7  C   UNL     1       3.734   4.317  18.272  0.00  0.00    +0.000 C 
BRANCH   7   9
ATOM      8  O   UNL     1       5.955   3.853  19.032  0.00  0.00    +0.000 OA
ATOM      9  C   UNL     1       5.233   4.129  18.070  0.00  0.00    +0.000 C 
ATOM     10  N   UNL     1       5.750   4.360  16.810  0.00  0.00    +0.000 N 
ATOM     11  C   UNL     1       7.208   4.472  16.614  0.00  0.00    +0.000 C 
ATOM     12  C   UNL     1       7.550   5.532  15.535  0.00  0.00    +0.000 C 
ATOM     13  C   UNL     1       6.933   5.044  14.242  0.00  0.00    +0.000 A 
ATOM     14  C   UNL     1       7.610   5.073  13.027  0.00  0.00    +0.000 A 
ATOM     15  C   UNL     1       7.228   4.182  12.028  0.00  0.00    +0.000 A 
ATOM     16  C   UNL     1       6.185   3.278  12.253  0.00  0.00    +0.000 A 
ATOM     17  C   UNL     1       5.405   3.377  13.404  0.00  0.00    +0.000 A 
ATOM     18  C   UNL     1       5.730   4.326  14.367  0.00  0.00    +0.000 A 
ATOM     19  C   UNL     1       4.927   4.543  15.620  0.00  0.00    +0.000 C 
ENDBRANCH   7   9
ENDBRANCH   1   7
BRANCH   4  20
ATOM     20  O   UNL     1       1.277   9.296  19.509  0.00  0.00    +0.000 OA
BRANCH  20  21
ATOM     21  C   UNL     1       0.855  10.091  18.394  0.00  0.00    +0.000 C 
BRANCH  21  22
ATOM     22  C   UNL     1      -0.567  10.584  18.555  0.00  0.00    +0.000 A 
ATOM     23  C   UNL     1      -0.925  11.533  19.520  0.00  0.00    +0.000 A 
ATOM     24  C   UNL     1      -2.244  11.992  19.606  0.00  0.00    +0.000 A 
ATOM     25  C   UNL     1      -3.215  11.518  18.721  0.00  0.00    +0.000 A 
ATOM     26  C   UNL     1      -2.870  10.586  17.750  0.00  0.00    +0.000 A 
ATOM     27  C   UNL     1      -1.557  10.126  17.662  0.00  0.00    +0.000 A 
ENDBRANCH  21  22
ENDBRANCH  20  21
ENDBRANCH   4  20
TORSDOF 5
ENDMDL
MODEL 6
REMARK VINA RESULT:      -8.7      2.037      9.387
REMARK  Name = 
REMARK  5 active torsions:
REMARK  status: ('A' for Active; 'I' for Inactive)
REMARK    1  A    between atoms: C_2  and  C_3
REMARK    2  A    between atoms: C_3  and  C_4
REMARK    3  A    between atoms: C_7  and  O_8
REMARK    4  A    between atoms: O_8  and  C_9
REMARK    5  A    between atoms: C_9  and  C_10
REMARK                            x       y       z     vdW  Elec       q    Type
REMARK                         _______ _______ _______ _____ _____    ______ ____
ROOT
ATOM      1  C   UNL     1       7.566   6.498  18.342  0.00  0.00    +0.000 A 
ATOM      2  C   UNL     1       6.953   5.708  19.319  0.00  0.00    +0.000 A 
ATOM      3  C   UNL     1       6.033   4.714  18.960  0.00  0.00    +0.000 A 
ATOM      4  C   UNL     1       5.682   4.523  17.621  0.00  0.00    +0.000 A 
ATOM      5  C   UNL     1       6.339   5.258  16.637  0.00  0.00    +0.000 A 
ATOM      6  C   UNL     1       7.266   6.243  16.993  0.00  0.00    +0.000 A 
ENDROOT
BRANCH   1   7
ATOM      7  C   UNL     1       8.450   7.678  18.679  0.00  0.00    +0.000 C 
BRANCH   7   9
ATOM      8  O   UNL     1       7.351   9.066  17.069  0.00  0.00    +0.000 OA
ATOM      9  C   UNL     1       8.116   9.020  18.036  0.00  0.00    +0.000 C 
ATOM     10  N   UNL     1       8.758  10.144  18.516  0.00  0.00    +0.000 N 
ATOM     11  C   UNL     1       8.696  11.413  17.765  0.00  0.00    +0.000 C 
ATOM     12  C   UNL     1      10.034  12.190  17.864  0.00  0.00    +0.000 C 
ATOM     13  C   UNL     1      10.235  12.515  19.329  0.00  0.00    +0.000 A 
ATOM     14  C   UNL     1      10.650  13.767  19.771  0.00  0.00    +0.000 A 
ATOM     15  C   UNL     1      10.329  14.156  21.069  0.00  0.00    +0.000 A 
ATOM     16  C   UNL     1       9.601  13.300  21.901  0.00  0.00    +0.000 A 
ATOM     17  C   UNL     1       9.343  11.988  21.507  0.00  0.00    +0.000 A 
ATOM     18  C   UNL     1       9.740  11.567  20.243  0.00  0.00    +0.000 A 
ATOM     19  C   UNL     1       9.550  10.162  19.740  0.00  0.00    +0.000 C 
ENDBRANCH   7   9
ENDBRANCH   1   7
BRANCH   4  20
ATOM     20  O   UNL     1       4.709   3.666  17.173  0.00  0.00    +0.000 OA
BRANCH  20  21
ATOM     21  C   UNL     1       3.409   4.250  17.016  0.00  0.00    +0.000 C 
BRANCH  21  22
ATOM     22  C   UNL     1       2.522   3.986  18.214  0.00  0.00    +0.000 A 
ATOM     23  C   UNL     1       1.916   2.744  18.438  0.00  0.00    +0.000 A 
ATOM     24  C   UNL     1       1.137   2.533  19.581  0.00  0.00    +0.000 A 
ATOM     25  C   UNL     1       0.968   3.554  20.518  0.00  0.00    +0.000 A 
ATOM     26  C   UNL     1       1.575   4.787  20.315  0.00  0.00    +0.000 A 
ATOM     27  C   UNL     1       2.350   5.002  19.176  0.00  0.00    +0.000 A 
ENDBRANCH  21  22
ENDBRANCH  20  21
ENDBRANCH   4  20
TORSDOF 5
ENDMDL
MODEL 7
REMARK VINA RESULT:      -8.7      5.189      8.632
REMARK  Name = 
REMARK  5 active torsions:
REMARK  status: ('A' for Active; 'I' for Inactive)
REMARK    1  A    between atoms: C_2  and  C_3
REMARK    2  A    between atoms: C_3  and  C_4
REMARK    3  A    between atoms: C_7  and  O_8
REMARK    4  A    between atoms: O_8  and  C_9
REMARK    5  A    between atoms: C_9  and  C_10
REMARK                            x       y       z     vdW  Elec       q    Type
REMARK                         _______ _______ _______ _____ _____    ______ ____
ROOT
ATOM      1  C   UNL     1       1.723   7.171  20.535  0.00  0.00    +0.000 A 
ATOM      2  C   UNL     1       1.987   7.861  19.348  0.00  0.00    +0.000 A 
ATOM      3  C   UNL     1       1.491   9.156  19.151  0.00  0.00    +0.000 A 
ATOM      4  C   UNL     1       0.690   9.765  20.121  0.00  0.00    +0.000 A 
ATOM      5  C   UNL     1       0.480   9.111  21.333  0.00  0.00    +0.000 A 
ATOM      6  C   UNL     1       0.983   7.823  21.536  0.00  0.00    +0.000 A 
ENDROOT
BRANCH   1   7
ATOM      7  C   UNL     1       2.105   5.722  20.742  0.00  0.00    +0.000 C 
BRANCH   7   9
ATOM      8  O   UNL     1       0.755   4.121  19.583  0.00  0.00    +0.000 OA
ATOM      9  C   UNL     1       1.820   4.745  19.607  0.00  0.00    +0.000 C 
ATOM     10  N   UNL     1       2.816   4.528  18.675  0.00  0.00    +0.000 N 
ATOM     11  C   UNL     1       2.714   3.402  17.727  0.00  0.00    +0.000 C 
ATOM     12  C   UNL     1       4.105   2.775  17.448  0.00  0.00    +0.000 C 
ATOM     13  C   UNL     1       4.945   3.860  16.808  0.00  0.00    +0.000 A 
ATOM     14  C   UNL     1       5.749   3.631  15.697  0.00  0.00    +0.000 A 
ATOM     15  C   UNL     1       6.070   4.706  14.871  0.00  0.00    +0.000 A 
ATOM     16  C   UNL     1       5.584   5.985  15.161  0.00  0.00    +0.000 A 
ATOM     17  C   UNL     1       4.927   6.231  16.366  0.00  0.00    +0.000 A 
ATOM     18  C   UNL     1       4.682   5.174  17.235  0.00  0.00    +0.000 A 
ATOM     19  C   UNL     1       4.022   5.341  18.576  0.00  0.00    +0.000 C 
ENDBRANCH   7   9
ENDBRANCH   1   7
BRANCH   4  20
ATOM     20  O   UNL     1       0.057  10.973  19.978  0.00  0.00    +0.000 OA
BRANCH  20  21
ATOM     21  C   UNL     1      -0.148  11.397  18.625  0.00  0.00    +0.000 C 
BRANCH  21  22
ATOM     22  C   UNL     1      -1.541  11.066  18.132  0.00  0.00    +0.000 A 
ATOM     23  C   UNL     1      -1.790  10.009  17.248  0.00  0.00    +0.000 A 
ATOM     24  C   UNL     1      -3.098   9.711  16.852  0.00  0.00    +0.000 A 
ATOM     25  C   UNL     1      -4.171  10.457  17.344  0.00  0.00    +0.000 A 
ATOM     26  C   UNL     1      -3.939  11.501  18.232  0.00  0.00    +0.000 A 
ATOM     27  C   UNL     1      -2.636  11.800  18.628  0.00  0.00    +0.000 A 
ENDBRANCH  21  22
ENDBRANCH  20  21
ENDBRANCH   4  20
TORSDOF 5
ENDMDL
MODEL 8
REMARK VINA RESULT:      -8.7      4.522      7.819
REMARK  Name = 
REMARK  5 active torsions:
REMARK  status: ('A' for Active; 'I' for Inactive)
REMARK    1  A    between atoms: C_2  and  C_3
REMARK    2  A    between atoms: C_3  and  C_4
REMARK    3  A    between atoms: C_7  and  O_8
REMARK    4  A    between atoms: O_8  and  C_9
REMARK    5  A    between atoms: C_9  and  C_10
REMARK                            x       y       z     vdW  Elec       q    Type
REMARK                         _______ _______ _______ _____ _____    ______ ____
ROOT
ATOM      1  C   UNL     1       2.607   5.096  18.817  0.00  0.00    +0.000 A 
ATOM      2  C   UNL     1       1.890   4.947  20.008  0.00  0.00    +0.000 A 
ATOM      3  C   UNL     1       1.465   6.069  20.730  0.00  0.00    +0.000 A 
ATOM      4  C   UNL     1       1.786   7.358  20.293  0.00  0.00    +0.000 A 
ATOM      5  C   UNL     1       2.439   7.516  19.074  0.00  0.00    +0.000 A 
ATOM      6  C   UNL     1       2.855   6.397  18.346  0.00  0.00    +0.000 A 
ENDROOT
BRANCH   1   7
ATOM      7  C   UNL     1       3.217   3.927  18.076  0.00  0.00    +0.000 C 
BRANCH   7   9
ATOM      8  O   UNL     1       5.356   3.501  19.062  0.00  0.00    +0.000 OA
ATOM      9  C   UNL     1       4.738   3.824  18.044  0.00  0.00    +0.000 C 
ATOM     10  N   UNL     1       5.386   4.183  16.878  0.00  0.00    +0.000 N 
ATOM     11  C   UNL     1       6.849   4.376  16.870  0.00  0.00    +0.000 C 
ATOM     12  C   UNL     1       7.257   5.537  15.927  0.00  0.00    +0.000 C 
ATOM     13  C   UNL     1       6.824   5.132  14.534  0.00  0.00    +0.000 A 
ATOM     14  C   UNL     1       7.637   5.293  13.417  0.00  0.00    +0.000 A 
ATOM     15  C   UNL     1       7.423   4.472  12.312  0.00  0.00    +0.000 A 
ATOM     16  C   UNL     1       6.412   3.507  12.337  0.00  0.00    +0.000 A 
ATOM     17  C   UNL     1       5.498   3.474  13.389  0.00  0.00    +0.000 A 
ATOM     18  C   UNL     1       5.655   4.352  14.455  0.00  0.00    +0.000 A 
ATOM     19  C   UNL     1       4.700   4.427  15.615  0.00  0.00    +0.000 C 
ENDBRANCH   7   9
ENDBRANCH   1   7
BRANCH   4  20
ATOM     20  O   UNL     1       1.526   8.514  20.983  0.00  0.00    +0.000 OA
BRANCH  20  21
ATOM     21  C   UNL     1       0.148   8.909  21.011  0.00  0.00    +0.000 C 
BRANCH  21  22
ATOM     22  C   UNL     1      -0.082  10.215  20.280  0.00  0.00    +0.000 A 
ATOM     23  C   UNL     1       0.407  11.437  20.758  0.00  0.00    +0.000 A 
ATOM     24  C   UNL     1       0.207  12.613  20.028  0.00  0.00    +0.000 A 
ATOM     25  C   UNL     1      -0.470  12.579  18.807  0.00  0.00    +0.000 A 
ATOM     26  C   UNL     1      -0.948  11.371  18.314  0.00  0.00    +0.000 A 
ATOM     27  C   UNL     1      -0.752  10.197  19.040  0.00  0.00    +0.000 A 
ENDBRANCH  21  22
ENDBRANCH  20  21
ENDBRANCH   4  20
TORSDOF 5
ENDMDL
MODEL 9
REMARK VINA RESULT:      -8.6      1.129      1.613
REMARK  Name = 
REMARK  5 active torsions:
REMARK  status: ('A' for Active; 'I' for Inactive)
REMARK    1  A    between atoms: C_2  and  C_3
REMARK    2  A    between atoms: C_3  and  C_4
REMARK    3  A    between atoms: C_7  and  O_8
REMARK    4  A    between atoms: O_8  and  C_9
REMARK    5  A    between atoms: C_9  and  C_10
REMARK                            x       y       z     vdW  Elec       q    Type
REMARK                         _______ _______ _______ _____ _____    ______ ____
ROOT
ATOM      1  C   UNL     1       6.541   6.517  16.855  0.00  0.00    +0.000 A 
ATOM      2  C   UNL     1       7.434   6.024  17.812  0.00  0.00    +0.000 A 
ATOM      3  C   UNL     1       8.223   6.900  18.569  0.00  0.00    +0.000 A 
ATOM      4  C   UNL     1       8.161   8.280  18.351  0.00  0.00    +0.000 A 
ATOM      5  C   UNL     1       7.225   8.781  17.450  0.00  0.00    +0.000 A 
ATOM      6  C   UNL     1       6.429   7.909  16.701  0.00  0.00    +0.000 A 
ENDROOT
BRANCH   1   7
ATOM      7  C   UNL     1       5.776   5.617  15.910  0.00  0.00    +0.000 C 
BRANCH   7   9
ATOM      8  O   UNL     1       6.237   3.269  15.939  0.00  0.00    +0.000 OA
ATOM      9  C   UNL     1       5.517   4.181  16.353  0.00  0.00    +0.000 C 
ATOM     10  N   UNL     1       4.415   3.939  17.150  0.00  0.00    +0.000 N 
ATOM     11  C   UNL     1       3.952   2.557  17.377  0.00  0.00    +0.000 C 
ATOM     12  C   UNL     1       2.404   2.489  17.452  0.00  0.00    +0.000 C 
ATOM     13  C   UNL     1       1.994   3.329  18.643  0.00  0.00    +0.000 A 
ATOM     14  C   UNL     1       1.041   2.911  19.565  0.00  0.00    +0.000 A 
ATOM     15  C   UNL     1       1.078   3.443  20.852  0.00  0.00    +0.000 A 
ATOM     16  C   UNL     1       2.061   4.376  21.199  0.00  0.00    +0.000 A 
ATOM     17  C   UNL     1       2.897   4.913  20.221  0.00  0.00    +0.000 A 
ATOM     18  C   UNL     1       2.803   4.447  18.915  0.00  0.00    +0.000 A 
ATOM     19  C   UNL     1       3.627   4.991  17.781  0.00  0.00    +0.000 C 
ENDBRANCH   7   9
ENDBRANCH   1   7
BRANCH   4  20
ATOM     20  O   UNL     1       8.972   9.211  18.947  0.00  0.00    +0.000 OA
BRANCH  20  21
ATOM     21  C   UNL     1       8.722  10.570  18.565  0.00  0.00    +0.000 C 
BRANCH  21  22
ATOM     22  C   UNL     1       9.972  11.420  18.643  0.00  0.00    +0.000 A 
ATOM     23  C   UNL     1      11.012  11.142  19.539  0.00  0.00    +0.000 A 
ATOM     24  C   UNL     1      12.168  11.929  19.547  0.00  0.00    +0.000 A 
ATOM     25  C   UNL     1      12.304  12.992  18.652  0.00  0.00    +0.000 A 
ATOM     26  C   UNL     1      11.286  13.271  17.748  0.00  0.00    +0.000 A 
ATOM     27  C   UNL     1      10.131  12.489  17.738  0.00  0.00    +0.000 A 
ENDBRANCH  21  22
ENDBRANCH  20  21
ENDBRANCH   4  20
TORSDOF 5
ENDMDL
