MODEL 1
REMARK VINA RESULT:      -7.6      0.000      0.000
REMARK  Name = 
REMARK  6 active torsions:
REMARK  status: ('A' for Active; 'I' for Inactive)
REMARK    1  A    between atoms: C_1  and  C_2
REMARK    2  A    between atoms: C_2  and  C_3
REMARK    3  A    between atoms: C_3  and  C_4
REMARK    4  A    between atoms: C_4  and  N_5
REMARK    5  A    between atoms: C_6  and  C_7
REMARK    6  A    between atoms: C_10  and  N_11
REMARK                            x       y       z     vdW  Elec       q    Type
REMARK                         _______ _______ _______ _____ _____    ______ ____
ROOT
ATOM      1  N   UNL     1       3.967   4.855  18.557  0.00  0.00    +0.000 N 
ATOM      2  C   UNL     1       4.299   3.939  17.537  0.00  0.00    +0.000 A 
ATOM      3  C   UNL     1       3.525   2.824  17.800  0.00  0.00    +0.000 A 
ATOM      4  N   UNL     1       2.870   3.036  18.996  0.00  0.00    +0.000 N 
ATOM      5  C   UNL     1       2.048   2.171  19.673  0.00  0.00    +0.000 A 
ATOM      6  C   UNL     1       1.526   2.607  20.824  0.00  0.00    +0.000 A 
ATOM      7  C   UNL     1       1.881   3.983  21.246  0.00  0.00    +0.000 A 
ATOM      8  N   UNL     1       2.651   4.806  20.611  0.00  0.00    +0.000 NA
ATOM      9  C   UNL     1       3.156   4.263  19.436  0.00  0.00    +0.000 A 
ENDROOT
BRANCH   2  10
ATOM     10  C   UNL     1       5.225   4.143  16.374  0.00  0.00    +0.000 A 
ATOM     11  C   UNL     1       6.552   4.519  16.608  0.00  0.00    +0.000 A 
ATOM     12  C   UNL     1       7.397   4.847  15.547  0.00  0.00    +0.000 A 
ATOM     13  C   UNL     1       6.915   4.776  14.236  0.00  0.00    +0.000 A 
ATOM     14  C   UNL     1       5.603   4.349  13.987  0.00  0.00    +0.000 A 
ATOM     15  C   UNL     1       4.759   4.020  15.058  0.00  0.00    +0.000 A 
BRANCH  13  16
ATOM     16  N   UNL     1       7.791   5.159  13.120  0.00  0.00    +0.000 N 
ATOM     17  O   UNL     1       7.548   4.669  12.009  0.00  0.00    +0.000 OA
ATOM     18  O   UNL     1       8.715   5.942  13.364  0.00  0.00    +0.000 OA
ENDBRANCH  13  16
ENDBRANCH   2  10
BRANCH   1  19
ATOM     19  C   UNL     1       4.287   6.288  18.625  0.00  0.00    +0.000 C 
BRANCH  19  20
ATOM     20  C   UNL     1       3.384   7.107  17.703  0.00  0.00    +0.000 C 
BRANCH  20  22
ATOM     21  C   UNL     1       2.009   9.199  17.813  0.00  0.00    +0.000 C 
ATOM     22  C   UNL     1       2.310   7.863  18.475  0.00  0.00    +0.000 C 
ENDBRANCH  20  22
ENDBRANCH  19  20
ENDBRANCH   1  19
TORSDOF 5
ENDMDL
MODEL 2
REMARK VINA RESULT:      -7.4      3.871      6.860
REMARK  Name = 
REMARK  6 active torsions:
REMARK  status: ('A' for Active; 'I' for Inactive)
REMARK    1  A    between atoms: C_1  and  C_2
REMARK    2  A    between atoms: C_2  and  C_3
REMARK    3  A    between atoms: C_3  and  C_4
REMARK    4  A    between atoms: C_4  and  N_5
REMARK    5  A    between atoms: C_6  and  C_7
REMARK    6  A    between atoms: C_10  and  N_11
REMARK                            x       y       z     vdW  Elec       q    Type
REMARK                         _______ _______ _______ _____ _____    ______ ____
ROOT
ATOM      1  N   UNL     1       6.569   4.862  16.186  0.00  0.00    +0.000 N 
ATOM      2  C   UNL     1       5.402   4.097  16.386  0.00  0.00    +0.000 A 
ATOM      3  C   UNL     1       5.158   3.501  15.162  0.00  0.00    +0.000 A 
ATOM      4  N   UNL     1       6.071   4.003  14.258  0.00  0.00    +0.000 N 
ATOM      5  C   UNL     1       6.160   3.741  12.914  0.00  0.00    +0.000 A 
ATOM      6  C   UNL     1       7.139   4.354  12.240  0.00  0.00    +0.000 A 
ATOM      7  C   UNL     1       8.033   5.246  13.015  0.00  0.00    +0.000 A 
ATOM      8  N   UNL     1       7.960   5.493  14.283  0.00  0.00    +0.000 NA
ATOM      9  C   UNL     1       6.907   4.825  14.896  0.00  0.00    +0.000 A 
ENDROOT
BRANCH   2  10
ATOM     10  C   UNL     1       4.628   3.901  17.656  0.00  0.00    +0.000 A 
ATOM     11  C   UNL     1       4.036   2.660  17.917  0.00  0.00    +0.000 A 
ATOM     12  C   UNL     1       3.199   2.489  19.020  0.00  0.00    +0.000 A 
ATOM     13  C   UNL     1       2.970   3.564  19.885  0.00  0.00    +0.000 A 
ATOM     14  C   UNL     1       3.600   4.797  19.662  0.00  0.00    +0.000 A 
ATOM     15  C   UNL     1       4.441   4.962  18.552  0.00  0.00    +0.000 A 
BRANCH  13  16
ATOM     16  N   UNL     1       2.058   3.397  21.024  0.00  0.00    +0.000 N 
ATOM     17  O   UNL     1       0.872   3.710  20.857  0.00  0.00    +0.000 OA
ATOM     18  O   UNL     1       2.535   2.958  22.076  0.00  0.00    +0.000 OA
ENDBRANCH  13  16
ENDBRANCH   2  10
BRANCH   1  19
ATOM     19  C   UNL     1       7.424   5.491  17.204  0.00  0.00    +0.000 C 
BRANCH  19  20
ATOM     20  C   UNL     1       7.190   7.000  17.276  0.00  0.00    +0.000 C 
BRANCH  20  22
ATOM     21  C   UNL     1       8.208   9.178  17.983  0.00  0.00    +0.000 C 
ATOM     22  C   UNL     1       8.145   7.682  18.249  0.00  0.00    +0.000 C 
ENDBRANCH  20  22
ENDBRANCH  19  20
ENDBRANCH   1  19
TORSDOF 5
ENDMDL
MODEL 3
REMARK VINA RESULT:      -7.4      4.364      7.307
REMARK  Name = 
REMARK  6 active torsions:
REMARK  status: ('A' for Active; 'I' for Inactive)
REMARK    1  A    between atoms: C_1  and  C_2
REMARK    2  A    between atoms: C_2  and  C_3
REMARK    3  A    between atoms: C_3  and  C_4
REMARK    4  A    between atoms: C_4  and  N_5
REMARK    5  A    between atoms: C_6  and  C_7
REMARK    6  A    between atoms: C_10  and  N_11
REMARK                            x       y       z     vdW  Elec       q    Type
REMARK                         _______ _______ _______ _____ _____    ______ ____
ROOT
ATOM      1  N   UNL     1       3.180   5.370  17.688  0.00  0.00    +0.000 N 
ATOM      2  C   UNL     1       3.318   6.745  17.969  0.00  0.00    +0.000 A 
ATOM      3  C   UNL     1       4.488   7.118  17.332  0.00  0.00    +0.000 A 
ATOM      4  N   UNL     1       5.069   5.980  16.813  0.00  0.00    +0.000 N 
ATOM      5  C   UNL     1       6.270   5.868  16.158  0.00  0.00    +0.000 A 
ATOM      6  C   UNL     1       6.624   4.647  15.746  0.00  0.00    +0.000 A 
ATOM      7  C   UNL     1       5.680   3.541  16.030  0.00  0.00    +0.000 A 
ATOM      8  N   UNL     1       4.545   3.638  16.642  0.00  0.00    +0.000 NA
ATOM      9  C   UNL     1       4.267   4.938  17.045  0.00  0.00    +0.000 A 
ENDROOT
BRANCH   2  10
ATOM     10  C   UNL     1       2.376   7.635  18.724  0.00  0.00    +0.000 A 
ATOM     11  C   UNL     1       1.820   8.749  18.085  0.00  0.00    +0.000 A 
ATOM     12  C   UNL     1       1.051   9.670  18.798  0.00  0.00    +0.000 A 
ATOM     13  C   UNL     1       0.817   9.462  20.161  0.00  0.00    +0.000 A 
ATOM     14  C   UNL     1       1.327   8.322  20.800  0.00  0.00    +0.000 A 
ATOM     15  C   UNL     1       2.098   7.400  20.077  0.00  0.00    +0.000 A 
BRANCH  13  16
ATOM     16  N   UNL     1       0.042  10.450  20.923  0.00  0.00    +0.000 N 
ATOM     17  O   UNL     1      -0.941  10.958  20.366  0.00  0.00    +0.000 OA
ATOM     18  O   UNL     1       0.424  10.714  22.068  0.00  0.00    +0.000 OA
ENDBRANCH  13  16
ENDBRANCH   2  10
BRANCH   1  19
ATOM     19  C   UNL     1       1.998   4.520  17.888  0.00  0.00    +0.000 C 
BRANCH  19  20
ATOM     20  C   UNL     1       2.167   3.604  19.100  0.00  0.00    +0.000 C 
BRANCH  20  22
ATOM     21  C   UNL     1       1.279   2.905  21.337  0.00  0.00    +0.000 C 
ATOM     22  C   UNL     1       1.074   3.822  20.141  0.00  0.00    +0.000 C 
ENDBRANCH  20  22
ENDBRANCH  19  20
ENDBRANCH   1  19
TORSDOF 5
ENDMDL
MODEL 4
REMARK VINA RESULT:      -7.3      1.851      2.422
REMARK  Name = 
REMARK  6 active torsions:
REMARK  status: ('A' for Active; 'I' for Inactive)
REMARK    1  A    between atoms: C_1  and  C_2
REMARK    2  A    between atoms: C_2  and  C_3
REMARK    3  A    between atoms: C_3  and  C_4
REMARK    4  A    between atoms: C_4  and  N_5
REMARK    5  A    between atoms: C_6  and  C_7
REMARK    6  A    between atoms: C_10  and  N_11
REMARK                            x       y       z     vdW  Elec       q    Type
REMARK                         _______ _______ _______ _____ _____    ______ ____
ROOT
ATOM      1  N   UNL     1       4.414   3.833  18.758  0.00  0.00    +0.000 N 
ATOM      2  C   UNL     1       4.015   4.066  17.426  0.00  0.00    +0.000 A 
ATOM      3  C   UNL     1       2.633   4.008  17.457  0.00  0.00    +0.000 A 
ATOM      4  N   UNL     1       2.254   3.631  18.728  0.00  0.00    +0.000 N 
ATOM      5  C   UNL     1       0.987   3.387  19.195  0.00  0.00    +0.000 A 
ATOM      6  C   UNL     1       0.871   3.029  20.477  0.00  0.00    +0.000 A 
ATOM      7  C   UNL     1       2.122   2.941  21.267  0.00  0.00    +0.000 A 
ATOM      8  N   UNL     1       3.319   3.173  20.837  0.00  0.00    +0.000 NA
ATOM      9  C   UNL     1       3.343   3.525  19.493  0.00  0.00    +0.000 A 
ENDROOT
BRANCH   2  10
ATOM     10  C   UNL     1       4.880   4.382  16.241  0.00  0.00    +0.000 A 
ATOM     11  C   UNL     1       5.498   3.339  15.542  0.00  0.00    +0.000 A 
ATOM     12  C   UNL     1       6.414   3.609  14.524  0.00  0.00    +0.000 A 
ATOM     13  C   UNL     1       6.696   4.937  14.187  0.00  0.00    +0.000 A 
ATOM     14  C   UNL     1       6.043   5.988  14.846  0.00  0.00    +0.000 A 
ATOM     15  C   UNL     1       5.123   5.710  15.867  0.00  0.00    +0.000 A 
BRANCH  13  16
ATOM     16  N   UNL     1       7.689   5.223  13.143  0.00  0.00    +0.000 N 
ATOM     17  O   UNL     1       8.651   5.940  13.450  0.00  0.00    +0.000 OA
ATOM     18  O   UNL     1       7.497   4.734  12.024  0.00  0.00    +0.000 OA
ENDBRANCH  13  16
ENDBRANCH   2  10
BRANCH   1  19
ATOM     19  C   UNL     1       5.742   4.038  19.354  0.00  0.00    +0.000 C 
BRANCH  19  20
ATOM     20  C   UNL     1       6.152   5.510  19.313  0.00  0.00    +0.000 C 
BRANCH  20  22
ATOM     21  C   UNL     1       7.774   6.966  18.076  0.00  0.00    +0.000 C 
ATOM     22  C   UNL     1       7.604   5.689  18.884  0.00  0.00    +0.000 C 
ENDBRANCH  20  22
ENDBRANCH  19  20
ENDBRANCH   1  19
TORSDOF 5
ENDMDL
MODEL 5
REMARK VINA RESULT:      -7.3      3.852      6.805
REMARK  Name = 
REMARK  6 active torsions:
REMARK  status: ('A' for Active; 'I' for Inactive)
REMARK    1  A    between atoms: C_1  and  C_2
REMARK    2  A    between atoms: C_2  and  C_3
REMARK    3  A    between atoms: C_3  and  C_4
REMARK    4  A    between atoms: C_4  and  N_5
REMARK    5  A    between atoms: C_6  and  C_7
REMARK    6  A    between atoms: C_10  and  N_11
REMARK                            x       y       z     vdW  Elec       q    Type
REMARK                         _______ _______ _______ _____ _____    ______ ____
ROOT
ATOM      1  N   UNL     1       6.414   4.809  16.112  0.00  0.00    +0.000 N 
ATOM      2  C   UNL     1       5.235   4.041  16.197  0.00  0.00    +0.000 A 
ATOM      3  C   UNL     1       5.078   3.497  14.935  0.00  0.00    +0.000 A 
ATOM      4  N   UNL     1       6.054   4.031  14.119  0.00  0.00    +0.000 N 
ATOM      5  C   UNL     1       6.238   3.824  12.776  0.00  0.00    +0.000 A 
ATOM      6  C   UNL     1       7.263   4.459  12.199  0.00  0.00    +0.000 A 
ATOM      7  C   UNL     1       8.101   5.315  13.072  0.00  0.00    +0.000 A 
ATOM      8  N   UNL     1       7.937   5.511  14.340  0.00  0.00    +0.000 NA
ATOM      9  C   UNL     1       6.843   4.823  14.848  0.00  0.00    +0.000 A 
ENDROOT
BRANCH   2  10
ATOM     10  C   UNL     1       4.372   3.797  17.400  0.00  0.00    +0.000 A 
ATOM     11  C   UNL     1       4.249   4.795  18.374  0.00  0.00    +0.000 A 
ATOM     12  C   UNL     1       3.567   4.547  19.566  0.00  0.00    +0.000 A 
ATOM     13  C   UNL     1       2.981   3.294  19.775  0.00  0.00    +0.000 A 
ATOM     14  C   UNL     1       3.053   2.305  18.784  0.00  0.00    +0.000 A 
ATOM     15  C   UNL     1       3.740   2.561  17.589  0.00  0.00    +0.000 A 
BRANCH  13  16
ATOM     16  N   UNL     1       2.297   3.018  21.045  0.00  0.00    +0.000 N 
ATOM     17  O   UNL     1       1.096   3.309  21.123  0.00  0.00    +0.000 OA
ATOM     18  O   UNL     1       2.966   2.518  21.956  0.00  0.00    +0.000 OA
ENDBRANCH  13  16
ENDBRANCH   2  10
BRANCH   1  19
ATOM     19  C   UNL     1       7.196   5.392  17.212  0.00  0.00    +0.000 C 
BRANCH  19  20
ATOM     20  C   UNL     1       6.950   6.895  17.337  0.00  0.00    +0.000 C 
BRANCH  20  22
ATOM     21  C   UNL     1       8.058   9.084  17.850  0.00  0.00    +0.000 C 
ATOM     22  C   UNL     1       8.046   7.591  18.137  0.00  0.00    +0.000 C 
ENDBRANCH  20  22
ENDBRANCH  19  20
ENDBRANCH   1  19
TORSDOF 5
ENDMDL
MODEL 6
REMARK VINA RESULT:      -7.2      3.740      6.907
REMARK  Name = 
REMARK  6 active torsions:
REMARK  status: ('A' for Active; 'I' for Inactive)
REMARK    1  A    between atoms: C_1  and  C_2
REMARK    2  A    between atoms: C_2  and  C_3
REMARK    3  A    between atoms: C_3  and  C_4
REMARK    4  A    between atoms: C_4  and  N_5
REMARK    5  A    between atoms: C_6  and  C_7
REMARK    6  A    between atoms: C_10  and  N_11
REMARK                            x       y       z     vdW  Elec       q    Type
REMARK                         _______ _______ _______ _____ _____    ______ ____
ROOT
ATOM      1  N   UNL     1       6.265   5.027  15.717  0.00  0.00    +0.000 N 
ATOM      2  C   UNL     1       5.133   4.207  15.902  0.00  0.00    +0.000 A 
ATOM      3  C   UNL     1       5.040   3.467  14.737  0.00  0.00    +0.000 A 
ATOM      4  N   UNL     1       6.001   3.932  13.863  0.00  0.00    +0.000 N 
ATOM      5  C   UNL     1       6.231   3.534  12.570  0.00  0.00    +0.000 A 
ATOM      6  C   UNL     1       7.229   4.139  11.918  0.00  0.00    +0.000 A 
ATOM      7  C   UNL     1       7.991   5.170  12.661  0.00  0.00    +0.000 A 
ATOM      8  N   UNL     1       7.785   5.546  13.881  0.00  0.00    +0.000 NA
ATOM      9  C   UNL     1       6.723   4.875  14.473  0.00  0.00    +0.000 A 
ENDROOT
BRANCH   2  10
ATOM     10  C   UNL     1       4.257   4.095  17.116  0.00  0.00    +0.000 A 
ATOM     11  C   UNL     1       4.101   2.851  17.739  0.00  0.00    +0.000 A 
ATOM     12  C   UNL     1       3.189   2.688  18.782  0.00  0.00    +0.000 A 
ATOM     13  C   UNL     1       2.443   3.785  19.223  0.00  0.00    +0.000 A 
ATOM     14  C   UNL     1       2.631   5.048  18.641  0.00  0.00    +0.000 A 
ATOM     15  C   UNL     1       3.549   5.205  17.593  0.00  0.00    +0.000 A 
BRANCH  13  16
ATOM     16  N   UNL     1       1.455   3.607  20.295  0.00  0.00    +0.000 N 
ATOM     17  O   UNL     1       0.630   4.513  20.469  0.00  0.00    +0.000 OA
ATOM     18  O   UNL     1       1.514   2.565  20.957  0.00  0.00    +0.000 OA
ENDBRANCH  13  16
ENDBRANCH   2  10
BRANCH   1  19
ATOM     19  C   UNL     1       6.982   5.820  16.727  0.00  0.00    +0.000 C 
BRANCH  19  20
ATOM     20  C   UNL     1       7.524   4.937  17.850  0.00  0.00    +0.000 C 
BRANCH  20  22
ATOM     21  C   UNL     1       8.177   7.207  18.687  0.00  0.00    +0.000 C 
ATOM     22  C   UNL     1       7.950   5.752  19.066  0.00  0.00    +0.000 C 
ENDBRANCH  20  22
ENDBRANCH  19  20
ENDBRANCH   1  19
TORSDOF 5
ENDMDL
MODEL 7
REMARK VINA RESULT:      -7.1      3.659      6.866
REMARK  Name = 
REMARK  6 active torsions:
REMARK  status: ('A' for Active; 'I' for Inactive)
REMARK    1  A    between atoms: C_1  and  C_2
REMARK    2  A    between atoms: C_2  and  C_3
REMARK    3  A    between atoms: C_3  and  C_4
REMARK    4  A    between atoms: C_4  and  N_5
REMARK    5  A    between atoms: C_6  and  C_7
REMARK    6  A    between atoms: C_10  and  N_11
REMARK                            x       y       z     vdW  Elec       q    Type
REMARK                         _______ _______ _______ _____ _____    ______ ____
ROOT
ATOM      1  N   UNL     1       6.296   5.236  15.720  0.00  0.00    +0.000 N 
ATOM      2  C   UNL     1       5.105   4.518  15.953  0.00  0.00    +0.000 A 
ATOM      3  C   UNL     1       4.953   3.718  14.835  0.00  0.00    +0.000 A 
ATOM      4  N   UNL     1       5.944   4.053  13.936  0.00  0.00    +0.000 N 
ATOM      5  C   UNL     1       6.139   3.561  12.670  0.00  0.00    +0.000 A 
ATOM      6  C   UNL     1       7.179   4.047  11.984  0.00  0.00    +0.000 A 
ATOM      7  C   UNL     1       8.020   5.059  12.664  0.00  0.00    +0.000 A 
ATOM      8  N   UNL     1       7.847   5.525  13.858  0.00  0.00    +0.000 NA
ATOM      9  C   UNL     1       6.738   4.974  14.488  0.00  0.00    +0.000 A 
ENDROOT
BRANCH   2  10
ATOM     10  C   UNL     1       4.227   4.547  17.169  0.00  0.00    +0.000 A 
ATOM     11  C   UNL     1       3.664   5.760  17.583  0.00  0.00    +0.000 A 
ATOM     12  C   UNL     1       2.958   5.843  18.784  0.00  0.00    +0.000 A 
ATOM     13  C   UNL     1       2.793   4.696  19.567  0.00  0.00    +0.000 A 
ATOM     14  C   UNL     1       3.308   3.465  19.136  0.00  0.00    +0.000 A 
ATOM     15  C   UNL     1       4.017   3.388  17.928  0.00  0.00    +0.000 A 
BRANCH  13  16
ATOM     16  N   UNL     1       2.084   4.791  20.850  0.00  0.00    +0.000 N 
ATOM     17  O   UNL     1       1.347   5.770  21.025  0.00  0.00    +0.000 OA
ATOM     18  O   UNL     1       2.274   3.889  21.674  0.00  0.00    +0.000 OA
ENDBRANCH  13  16
ENDBRANCH   2  10
BRANCH   1  19
ATOM     19  C   UNL     1       7.075   6.032  16.680  0.00  0.00    +0.000 C 
BRANCH  19  20
ATOM     20  C   UNL     1       7.507   5.192  17.882  0.00  0.00    +0.000 C 
BRANCH  20  22
ATOM     21  C   UNL     1       8.213   7.485  18.607  0.00  0.00    +0.000 C 
ATOM     22  C   UNL     1       7.948   6.057  19.058  0.00  0.00    +0.000 C 
ENDBRANCH  20  22
ENDBRANCH  19  20
ENDBRANCH   1  19
TORSDOF 5
ENDMDL
MODEL 8
REMARK VINA RESULT:      -7.1      0.485      1.149
REMARK  Name = 
REMARK  6 active torsions:
REMARK  status: ('A' for Active; 'I' for Inactive)
REMARK    1  A    between atoms: C_1  and  C_2
REMARK    2  A    between atoms: C_2  and  C_3
REMARK    3  A    between atoms: C_3  and  C_4
REMARK    4  A    between atoms: C_4  and  N_5
REMARK    5  A    between atoms: C_6  and  C_7
REMARK    6  A    between atoms: C_10  and  N_11
REMARK                            x       y       z     vdW  Elec       q    Type
REMARK                         _______ _______ _______ _____ _____    ______ ____
ROOT
ATOM      1  N   UNL     1       3.725   5.044  18.711  0.00  0.00    +0.000 N 
ATOM      2  C   UNL     1       4.285   4.174  17.754  0.00  0.00    +0.000 A 
ATOM      3  C   UNL     1       3.793   2.924  18.084  0.00  0.00    +0.000 A 
ATOM      4  N   UNL     1       3.082   3.046  19.260  0.00  0.00    +0.000 N 
ATOM      5  C   UNL     1       2.476   2.054  19.988  0.00  0.00    +0.000 A 
ATOM      6  C   UNL     1       1.842   2.423  21.106  0.00  0.00    +0.000 A 
ATOM      7  C   UNL     1       1.851   3.866  21.440  0.00  0.00    +0.000 A 
ATOM      8  N   UNL     1       2.416   4.809  20.757  0.00  0.00    +0.000 NA
ATOM      9  C   UNL     1       3.060   4.331  19.622  0.00  0.00    +0.000 A 
ENDROOT
BRANCH   2  10
ATOM     10  C   UNL     1       5.159   4.520  16.585  0.00  0.00    +0.000 A 
ATOM     11  C   UNL     1       4.674   4.340  15.284  0.00  0.00    +0.000 A 
ATOM     12  C   UNL     1       5.509   4.523  14.181  0.00  0.00    +0.000 A 
ATOM     13  C   UNL     1       6.837   4.913  14.380  0.00  0.00    +0.000 A 
ATOM     14  C   UNL     1       7.319   5.147  15.676  0.00  0.00    +0.000 A 
ATOM     15  C   UNL     1       6.474   4.962  16.780  0.00  0.00    +0.000 A 
BRANCH  13  16
ATOM     16  N   UNL     1       7.728   5.067  13.222  0.00  0.00    +0.000 N 
ATOM     17  O   UNL     1       7.440   4.443  12.192  0.00  0.00    +0.000 OA
ATOM     18  O   UNL     1       8.709   5.807  13.353  0.00  0.00    +0.000 OA
ENDBRANCH  13  16
ENDBRANCH   2  10
BRANCH   1  19
ATOM     19  C   UNL     1       3.693   6.514  18.689  0.00  0.00    +0.000 C 
BRANCH  19  20
ATOM     20  C   UNL     1       2.441   7.036  17.985  0.00  0.00    +0.000 C 
BRANCH  20  22
ATOM     21  C   UNL     1       1.441   9.234  18.656  0.00  0.00    +0.000 C 
ATOM     22  C   UNL     1       2.482   8.547  17.786  0.00  0.00    +0.000 C 
ENDBRANCH  20  22
ENDBRANCH  19  20
ENDBRANCH   1  19
TORSDOF 5
ENDMDL
MODEL 9
REMARK VINA RESULT:      -7.1      4.353      7.250
REMARK  Name = 
REMARK  6 active torsions:
REMARK  status: ('A' for Active; 'I' for Inactive)
REMARK    1  A    between atoms: C_1  and  C_2
REMARK    2  A    between atoms: C_2  and  C_3
REMARK    3  A    between atoms: C_3  and  C_4
REMARK    4  A    between atoms: C_4  and  N_5
REMARK    5  A    between atoms: C_6  and  C_7
REMARK    6  A    between atoms: C_10  and  N_11
REMARK                            x       y       z     vdW  Elec       q    Type
REMARK                         _______ _______ _______ _____ _____    ______ ____
ROOT
ATOM      1  N   UNL     1       3.262   5.433  17.685  0.00  0.00    +0.000 N 
ATOM      2  C   UNL     1       3.404   6.827  17.839  0.00  0.00    +0.000 A 
ATOM      3  C   UNL     1       4.535   7.148  17.111  0.00  0.00    +0.000 A 
ATOM      4  N   UNL     1       5.098   5.971  16.662  0.00  0.00    +0.000 N 
ATOM      5  C   UNL     1       6.263   5.807  15.956  0.00  0.00    +0.000 A 
ATOM      6  C   UNL     1       6.604   4.556  15.633  0.00  0.00    +0.000 A 
ATOM      7  C   UNL     1       5.686   3.475  16.061  0.00  0.00    +0.000 A 
ATOM      8  N   UNL     1       4.583   3.621  16.722  0.00  0.00    +0.000 NA
ATOM      9  C   UNL     1       4.317   4.951  17.025  0.00  0.00    +0.000 A 
ENDROOT
BRANCH   2  10
ATOM     10  C   UNL     1       2.496   7.777  18.563  0.00  0.00    +0.000 A 
ATOM     11  C   UNL     1       2.181   7.540  19.906  0.00  0.00    +0.000 A 
ATOM     12  C   UNL     1       1.235   8.326  20.565  0.00  0.00    +0.000 A 
ATOM     13  C   UNL     1       0.614   9.375  19.880  0.00  0.00    +0.000 A 
ATOM     14  C   UNL     1       0.960   9.654  18.550  0.00  0.00    +0.000 A 
ATOM     15  C   UNL     1       1.912   8.861  17.893  0.00  0.00    +0.000 A 
BRANCH  13  16
ATOM     16  N   UNL     1      -0.411  10.178  20.559  0.00  0.00    +0.000 N 
ATOM     17  O   UNL     1      -1.153  10.874  19.853  0.00  0.00    +0.000 OA
ATOM     18  O   UNL     1      -0.463  10.111  21.792  0.00  0.00    +0.000 OA
ENDBRANCH  13  16
ENDBRANCH   2  10
BRANCH   1  19
ATOM     19  C   UNL     1       2.099   4.599  18.021  0.00  0.00    +0.000 C 
BRANCH  19  20
ATOM     20  C   UNL     1       2.323   3.824  19.319  0.00  0.00    +0.000 C 
BRANCH  20  22
ATOM     21  C   UNL     1       1.260   2.864  21.376  0.00  0.00    +0.000 C 
ATOM     22  C   UNL     1       1.082   3.818  20.206  0.00  0.00    +0.000 C 
ENDBRANCH  20  22
ENDBRANCH  19  20
ENDBRANCH   1  19
TORSDOF 5
ENDMDL
