MODEL 1
REMARK VINA RESULT:      -7.4      0.000      0.000
REMARK  Name = 
REMARK  18 active torsions:
REMARK  status: ('A' for Active; 'I' for Inactive)
REMARK    1  A    between atoms: C_1  and  C_2
REMARK    2  A    between atoms: C_2  and  C_3
REMARK    3  A    between atoms: C_2  and  C_4
REMARK    4  A    between atoms: C_4  and  C_5
REMARK    5  A    between atoms: C_5  and  C_6
REMARK    6  A    between atoms: C_5  and  C_19
REMARK    7  A    between atoms: C_7  and  O_8
REMARK    8  A    between atoms: C_9  and  C_10
REMARK    9  A    between atoms: C_9  and  C_11
REMARK   10  A    between atoms: C_14  and  C_15
REMARK   11  A    between atoms: C_14  and  C_16
REMARK   12  A    between atoms: C_20  and  O_21
REMARK   13  A    between atoms: C_23  and  O_24
REMARK   14  A    between atoms: C_25  and  C_26
REMARK   15  A    between atoms: C_26  and  C_28
REMARK   16  A    between atoms: C_28  and  C_29
REMARK   17  A    between atoms: C_28  and  C_30
REMARK   18  A    between atoms: C_31  and  O_32
REMARK                            x       y       z     vdW  Elec       q    Type
REMARK                         _______ _______ _______ _____ _____    ______ ____
ROOT
ATOM      1  C   UNL     1       3.185   4.780  18.688  0.00  0.00    +0.000 C 
ENDROOT
BRANCH   1   2
ATOM      2  C   UNL     1       4.546   4.992  17.940  0.00  0.00    +0.000 C 
ATOM      3  C   UNL     1       5.702   5.346  18.546  0.00  0.00    +0.000 C 
ATOM      4  C   UNL     1       7.056   5.600  17.876  0.00  0.00    +0.000 C 
ATOM      5  C   UNL     1       7.686   6.905  18.413  0.00  0.00    +0.000 C 
ATOM      6  C   UNL     1       8.028   4.438  18.145  0.00  0.00    +0.000 C 
ATOM      7  C   UNL     1       6.934   5.761  16.357  0.00  0.00    +0.000 C 
ATOM      8  O   UNL     1       7.805   6.367  15.713  0.00  0.00    +0.000 OA
ATOM      9  C   UNL     1       5.832   5.033  15.632  0.00  0.00    +0.000 C 
ATOM     10  C   UNL     1       5.349   5.917  14.466  0.00  0.00    +0.000 C 
ATOM     11  C   UNL     1       6.378   3.704  15.078  0.00  0.00    +0.000 C 
ATOM     12  C   UNL     1       4.625   4.683  16.465  0.00  0.00    +0.000 C 
ATOM     13  O   UNL     1       3.738   4.034  15.904  0.00  0.00    +0.000 OA
BRANCH   3  14
ATOM     14  O   UNL     1       5.748   5.519  19.928  0.00  0.00    +0.000 OA
ATOM     15  H   UNL     1       6.642   5.290  20.239  0.00  0.00    +0.000 HD
ENDBRANCH   3  14
ENDBRANCH   1   2
BRANCH   1  16
ATOM     16  C   UNL     1       2.680   6.056  19.397  0.00  0.00    +0.000 A 
ATOM     17  C   UNL     1       2.292   6.048  20.750  0.00  0.00    +0.000 A 
ATOM     18  C   UNL     1       1.689   7.150  21.354  0.00  0.00    +0.000 A 
ATOM     19  C   UNL     1       1.434   8.301  20.614  0.00  0.00    +0.000 A 
ATOM     20  C   UNL     1       1.767   8.356  19.257  0.00  0.00    +0.000 A 
ATOM     21  C   UNL     1       2.452   7.255  18.686  0.00  0.00    +0.000 A 
BRANCH  17  22
ATOM     22  O   UNL     1       2.454   4.956  21.556  0.00  0.00    +0.000 OA
ATOM     23  H   UNL     1       1.763   5.001  22.237  0.00  0.00    +0.000 HD
ENDBRANCH  17  22
BRANCH  19  24
ATOM     24  O   UNL     1       0.887   9.381  21.249  0.00  0.00    +0.000 OA
ATOM     25  H   UNL     1       1.330   9.518  22.105  0.00  0.00    +0.000 HD
ENDBRANCH  19  24
BRANCH  20  26
ATOM     26  C   UNL     1       1.379   9.505  18.378  0.00  0.00    +0.000 C 
ATOM     27  O   UNL     1       2.112   9.771  17.419  0.00  0.00    +0.000 OA
BRANCH  26  28
ATOM     28  C   UNL     1       0.036  10.221  18.574  0.00  0.00    +0.000 C 
ATOM     29  C   UNL     1       0.232  11.735  18.609  0.00  0.00    +0.000 C 
ATOM     30  C   UNL     1      -0.931   9.840  17.454  0.00  0.00    +0.000 C 
ENDBRANCH  26  28
ENDBRANCH  20  26
BRANCH  21  31
ATOM     31  O   UNL     1       2.912   7.294  17.395  0.00  0.00    +0.000 OA
ATOM     32  H   UNL     1       2.836   6.402  16.990  0.00  0.00    +0.000 HD
ENDBRANCH  21  31
ENDBRANCH   1  16
BRANCH   1  33
ATOM     33  C   UNL     1       2.074   4.110  17.827  0.00  0.00    +0.000 C 
BRANCH  33  35
ATOM     34  C   UNL     1       2.626   1.760  18.354  0.00  0.00    +0.000 C 
ATOM     35  C   UNL     1       1.462   2.760  18.227  0.00  0.00    +0.000 C 
ATOM     36  C   UNL     1       0.662   2.788  19.520  0.00  0.00    +0.000 C 
ENDBRANCH  33  35
ENDBRANCH   1  33
TORSDOF 10
ENDMDL
MODEL 2
REMARK VINA RESULT:      -7.3      2.926      8.444
REMARK  Name = 
REMARK  18 active torsions:
REMARK  status: ('A' for Active; 'I' for Inactive)
REMARK    1  A    between atoms: C_1  and  C_2
REMARK    2  A    between atoms: C_2  and  C_3
REMARK    3  A    between atoms: C_2  and  C_4
REMARK    4  A    between atoms: C_4  and  C_5
REMARK    5  A    between atoms: C_5  and  C_6
REMARK    6  A    between atoms: C_5  and  C_19
REMARK    7  A    between atoms: C_7  and  O_8
REMARK    8  A    between atoms: C_9  and  C_10
REMARK    9  A    between atoms: C_9  and  C_11
REMARK   10  A    between atoms: C_14  and  C_15
REMARK   11  A    between atoms: C_14  and  C_16
REMARK   12  A    between atoms: C_20  and  O_21
REMARK   13  A    between atoms: C_23  and  O_24
REMARK   14  A    between atoms: C_25  and  C_26
REMARK   15  A    between atoms: C_26  and  C_28
REMARK   16  A    between atoms: C_28  and  C_29
REMARK   17  A    between atoms: C_28  and  C_30
REMARK   18  A    between atoms: C_31  and  O_32
REMARK                            x       y       z     vdW  Elec       q    Type
REMARK                         _______ _______ _______ _____ _____    ______ ____
ROOT
ATOM      1  C   UNL     1      -0.120  11.695  18.428  0.00  0.00    +0.000 C 
ENDROOT
BRANCH   1   2
ATOM      2  C   UNL     1       0.643  12.975  18.914  0.00  0.00    +0.000 C 
ATOM      3  C   UNL     1       1.841  13.378  18.434  0.00  0.00    +0.000 C 
ATOM      4  C   UNL     1       2.655  14.595  18.883  0.00  0.00    +0.000 C 
ATOM      5  C   UNL     1       4.136  14.206  19.093  0.00  0.00    +0.000 C 
ATOM      6  C   UNL     1       2.586  15.719  17.834  0.00  0.00    +0.000 C 
ATOM      7  C   UNL     1       2.157  15.171  20.212  0.00  0.00    +0.000 C 
ATOM      8  O   UNL     1       2.907  15.856  20.926  0.00  0.00    +0.000 OA
ATOM      9  C   UNL     1       0.699  15.038  20.565  0.00  0.00    +0.000 C 
ATOM     10  C   UNL     1       0.582  14.842  22.090  0.00  0.00    +0.000 C 
ATOM     11  C   UNL     1      -0.045  16.322  20.154  0.00  0.00    +0.000 C 
ATOM     12  C   UNL     1      -0.030  13.894  19.905  0.00  0.00    +0.000 C 
ATOM     13  O   UNL     1      -1.239  13.805  20.135  0.00  0.00    +0.000 OA
BRANCH   3  14
ATOM     14  O   UNL     1       2.469  12.660  17.417  0.00  0.00    +0.000 OA
ATOM     15  H   UNL     1       3.422  12.619  17.611  0.00  0.00    +0.000 HD
ENDBRANCH   3  14
ENDBRANCH   1   2
BRANCH   1  16
ATOM     16  C   UNL     1       0.299  10.417  19.186  0.00  0.00    +0.000 A 
ATOM     17  C   UNL     1       0.031  10.246  20.558  0.00  0.00    +0.000 A 
ATOM     18  C   UNL     1       0.542   9.171  21.284  0.00  0.00    +0.000 A 
ATOM     19  C   UNL     1       1.363   8.234  20.662  0.00  0.00    +0.000 A 
ATOM     20  C   UNL     1       1.690   8.370  19.310  0.00  0.00    +0.000 A 
ATOM     21  C   UNL     1       1.095   9.423  18.574  0.00  0.00    +0.000 A 
BRANCH  17  22
ATOM     22  O   UNL     1      -0.724  11.130  21.276  0.00  0.00    +0.000 OA
ATOM     23  H   UNL     1      -1.267  11.623  20.639  0.00  0.00    +0.000 HD
ENDBRANCH  17  22
BRANCH  19  24
ATOM     24  O   UNL     1       1.806   7.166  21.392  0.00  0.00    +0.000 OA
ATOM     25  H   UNL     1       1.878   6.383  20.818  0.00  0.00    +0.000 HD
ENDBRANCH  19  24
BRANCH  20  26
ATOM     26  C   UNL     1       2.688   7.482  18.631  0.00  0.00    +0.000 C 
ATOM     27  O   UNL     1       3.504   8.010  17.868  0.00  0.00    +0.000 OA
BRANCH  26  28
ATOM     28  C   UNL     1       2.787   5.994  18.994  0.00  0.00    +0.000 C 
ATOM     29  C   UNL     1       2.071   5.136  17.954  0.00  0.00    +0.000 C 
ATOM     30  C   UNL     1       4.253   5.577  19.104  0.00  0.00    +0.000 C 
ENDBRANCH  26  28
ENDBRANCH  20  26
BRANCH  21  31
ATOM     31  O   UNL     1       1.280   9.541  17.220  0.00  0.00    +0.000 OA
ATOM     32  H   UNL     1       1.167  10.479  16.952  0.00  0.00    +0.000 HD
ENDBRANCH  21  31
ENDBRANCH   1  16
BRANCH   1  33
ATOM     33  C   UNL     1      -1.667  11.855  18.358  0.00  0.00    +0.000 C 
BRANCH  33  35
ATOM     34  C   UNL     1      -4.024  11.191  18.029  0.00  0.00    +0.000 C 
ATOM     35  C   UNL     1      -2.575  10.672  17.993  0.00  0.00    +0.000 C 
ATOM     36  C   UNL     1      -2.282  10.046  16.639  0.00  0.00    +0.000 C 
ENDBRANCH  33  35
ENDBRANCH   1  33
TORSDOF 10
ENDMDL
MODEL 3
REMARK VINA RESULT:      -7.3      7.208      9.606
REMARK  Name = 
REMARK  18 active torsions:
REMARK  status: ('A' for Active; 'I' for Inactive)
REMARK    1  A    between atoms: C_1  and  C_2
REMARK    2  A    between atoms: C_2  and  C_3
REMARK    3  A    between atoms: C_2  and  C_4
REMARK    4  A    between atoms: C_4  and  C_5
REMARK    5  A    between atoms: C_5  and  C_6
REMARK    6  A    between atoms: C_5  and  C_19
REMARK    7  A    between atoms: C_7  and  O_8
REMARK    8  A    between atoms: C_9  and  C_10
REMARK    9  A    between atoms: C_9  and  C_11
REMARK   10  A    between atoms: C_14  and  C_15
REMARK   11  A    between atoms: C_14  and  C_16
REMARK   12  A    between atoms: C_20  and  O_21
REMARK   13  A    between atoms: C_23  and  O_24
REMARK   14  A    between atoms: C_25  and  C_26
REMARK   15  A    between atoms: C_26  and  C_28
REMARK   16  A    between atoms: C_28  and  C_29
REMARK   17  A    between atoms: C_28  and  C_30
REMARK   18  A    between atoms: C_31  and  O_32
REMARK                            x       y       z     vdW  Elec       q    Type
REMARK                         _______ _______ _______ _____ _____    ______ ____
ROOT
ATOM      1  C   UNL     1      -1.017  12.332  20.426  0.00  0.00    +0.000 C 
ENDROOT
BRANCH   1   2
ATOM      2  C   UNL     1      -0.188  13.593  20.005  0.00  0.00    +0.000 C 
ATOM      3  C   UNL     1      -0.696  14.843  19.908  0.00  0.00    +0.000 C 
ATOM      4  C   UNL     1       0.045  16.111  19.474  0.00  0.00    +0.000 C 
ATOM      5  C   UNL     1      -0.796  16.903  18.447  0.00  0.00    +0.000 C 
ATOM      6  C   UNL     1       0.330  17.021  20.683  0.00  0.00    +0.000 C 
ATOM      7  C   UNL     1       1.386  15.801  18.801  0.00  0.00    +0.000 C 
ATOM      8  O   UNL     1       1.913  16.621  18.033  0.00  0.00    +0.000 OA
ATOM      9  C   UNL     1       2.138  14.561  19.209  0.00  0.00    +0.000 C 
ATOM     10  C   UNL     1       2.854  13.994  17.967  0.00  0.00    +0.000 C 
ATOM     11  C   UNL     1       3.181  14.928  20.281  0.00  0.00    +0.000 C 
ATOM     12  C   UNL     1       1.300  13.452  19.793  0.00  0.00    +0.000 C 
ATOM     13  O   UNL     1       1.905  12.453  20.188  0.00  0.00    +0.000 OA
BRANCH   3  14
ATOM     14  O   UNL     1      -2.033  15.085  20.220  0.00  0.00    +0.000 OA
ATOM     15  H   UNL     1      -2.106  15.231  21.180  0.00  0.00    +0.000 HD
ENDBRANCH   3  14
ENDBRANCH   1   2
BRANCH   1  16
ATOM     16  C   UNL     1      -1.857  11.747  19.269  0.00  0.00    +0.000 A 
ATOM     17  C   UNL     1      -1.261  11.071  18.188  0.00  0.00    +0.000 A 
ATOM     18  C   UNL     1      -1.990  10.679  17.066  0.00  0.00    +0.000 A 
ATOM     19  C   UNL     1      -3.348  10.971  16.978  0.00  0.00    +0.000 A 
ATOM     20  C   UNL     1      -3.988  11.669  18.007  0.00  0.00    +0.000 A 
ATOM     21  C   UNL     1      -3.245  11.985  19.171  0.00  0.00    +0.000 A 
BRANCH  17  22
ATOM     22  O   UNL     1       0.073  10.775  18.150  0.00  0.00    +0.000 OA
ATOM     23  H   UNL     1       0.253  10.180  18.897  0.00  0.00    +0.000 HD
ENDBRANCH  17  22
BRANCH  19  24
ATOM     24  O   UNL     1      -4.043  10.529  15.887  0.00  0.00    +0.000 OA
ATOM     25  H   UNL     1      -4.665   9.830  16.154  0.00  0.00    +0.000 HD
ENDBRANCH  19  24
BRANCH  20  26
ATOM     26  C   UNL     1      -5.405  12.143  17.898  0.00  0.00    +0.000 C 
ATOM     27  O   UNL     1      -5.738  12.732  16.863  0.00  0.00    +0.000 OA
BRANCH  26  28
ATOM     28  C   UNL     1      -6.440  11.769  18.967  0.00  0.00    +0.000 C 
ATOM     29  C   UNL     1      -7.660  12.682  18.879  0.00  0.00    +0.000 C 
ATOM     30  C   UNL     1      -6.860  10.309  18.803  0.00  0.00    +0.000 C 
ENDBRANCH  26  28
ENDBRANCH  20  26
BRANCH  21  31
ATOM     31  O   UNL     1      -3.843  12.561  20.263  0.00  0.00    +0.000 OA
ATOM     32  H   UNL     1      -4.602  12.010  20.553  0.00  0.00    +0.000 HD
ENDBRANCH  21  31
ENDBRANCH   1  16
BRANCH   1  33
ATOM     33  C   UNL     1      -0.194  11.237  21.166  0.00  0.00    +0.000 C 
BRANCH  33  35
ATOM     34  C   UNL     1      -1.797  11.574  23.015  0.00  0.00    +0.000 C 
ATOM     35  C   UNL     1      -0.474  10.885  22.634  0.00  0.00    +0.000 C 
ATOM     36  C   UNL     1      -0.566   9.395  22.920  0.00  0.00    +0.000 C 
ENDBRANCH  33  35
ENDBRANCH   1  33
TORSDOF 10
ENDMDL
MODEL 4
REMARK VINA RESULT:      -7.2      2.866      8.417
REMARK  Name = 
REMARK  18 active torsions:
REMARK  status: ('A' for Active; 'I' for Inactive)
REMARK    1  A    between atoms: C_1  and  C_2
REMARK    2  A    between atoms: C_2  and  C_3
REMARK    3  A    between atoms: C_2  and  C_4
REMARK    4  A    between atoms: C_4  and  C_5
REMARK    5  A    between atoms: C_5  and  C_6
REMARK    6  A    between atoms: C_5  and  C_19
REMARK    7  A    between atoms: C_7  and  O_8
REMARK    8  A    between atoms: C_9  and  C_10
REMARK    9  A    between atoms: C_9  and  C_11
REMARK   10  A    between atoms: C_14  and  C_15
REMARK   11  A    between atoms: C_14  and  C_16
REMARK   12  A    between atoms: C_20  and  O_21
REMARK   13  A    between atoms: C_23  and  O_24
REMARK   14  A    between atoms: C_25  and  C_26
REMARK   15  A    between atoms: C_26  and  C_28
REMARK   16  A    between atoms: C_28  and  C_29
REMARK   17  A    between atoms: C_28  and  C_30
REMARK   18  A    between atoms: C_31  and  O_32
REMARK                            x       y       z     vdW  Elec       q    Type
REMARK                         _______ _______ _______ _____ _____    ______ ____
ROOT
ATOM      1  C   UNL     1      -0.145  11.493  18.238  0.00  0.00    +0.000 C 
ENDROOT
BRANCH   1   2
ATOM      2  C   UNL     1       0.361  12.837  18.865  0.00  0.00    +0.000 C 
ATOM      3  C   UNL     1      -0.396  13.653  19.634  0.00  0.00    +0.000 C 
ATOM      4  C   UNL     1       0.022  14.991  20.251  0.00  0.00    +0.000 C 
ATOM      5  C   UNL     1      -1.071  16.059  20.014  0.00  0.00    +0.000 C 
ATOM      6  C   UNL     1       0.250  14.849  21.766  0.00  0.00    +0.000 C 
ATOM      7  C   UNL     1       1.314  15.539  19.636  0.00  0.00    +0.000 C 
ATOM      8  O   UNL     1       1.577  16.751  19.690  0.00  0.00    +0.000 OA
ATOM      9  C   UNL     1       2.341  14.569  19.113  0.00  0.00    +0.000 C 
ATOM     10  C   UNL     1       3.014  15.192  17.874  0.00  0.00    +0.000 C 
ATOM     11  C   UNL     1       3.402  14.313  20.200  0.00  0.00    +0.000 C 
ATOM     12  C   UNL     1       1.813  13.216  18.708  0.00  0.00    +0.000 C 
ATOM     13  O   UNL     1       2.648  12.388  18.333  0.00  0.00    +0.000 OA
BRANCH   3  14
ATOM     14  O   UNL     1      -1.711  13.310  19.942  0.00  0.00    +0.000 OA
ATOM     15  H   UNL     1      -2.309  13.866  19.413  0.00  0.00    +0.000 HD
ENDBRANCH   3  14
ENDBRANCH   1   2
BRANCH   1  16
ATOM     16  C   UNL     1       0.287  10.249  19.044  0.00  0.00    +0.000 A 
ATOM     17  C   UNL     1      -0.015  10.109  20.412  0.00  0.00    +0.000 A 
ATOM     18  C   UNL     1       0.503   9.070  21.182  0.00  0.00    +0.000 A 
ATOM     19  C   UNL     1       1.366   8.138  20.611  0.00  0.00    +0.000 A 
ATOM     20  C   UNL     1       1.728   8.245  19.265  0.00  0.00    +0.000 A 
ATOM     21  C   UNL     1       1.125   9.260  18.483  0.00  0.00    +0.000 A 
BRANCH  17  22
ATOM     22  O   UNL     1      -0.813  10.993  21.083  0.00  0.00    +0.000 OA
ATOM     23  H   UNL     1      -1.558  11.204  20.497  0.00  0.00    +0.000 HD
ENDBRANCH  17  22
BRANCH  19  24
ATOM     24  O   UNL     1       1.816   7.104  21.383  0.00  0.00    +0.000 OA
ATOM     25  H   UNL     1       2.295   6.463  20.828  0.00  0.00    +0.000 HD
ENDBRANCH  19  24
BRANCH  20  26
ATOM     26  C   UNL     1       2.767   7.365  18.639  0.00  0.00    +0.000 C 
ATOM     27  O   UNL     1       3.619   7.901  17.922  0.00  0.00    +0.000 OA
BRANCH  26  28
ATOM     28  C   UNL     1       2.857   5.878  19.005  0.00  0.00    +0.000 C 
ATOM     29  C   UNL     1       2.199   5.017  17.931  0.00  0.00    +0.000 C 
ATOM     30  C   UNL     1       4.319   5.470  19.187  0.00  0.00    +0.000 C 
ENDBRANCH  26  28
ENDBRANCH  20  26
BRANCH  21  31
ATOM     31  O   UNL     1       1.345   9.344  17.132  0.00  0.00    +0.000 OA
ATOM     32  H   UNL     1       2.208   9.783  16.965  0.00  0.00    +0.000 HD
ENDBRANCH  21  31
ENDBRANCH   1  16
BRANCH   1  33
ATOM     33  C   UNL     1      -1.664  11.473  17.897  0.00  0.00    +0.000 C 
BRANCH  33  35
ATOM     34  C   UNL     1      -3.372   9.693  17.765  0.00  0.00    +0.000 C 
ATOM     35  C   UNL     1      -2.259  10.402  16.972  0.00  0.00    +0.000 C 
ATOM     36  C   UNL     1      -2.818  10.938  15.663  0.00  0.00    +0.000 C 
ENDBRANCH  33  35
ENDBRANCH   1  33
TORSDOF 10
ENDMDL
MODEL 5
REMARK VINA RESULT:      -7.1      2.838      8.493
REMARK  Name = 
REMARK  18 active torsions:
REMARK  status: ('A' for Active; 'I' for Inactive)
REMARK    1  A    between atoms: C_1  and  C_2
REMARK    2  A    between atoms: C_2  and  C_3
REMARK    3  A    between atoms: C_2  and  C_4
REMARK    4  A    between atoms: C_4  and  C_5
REMARK    5  A    between atoms: C_5  and  C_6
REMARK    6  A    between atoms: C_5  and  C_19
REMARK    7  A    between atoms: C_7  and  O_8
REMARK    8  A    between atoms: C_9  and  C_10
REMARK    9  A    between atoms: C_9  and  C_11
REMARK   10  A    between atoms: C_14  and  C_15
REMARK   11  A    between atoms: C_14  and  C_16
REMARK   12  A    between atoms: C_20  and  O_21
REMARK   13  A    between atoms: C_23  and  O_24
REMARK   14  A    between atoms: C_25  and  C_26
REMARK   15  A    between atoms: C_26  and  C_28
REMARK   16  A    between atoms: C_28  and  C_29
REMARK   17  A    between atoms: C_28  and  C_30
REMARK   18  A    between atoms: C_31  and  O_32
REMARK                            x       y       z     vdW  Elec       q    Type
REMARK                         _______ _______ _______ _____ _____    ______ ____
ROOT
ATOM      1  C   UNL     1      -0.056  11.455  18.755  0.00  0.00    +0.000 C 
ENDROOT
BRANCH   1   2
ATOM      2  C   UNL     1       0.394  12.675  19.629  0.00  0.00    +0.000 C 
ATOM      3  C   UNL     1       1.626  13.232  19.585  0.00  0.00    +0.000 C 
ATOM      4  C   UNL     1       2.143  14.400  20.430  0.00  0.00    +0.000 C 
ATOM      5  C   UNL     1       3.542  14.075  21.001  0.00  0.00    +0.000 C 
ATOM      6  C   UNL     1       2.242  15.685  19.588  0.00  0.00    +0.000 C 
ATOM      7  C   UNL     1       1.236  14.700  21.627  0.00  0.00    +0.000 C 
ATOM      8  O   UNL     1       1.678  15.294  22.624  0.00  0.00    +0.000 OA
ATOM      9  C   UNL     1      -0.239  14.413  21.516  0.00  0.00    +0.000 C 
ATOM     10  C   UNL     1      -0.751  13.945  22.892  0.00  0.00    +0.000 C 
ATOM     11  C   UNL     1      -0.978  15.700  21.103  0.00  0.00    +0.000 C 
ATOM     12  C   UNL     1      -0.624  13.360  20.508  0.00  0.00    +0.000 C 
ATOM     13  O   UNL     1      -1.832  13.155  20.359  0.00  0.00    +0.000 OA
BRANCH   3  14
ATOM     14  O   UNL     1       2.587  12.746  18.700  0.00  0.00    +0.000 OA
ATOM     15  H   UNL     1       3.298  13.406  18.620  0.00  0.00    +0.000 HD
ENDBRANCH   3  14
ENDBRANCH   1   2
BRANCH   1  16
ATOM     16  C   UNL     1       0.398  10.097  19.332  0.00  0.00    +0.000 A 
ATOM     17  C   UNL     1       0.117   9.723  20.659  0.00  0.00    +0.000 A 
ATOM     18  C   UNL     1       0.655   8.574  21.236  0.00  0.00    +0.000 A 
ATOM     19  C   UNL     1       1.519   7.763  20.504  0.00  0.00    +0.000 A 
ATOM     20  C   UNL     1       1.862   8.101  19.192  0.00  0.00    +0.000 A 
ATOM     21  C   UNL     1       1.238   9.228  18.601  0.00  0.00    +0.000 A 
BRANCH  17  22
ATOM     22  O   UNL     1      -0.681  10.469  21.481  0.00  0.00    +0.000 OA
ATOM     23  H   UNL     1      -1.545  10.027  21.516  0.00  0.00    +0.000 HD
ENDBRANCH  17  22
BRANCH  19  24
ATOM     24  O   UNL     1       1.990   6.618  21.083  0.00  0.00    +0.000 OA
ATOM     25  H   UNL     1       1.325   5.912  21.006  0.00  0.00    +0.000 HD
ENDBRANCH  19  24
BRANCH  20  26
ATOM     26  C   UNL     1       2.901   7.354  18.413  0.00  0.00    +0.000 C 
ATOM     27  O   UNL     1       3.699   8.012  17.737  0.00  0.00    +0.000 OA
BRANCH  26  28
ATOM     28  C   UNL     1       3.062   5.837  18.578  0.00  0.00    +0.000 C 
ATOM     29  C   UNL     1       1.916   5.096  17.894  0.00  0.00    +0.000 C 
ATOM     30  C   UNL     1       4.402   5.385  18.000  0.00  0.00    +0.000 C 
ENDBRANCH  26  28
ENDBRANCH  20  26
BRANCH  21  31
ATOM     31  O   UNL     1       1.440   9.544  17.282  0.00  0.00    +0.000 OA
ATOM     32  H   UNL     1       0.884   8.965  16.715  0.00  0.00    +0.000 HD
ENDBRANCH  21  31
ENDBRANCH   1  16
BRANCH   1  33
ATOM     33  C   UNL     1      -1.567  11.456  18.377  0.00  0.00    +0.000 C 
BRANCH  33  35
ATOM     34  C   UNL     1      -3.774  10.370  18.148  0.00  0.00    +0.000 C 
ATOM     35  C   UNL     1      -2.268  10.179  17.893  0.00  0.00    +0.000 C 
ATOM     36  C   UNL     1      -2.029   9.844  16.428  0.00  0.00    +0.000 C 
ENDBRANCH  33  35
ENDBRANCH   1  33
TORSDOF 10
ENDMDL
MODEL 6
REMARK VINA RESULT:      -7.1      1.329      2.491
REMARK  Name = 
REMARK  18 active torsions:
REMARK  status: ('A' for Active; 'I' for Inactive)
REMARK    1  A    between atoms: C_1  and  C_2
REMARK    2  A    between atoms: C_2  and  C_3
REMARK    3  A    between atoms: C_2  and  C_4
REMARK    4  A    between atoms: C_4  and  C_5
REMARK    5  A    between atoms: C_5  and  C_6
REMARK    6  A    between atoms: C_5  and  C_19
REMARK    7  A    between atoms: C_7  and  O_8
REMARK    8  A    between atoms: C_9  and  C_10
REMARK    9  A    between atoms: C_9  and  C_11
REMARK   10  A    between atoms: C_14  and  C_15
REMARK   11  A    between atoms: C_14  and  C_16
REMARK   12  A    between atoms: C_20  and  O_21
REMARK   13  A    between atoms: C_23  and  O_24
REMARK   14  A    between atoms: C_25  and  C_26
REMARK   15  A    between atoms: C_26  and  C_28
REMARK   16  A    between atoms: C_28  and  C_29
REMARK   17  A    between atoms: C_28  and  C_30
REMARK   18  A    between atoms: C_31  and  O_32
REMARK                            x       y       z     vdW  Elec       q    Type
REMARK                         _______ _______ _______ _____ _____    ______ ____
ROOT
ATOM      1  C   UNL     1       3.150   5.427  18.953  0.00  0.00    +0.000 C 
ENDROOT
BRANCH   1   2
ATOM      2  C   UNL     1       4.483   5.371  18.131  0.00  0.00    +0.000 C 
ATOM      3  C   UNL     1       5.696   5.713  18.620  0.00  0.00    +0.000 C 
ATOM      4  C   UNL     1       7.030   5.714  17.867  0.00  0.00    +0.000 C 
ATOM      5  C   UNL     1       7.801   7.026  18.137  0.00  0.00    +0.000 C 
ATOM      6  C   UNL     1       7.908   4.529  18.306  0.00  0.00    +0.000 C 
ATOM      7  C   UNL     1       6.843   5.615  16.350  0.00  0.00    +0.000 C 
ATOM      8  O   UNL     1       7.729   6.012  15.576  0.00  0.00    +0.000 OA
ATOM      9  C   UNL     1       5.644   4.881  15.808  0.00  0.00    +0.000 C 
ATOM     10  C   UNL     1       5.180   5.588  14.520  0.00  0.00    +0.000 C 
ATOM     11  C   UNL     1       6.041   3.429  15.483  0.00  0.00    +0.000 C 
ATOM     12  C   UNL     1       4.456   4.801  16.733  0.00  0.00    +0.000 C 
ATOM     13  O   UNL     1       3.487   4.152  16.331  0.00  0.00    +0.000 OA
BRANCH   3  14
ATOM     14  O   UNL     1       5.831   6.122  19.946  0.00  0.00    +0.000 OA
ATOM     15  H   UNL     1       6.505   6.823  19.988  0.00  0.00    +0.000 HD
ENDBRANCH   3  14
ENDBRANCH   1   2
BRANCH   1  16
ATOM     16  C   UNL     1       2.517   6.835  18.984  0.00  0.00    +0.000 A 
ATOM     17  C   UNL     1       2.610   7.715  17.889  0.00  0.00    +0.000 A 
ATOM     18  C   UNL     1       2.182   9.039  17.964  0.00  0.00    +0.000 A 
ATOM     19  C   UNL     1       1.660   9.539  19.154  0.00  0.00    +0.000 A 
ATOM     20  C   UNL     1       1.573   8.721  20.285  0.00  0.00    +0.000 A 
ATOM     21  C   UNL     1       1.938   7.358  20.161  0.00  0.00    +0.000 A 
BRANCH  17  22
ATOM     22  O   UNL     1       3.148   7.342  16.689  0.00  0.00    +0.000 OA
ATOM     23  H   UNL     1       3.709   6.567  16.858  0.00  0.00    +0.000 HD
ENDBRANCH  17  22
BRANCH  19  24
ATOM     24  O   UNL     1       1.204  10.827  19.179  0.00  0.00    +0.000 OA
ATOM     25  H   UNL     1       0.932  11.063  20.083  0.00  0.00    +0.000 HD
ENDBRANCH  19  24
BRANCH  20  26
ATOM     26  C   UNL     1       1.164   9.245  21.628  0.00  0.00    +0.000 C 
ATOM     27  O   UNL     1       2.048   9.401  22.478  0.00  0.00    +0.000 OA
BRANCH  26  28
ATOM     28  C   UNL     1      -0.273   9.718  21.879  0.00  0.00    +0.000 C 
ATOM     29  C   UNL     1      -0.748   9.286  23.265  0.00  0.00    +0.000 C 
ATOM     30  C   UNL     1      -0.358  11.238  21.742  0.00  0.00    +0.000 C 
ENDBRANCH  26  28
ENDBRANCH  20  26
BRANCH  21  31
ATOM     31  O   UNL     1       1.764   6.477  21.197  0.00  0.00    +0.000 OA
ATOM     32  H   UNL     1       1.729   6.969  22.047  0.00  0.00    +0.000 HD
ENDBRANCH  21  31
ENDBRANCH   1  16
BRANCH   1  33
ATOM     33  C   UNL     1       2.114   4.326  18.577  0.00  0.00    +0.000 C 
BRANCH  33  35
ATOM     34  C   UNL     1       0.713   2.325  18.945  0.00  0.00    +0.000 C 
ATOM     35  C   UNL     1       1.391   3.511  19.657  0.00  0.00    +0.000 C 
ATOM     36  C   UNL     1       2.291   2.999  20.771  0.00  0.00    +0.000 C 
ENDBRANCH  33  35
ENDBRANCH   1  33
TORSDOF 10
ENDMDL
MODEL 7
REMARK VINA RESULT:      -7.1      6.854      9.703
REMARK  Name = 
REMARK  18 active torsions:
REMARK  status: ('A' for Active; 'I' for Inactive)
REMARK    1  A    between atoms: C_1  and  C_2
REMARK    2  A    between atoms: C_2  and  C_3
REMARK    3  A    between atoms: C_2  and  C_4
REMARK    4  A    between atoms: C_4  and  C_5
REMARK    5  A    between atoms: C_5  and  C_6
REMARK    6  A    between atoms: C_5  and  C_19
REMARK    7  A    between atoms: C_7  and  O_8
REMARK    8  A    between atoms: C_9  and  C_10
REMARK    9  A    between atoms: C_9  and  C_11
REMARK   10  A    between atoms: C_14  and  C_15
REMARK   11  A    between atoms: C_14  and  C_16
REMARK   12  A    between atoms: C_20  and  O_21
REMARK   13  A    between atoms: C_23  and  O_24
REMARK   14  A    between atoms: C_25  and  C_26
REMARK   15  A    between atoms: C_26  and  C_28
REMARK   16  A    between atoms: C_28  and  C_29
REMARK   17  A    between atoms: C_28  and  C_30
REMARK   18  A    between atoms: C_31  and  O_32
REMARK                            x       y       z     vdW  Elec       q    Type
REMARK                         _______ _______ _______ _____ _____    ______ ____
ROOT
ATOM      1  C   UNL     1      -0.703  12.604  19.544  0.00  0.00    +0.000 C 
ENDROOT
BRANCH   1   2
ATOM      2  C   UNL     1       0.238  13.854  19.447  0.00  0.00    +0.000 C 
ATOM      3  C   UNL     1      -0.197  15.132  19.360  0.00  0.00    +0.000 C 
ATOM      4  C   UNL     1       0.661  16.394  19.231  0.00  0.00    +0.000 C 
ATOM      5  C   UNL     1       0.102  17.315  18.123  0.00  0.00    +0.000 C 
ATOM      6  C   UNL     1       0.687  17.178  20.555  0.00  0.00    +0.000 C 
ATOM      7  C   UNL     1       2.111  16.077  18.852  0.00  0.00    +0.000 C 
ATOM      8  O   UNL     1       2.825  16.934  18.307  0.00  0.00    +0.000 OA
ATOM      9  C   UNL     1       2.712  14.769  19.297  0.00  0.00    +0.000 C 
ATOM     10  C   UNL     1       3.678  14.278  18.201  0.00  0.00    +0.000 C 
ATOM     11  C   UNL     1       3.491  14.986  20.608  0.00  0.00    +0.000 C 
ATOM     12  C   UNL     1       1.730  13.657  19.565  0.00  0.00    +0.000 C 
ATOM     13  O   UNL     1       2.199  12.597  19.988  0.00  0.00    +0.000 OA
BRANCH   3  14
ATOM     14  O   UNL     1      -1.562  15.414  19.383  0.00  0.00    +0.000 OA
ATOM     15  H   UNL     1      -2.008  14.840  18.735  0.00  0.00    +0.000 HD
ENDBRANCH   3  14
ENDBRANCH   1   2
BRANCH   1  16
ATOM     16  C   UNL     1      -1.532  12.571  20.847  0.00  0.00    +0.000 A 
ATOM     17  C   UNL     1      -1.003  12.068  22.050  0.00  0.00    +0.000 A 
ATOM     18  C   UNL     1      -1.789  11.888  23.187  0.00  0.00    +0.000 A 
ATOM     19  C   UNL     1      -3.148  12.189  23.152  0.00  0.00    +0.000 A 
ATOM     20  C   UNL     1      -3.736  12.661  21.975  0.00  0.00    +0.000 A 
ATOM     21  C   UNL     1      -2.902  12.913  20.858  0.00  0.00    +0.000 A 
BRANCH  17  22
ATOM     22  O   UNL     1       0.306  11.698  22.181  0.00  0.00    +0.000 OA
ATOM     23  H   UNL     1       0.626  11.468  21.294  0.00  0.00    +0.000 HD
ENDBRANCH  17  22
BRANCH  19  24
ATOM     24  O   UNL     1      -3.879  12.048  24.299  0.00  0.00    +0.000 OA
ATOM     25  H   UNL     1      -4.604  12.698  24.310  0.00  0.00    +0.000 HD
ENDBRANCH  19  24
BRANCH  20  26
ATOM     26  C   UNL     1      -5.216  12.855  21.836  0.00  0.00    +0.000 C 
ATOM     27  O   UNL     1      -5.933  11.848  21.858  0.00  0.00    +0.000 OA
BRANCH  26  28
ATOM     28  C   UNL     1      -5.823  14.263  21.826  0.00  0.00    +0.000 C 
ATOM     29  C   UNL     1      -7.347  14.194  21.889  0.00  0.00    +0.000 C 
ATOM     30  C   UNL     1      -5.283  15.077  23.001  0.00  0.00    +0.000 C 
ENDBRANCH  26  28
ENDBRANCH  20  26
BRANCH  21  31
ATOM     31  O   UNL     1      -3.396  13.487  19.715  0.00  0.00    +0.000 OA
ATOM     32  H   UNL     1      -2.755  14.150  19.376  0.00  0.00    +0.000 HD
ENDBRANCH  21  31
ENDBRANCH   1  16
BRANCH   1  33
ATOM     33  C   UNL     1      -1.582  12.360  18.283  0.00  0.00    +0.000 C 
BRANCH  33  35
ATOM     34  C   UNL     1      -0.497  10.143  18.185  0.00  0.00    +0.000 C 
ATOM     35  C   UNL     1      -1.667  10.975  17.627  0.00  0.00    +0.000 C 
ATOM     36  C   UNL     1      -2.979  10.245  17.861  0.00  0.00    +0.000 C 
ENDBRANCH  33  35
ENDBRANCH   1  33
TORSDOF 10
ENDMDL
MODEL 8
REMARK VINA RESULT:      -7.0      6.061      9.926
REMARK  Name = 
REMARK  18 active torsions:
REMARK  status: ('A' for Active; 'I' for Inactive)
REMARK    1  A    between atoms: C_1  and  C_2
REMARK    2  A    between atoms: C_2  and  C_3
REMARK    3  A    between atoms: C_2  and  C_4
REMARK    4  A    between atoms: C_4  and  C_5
REMARK    5  A    between atoms: C_5  and  C_6
REMARK    6  A    between atoms: C_5  and  C_19
REMARK    7  A    between atoms: C_7  and  O_8
REMARK    8  A    between atoms: C_9  and  C_10
REMARK    9  A    between atoms: C_9  and  C_11
REMARK   10  A    between atoms: C_14  and  C_15
REMARK   11  A    between atoms: C_14  and  C_16
REMARK   12  A    between atoms: C_20  and  O_21
REMARK   13  A    between atoms: C_23  and  O_24
REMARK   14  A    between atoms: C_25  and  C_26
REMARK   15  A    between atoms: C_26  and  C_28
REMARK   16  A    between atoms: C_28  and  C_29
REMARK   17  A    between atoms: C_28  and  C_30
REMARK   18  A    between atoms: C_31  and  O_32
REMARK                            x       y       z     vdW  Elec       q    Type
REMARK                         _______ _______ _______ _____ _____    ______ ____
ROOT
ATOM      1  C   UNL     1      -1.346  11.630  20.114  0.00  0.00    +0.000 C 
ENDROOT
BRANCH   1   2
ATOM      2  C   UNL     1      -0.907  13.134  20.152  0.00  0.00    +0.000 C 
ATOM      3  C   UNL     1      -0.085  13.712  19.247  0.00  0.00    +0.000 C 
ATOM      4  C   UNL     1       0.409  15.161  19.240  0.00  0.00    +0.000 C 
ATOM      5  C   UNL     1       1.932  15.211  18.980  0.00  0.00    +0.000 C 
ATOM      6  C   UNL     1      -0.303  15.979  18.147  0.00  0.00    +0.000 C 
ATOM      7  C   UNL     1       0.167  15.866  20.578  0.00  0.00    +0.000 C 
ATOM      8  O   UNL     1       0.843  16.855  20.905  0.00  0.00    +0.000 OA
ATOM      9  C   UNL     1      -1.011  15.450  21.419  0.00  0.00    +0.000 C 
ATOM     10  C   UNL     1      -0.615  15.564  22.905  0.00  0.00    +0.000 C 
ATOM     11  C   UNL     1      -2.200  16.386  21.131  0.00  0.00    +0.000 C 
ATOM     12  C   UNL     1      -1.512  14.046  21.192  0.00  0.00    +0.000 C 
ATOM     13  O   UNL     1      -2.513  13.707  21.828  0.00  0.00    +0.000 OA
BRANCH   3  14
ATOM     14  O   UNL     1       0.411  12.973  18.173  0.00  0.00    +0.000 OA
ATOM     15  H   UNL     1      -0.298  12.871  17.514  0.00  0.00    +0.000 HD
ENDBRANCH   3  14
ENDBRANCH   1   2
BRANCH   1  16
ATOM     16  C   UNL     1      -2.230  11.288  18.895  0.00  0.00    +0.000 A 
ATOM     17  C   UNL     1      -1.696  10.699  17.734  0.00  0.00    +0.000 A 
ATOM     18  C   UNL     1      -2.450  10.531  16.574  0.00  0.00    +0.000 A 
ATOM     19  C   UNL     1      -3.770  10.971  16.529  0.00  0.00    +0.000 A 
ATOM     20  C   UNL     1      -4.345  11.594  17.640  0.00  0.00    +0.000 A 
ATOM     21  C   UNL     1      -3.585  11.679  18.833  0.00  0.00    +0.000 A 
BRANCH  17  22
ATOM     22  O   UNL     1      -0.399  10.273  17.653  0.00  0.00    +0.000 OA
ATOM     23  H   UNL     1       0.122  11.017  17.308  0.00  0.00    +0.000 HD
ENDBRANCH  17  22
BRANCH  19  24
ATOM     24  O   UNL     1      -4.497  10.747  15.392  0.00  0.00    +0.000 OA
ATOM     25  H   UNL     1      -4.616  11.583  14.907  0.00  0.00    +0.000 HD
ENDBRANCH  19  24
BRANCH  20  26
ATOM     26  C   UNL     1      -5.705  12.222  17.598  0.00  0.00    +0.000 C 
ATOM     27  O   UNL     1      -5.840  13.261  16.942  0.00  0.00    +0.000 OA
BRANCH  26  28
ATOM     28  C   UNL     1      -6.915  11.511  18.217  0.00  0.00    +0.000 C 
ATOM     29  C   UNL     1      -6.524  10.125  18.725  0.00  0.00    +0.000 C 
ATOM     30  C   UNL     1      -7.489  12.348  19.359  0.00  0.00    +0.000 C 
ENDBRANCH  26  28
ENDBRANCH  20  26
BRANCH  21  31
ATOM     31  O   UNL     1      -4.131  12.169  19.992  0.00  0.00    +0.000 OA
ATOM     32  H   UNL     1      -5.104  12.034  19.982  0.00  0.00    +0.000 HD
ENDBRANCH  21  31
ENDBRANCH   1  16
BRANCH   1  33
ATOM     33  C   UNL     1      -0.181  10.614  20.298  0.00  0.00    +0.000 C 
BRANCH  33  35
ATOM     34  C   UNL     1       1.048   8.684  21.231  0.00  0.00    +0.000 C 
ATOM     35  C   UNL     1      -0.261   9.488  21.338  0.00  0.00    +0.000 C 
ATOM     36  C   UNL     1      -0.460   9.964  22.769  0.00  0.00    +0.000 C 
ENDBRANCH  33  35
ENDBRANCH   1  33
TORSDOF 10
ENDMDL
MODEL 9
REMARK VINA RESULT:      -7.0      7.032      9.878
REMARK  Name = 
REMARK  18 active torsions:
REMARK  status: ('A' for Active; 'I' for Inactive)
REMARK    1  A    between atoms: C_1  and  C_2
REMARK    2  A    between atoms: C_2  and  C_3
REMARK    3  A    between atoms: C_2  and  C_4
REMARK    4  A    between atoms: C_4  and  C_5
REMARK    5  A    between atoms: C_5  and  C_6
REMARK    6  A    between atoms: C_5  and  C_19
REMARK    7  A    between atoms: C_7  and  O_8
REMARK    8  A    between atoms: C_9  and  C_10
REMARK    9  A    between atoms: C_9  and  C_11
REMARK   10  A    between atoms: C_14  and  C_15
REMARK   11  A    between atoms: C_14  and  C_16
REMARK   12  A    between atoms: C_20  and  O_21
REMARK   13  A    between atoms: C_23  and  O_24
REMARK   14  A    between atoms: C_25  and  C_26
REMARK   15  A    between atoms: C_26  and  C_28
REMARK   16  A    between atoms: C_28  and  C_29
REMARK   17  A    between atoms: C_28  and  C_30
REMARK   18  A    between atoms: C_31  and  O_32
REMARK                            x       y       z     vdW  Elec       q    Type
REMARK                         _______ _______ _______ _____ _____    ______ ____
ROOT
ATOM      1  C   UNL     1      -0.123  12.989  19.741  0.00  0.00    +0.000 C 
ENDROOT
BRANCH   1   2
ATOM      2  C   UNL     1       0.746  14.290  19.828  0.00  0.00    +0.000 C 
ATOM      3  C   UNL     1       0.392  15.481  19.294  0.00  0.00    +0.000 C 
ATOM      4  C   UNL     1       1.203  16.780  19.314  0.00  0.00    +0.000 C 
ATOM      5  C   UNL     1       1.217  17.429  17.911  0.00  0.00    +0.000 C 
ATOM      6  C   UNL     1       0.605  17.786  20.314  0.00  0.00    +0.000 C 
ATOM      7  C   UNL     1       2.666  16.549  19.707  0.00  0.00    +0.000 C 
ATOM      8  O   UNL     1       3.545  17.363  19.383  0.00  0.00    +0.000 OA
ATOM      9  C   UNL     1       3.001  15.409  20.633  0.00  0.00    +0.000 C 
ATOM     10  C   UNL     1       4.369  14.831  20.220  0.00  0.00    +0.000 C 
ATOM     11  C   UNL     1       3.079  15.932  22.079  0.00  0.00    +0.000 C 
ATOM     12  C   UNL     1       2.014  14.268  20.647  0.00  0.00    +0.000 C 
ATOM     13  O   UNL     1       2.240  13.353  21.443  0.00  0.00    +0.000 OA
BRANCH   3  14
ATOM     14  O   UNL     1      -0.829  15.623  18.637  0.00  0.00    +0.000 OA
ATOM     15  H   UNL     1      -0.785  16.411  18.067  0.00  0.00    +0.000 HD
ENDBRANCH   3  14
ENDBRANCH   1   2
BRANCH   1  16
ATOM     16  C   UNL     1      -1.036  12.788  20.970  0.00  0.00    +0.000 A 
ATOM     17  C   UNL     1      -0.705  11.889  22.001  0.00  0.00    +0.000 A 
ATOM     18  C   UNL     1      -1.592  11.585  23.032  0.00  0.00    +0.000 A 
ATOM     19  C   UNL     1      -2.860  12.158  23.055  0.00  0.00    +0.000 A 
ATOM     20  C   UNL     1      -3.258  13.033  22.040  0.00  0.00    +0.000 A 
ATOM     21  C   UNL     1      -2.311  13.390  21.049  0.00  0.00    +0.000 A 
BRANCH  17  22
ATOM     22  O   UNL     1       0.495  11.235  22.051  0.00  0.00    +0.000 OA
ATOM     23  H   UNL     1       1.064  11.635  21.373  0.00  0.00    +0.000 HD
ENDBRANCH  17  22
BRANCH  19  24
ATOM     24  O   UNL     1      -3.687  11.876  24.107  0.00  0.00    +0.000 OA
ATOM     25  H   UNL     1      -4.549  11.570  23.775  0.00  0.00    +0.000 HD
ENDBRANCH  19  24
BRANCH  20  26
ATOM     26  C   UNL     1      -4.657  13.558  21.931  0.00  0.00    +0.000 C 
ATOM     27  O   UNL     1      -4.828  14.774  22.068  0.00  0.00    +0.000 OA
BRANCH  26  28
ATOM     28  C   UNL     1      -5.808  12.636  21.509  0.00  0.00    +0.000 C 
ATOM     29  C   UNL     1      -7.157  13.295  21.787  0.00  0.00    +0.000 C 
ATOM     30  C   UNL     1      -5.686  12.289  20.026  0.00  0.00    +0.000 C 
ENDBRANCH  26  28
ENDBRANCH  20  26
BRANCH  21  31
ATOM     31  O   UNL     1      -2.599  14.333  20.095  0.00  0.00    +0.000 OA
ATOM     32  H   UNL     1      -2.189  14.074  19.241  0.00  0.00    +0.000 HD
ENDBRANCH  21  31
ENDBRANCH   1  16
BRANCH   1  33
ATOM     33  C   UNL     1      -0.898  12.820  18.401  0.00  0.00    +0.000 C 
BRANCH  33  35
ATOM     34  C   UNL     1      -0.325  10.419  18.500  0.00  0.00    +0.000 C 
ATOM     35  C   UNL     1      -1.309  11.433  17.888  0.00  0.00    +0.000 C 
ATOM     36  C   UNL     1      -2.737  11.034  18.222  0.00  0.00    +0.000 C 
ENDBRANCH  33  35
ENDBRANCH   1  33
TORSDOF 10
ENDMDL
