MODEL 1
REMARK VINA RESULT:      -7.4      0.000      0.000
REMARK  Name = 
REMARK  3 active torsions:
REMARK  status: ('A' for Active; 'I' for Inactive)
REMARK    1  A    between atoms: C_1  and  C_2
REMARK    2  A    between atoms: C_4  and  C_5
REMARK    3  A    between atoms: C_19  and  C_20
REMARK                            x       y       z     vdW  Elec       q    Type
REMARK                         _______ _______ _______ _____ _____    ______ ____
ROOT
ATOM      1  C   UNL     1       3.627   7.367  18.018  0.00  0.00    +0.000 C 
ATOM      2  C   UNL     1       2.242   7.275  17.412  0.00  0.00    +0.000 C 
ATOM      3  C   UNL     1       2.474   6.751  18.790  0.00  0.00    +0.000 C 
ATOM      4  C   UNL     1       2.030   7.487  20.037  0.00  0.00    +0.000 C 
ATOM      5  O   UNL     1       2.007   8.699  20.170  0.00  0.00    +0.000 OA
ATOM      6  N   UNL     1       1.681   6.534  20.975  0.00  0.00    +0.000 N 
ATOM      7  C   UNL     1       1.783   5.243  20.457  0.00  0.00    +0.000 A 
ATOM      8  C   UNL     1       1.441   4.070  21.099  0.00  0.00    +0.000 A 
ATOM      9  C   UNL     1       1.542   2.887  20.364  0.00  0.00    +0.000 A 
ATOM     10  C   UNL     1       1.967   2.921  19.026  0.00  0.00    +0.000 A 
ATOM     11 CL   UNL     1       2.044   1.452  18.129  0.00  0.00    +0.000 Cl
ATOM     12  C   UNL     1       2.309   4.125  18.400  0.00  0.00    +0.000 A 
ATOM     13  C   UNL     1       2.244   5.303  19.129  0.00  0.00    +0.000 A 
ATOM     14  H   UNL     1       1.345   6.774  21.895  0.00  0.00    +0.000 HD
ENDROOT
BRANCH   1  18
ATOM     15  C   UNL     1       6.789   5.113  14.713  0.00  0.00    +0.000 C 
ATOM     16  C   UNL     1       6.143   5.552  15.972  0.00  0.00    +0.000 A 
ATOM     17  C   UNL     1       4.953   6.316  16.107  0.00  0.00    +0.000 A 
ATOM     18  C   UNL     1       4.761   6.535  17.455  0.00  0.00    +0.000 A 
ATOM     19  O   UNL     1       5.735   5.902  18.161  0.00  0.00    +0.000 OA
ATOM     20  C   UNL     1       6.582   5.326  17.264  0.00  0.00    +0.000 A 
ATOM     21  C   UNL     1       7.762   4.629  17.819  0.00  0.00    +0.000 C 
ENDBRANCH   1  18
TORSDOF 1
ENDMDL
MODEL 2
REMARK VINA RESULT:      -7.3      2.258      4.719
REMARK  Name = 
REMARK  3 active torsions:
REMARK  status: ('A' for Active; 'I' for Inactive)
REMARK    1  A    between atoms: C_1  and  C_2
REMARK    2  A    between atoms: C_4  and  C_5
REMARK    3  A    between atoms: C_19  and  C_20
REMARK                            x       y       z     vdW  Elec       q    Type
REMARK                         _______ _______ _______ _____ _____    ______ ____
ROOT
ATOM      1  C   UNL     1       4.225   6.757  17.593  0.00  0.00    +0.000 C 
ATOM      2  C   UNL     1       5.306   6.078  18.408  0.00  0.00    +0.000 C 
ATOM      3  C   UNL     1       4.321   5.242  17.660  0.00  0.00    +0.000 C 
ATOM      4  C   UNL     1       4.657   4.531  16.367  0.00  0.00    +0.000 C 
ATOM      5  O   UNL     1       5.417   4.949  15.509  0.00  0.00    +0.000 OA
ATOM      6  N   UNL     1       3.935   3.353  16.345  0.00  0.00    +0.000 N 
ATOM      7  C   UNL     1       3.207   3.177  17.522  0.00  0.00    +0.000 A 
ATOM      8  C   UNL     1       2.442   2.078  17.858  0.00  0.00    +0.000 A 
ATOM      9  C   UNL     1       1.862   2.069  19.128  0.00  0.00    +0.000 A 
ATOM     10  C   UNL     1       2.073   3.142  20.009  0.00  0.00    +0.000 A 
ATOM     11 CL   UNL     1       1.379   3.088  21.585  0.00  0.00    +0.000 Cl
ATOM     12  C   UNL     1       2.853   4.245  19.641  0.00  0.00    +0.000 A 
ATOM     13  C   UNL     1       3.408   4.280  18.371  0.00  0.00    +0.000 A 
ATOM     14  H   UNL     1       3.991   2.695  15.583  0.00  0.00    +0.000 HD
ENDROOT
BRANCH   1  18
ATOM     15  C   UNL     1       0.309   9.925  18.384  0.00  0.00    +0.000 C 
ATOM     16  C   UNL     1       1.392   8.938  18.604  0.00  0.00    +0.000 A 
ATOM     17  C   UNL     1       2.351   8.487  17.658  0.00  0.00    +0.000 A 
ATOM     18  C   UNL     1       3.122   7.531  18.285  0.00  0.00    +0.000 A 
ATOM     19  O   UNL     1       2.729   7.408  19.580  0.00  0.00    +0.000 OA
ATOM     20  C   UNL     1       1.670   8.242  19.767  0.00  0.00    +0.000 A 
ATOM     21  C   UNL     1       1.037   8.222  21.103  0.00  0.00    +0.000 C 
ENDBRANCH   1  18
TORSDOF 1
ENDMDL
MODEL 3
REMARK VINA RESULT:      -7.3      0.607      1.336
REMARK  Name = 
REMARK  3 active torsions:
REMARK  status: ('A' for Active; 'I' for Inactive)
REMARK    1  A    between atoms: C_1  and  C_2
REMARK    2  A    between atoms: C_4  and  C_5
REMARK    3  A    between atoms: C_19  and  C_20
REMARK                            x       y       z     vdW  Elec       q    Type
REMARK                         _______ _______ _______ _____ _____    ______ ____
ROOT
ATOM      1  C   UNL     1       3.520   7.409  18.007  0.00  0.00    +0.000 C 
ATOM      2  C   UNL     1       2.121   7.284  17.443  0.00  0.00    +0.000 C 
ATOM      3  C   UNL     1       2.410   6.752  18.808  0.00  0.00    +0.000 C 
ATOM      4  C   UNL     1       1.984   7.462  20.076  0.00  0.00    +0.000 C 
ATOM      5  O   UNL     1       1.931   8.672  20.222  0.00  0.00    +0.000 OA
ATOM      6  N   UNL     1       1.692   6.490  21.013  0.00  0.00    +0.000 N 
ATOM      7  C   UNL     1       1.815   5.208  20.478  0.00  0.00    +0.000 A 
ATOM      8  C   UNL     1       1.526   4.019  21.117  0.00  0.00    +0.000 A 
ATOM      9  C   UNL     1       1.637   2.848  20.366  0.00  0.00    +0.000 A 
ATOM     10  C   UNL     1       2.020   2.908  19.016  0.00  0.00    +0.000 A 
ATOM     11 CL   UNL     1       2.111   1.451  18.101  0.00  0.00    +0.000 Cl
ATOM     12  C   UNL     1       2.308   4.128  18.393  0.00  0.00    +0.000 A 
ATOM     13  C   UNL     1       2.232   5.295  19.137  0.00  0.00    +0.000 A 
ATOM     14  H   UNL     1       1.378   6.711  21.946  0.00  0.00    +0.000 HD
ENDROOT
BRANCH   1  18
ATOM     15  C   UNL     1       7.731   4.568  17.564  0.00  0.00    +0.000 C 
ATOM     16  C   UNL     1       6.523   5.360  17.235  0.00  0.00    +0.000 A 
ATOM     17  C   UNL     1       5.695   6.080  18.138  0.00  0.00    +0.000 A 
ATOM     18  C   UNL     1       4.660   6.616  17.401  0.00  0.00    +0.000 A 
ATOM     19  O   UNL     1       4.834   6.314  16.087  0.00  0.00    +0.000 OA
ATOM     20  C   UNL     1       5.948   5.537  15.990  0.00  0.00    +0.000 A 
ATOM     21  C   UNL     1       6.293   5.037  14.642  0.00  0.00    +0.000 C 
ENDBRANCH   1  18
TORSDOF 1
ENDMDL
MODEL 4
REMARK VINA RESULT:      -7.0      3.075      5.666
REMARK  Name = 
REMARK  3 active torsions:
REMARK  status: ('A' for Active; 'I' for Inactive)
REMARK    1  A    between atoms: C_1  and  C_2
REMARK    2  A    between atoms: C_4  and  C_5
REMARK    3  A    between atoms: C_19  and  C_20
REMARK                            x       y       z     vdW  Elec       q    Type
REMARK                         _______ _______ _______ _____ _____    ______ ____
ROOT
ATOM      1  C   UNL     1       2.519   5.081  18.545  0.00  0.00    +0.000 C 
ATOM      2  C   UNL     1       2.960   4.744  17.136  0.00  0.00    +0.000 C 
ATOM      3  C   UNL     1       3.929   4.594  18.262  0.00  0.00    +0.000 C 
ATOM      4  C   UNL     1       4.308   3.251  18.850  0.00  0.00    +0.000 C 
ATOM      5  O   UNL     1       3.560   2.293  18.959  0.00  0.00    +0.000 OA
ATOM      6  N   UNL     1       5.629   3.332  19.244  0.00  0.00    +0.000 N 
ATOM      7  C   UNL     1       6.187   4.568  18.916  0.00  0.00    +0.000 A 
ATOM      8  C   UNL     1       7.501   4.952  19.099  0.00  0.00    +0.000 A 
ATOM      9  C   UNL     1       7.870   6.210  18.620  0.00  0.00    +0.000 A 
ATOM     10  C   UNL     1       6.927   7.025  17.974  0.00  0.00    +0.000 A 
ATOM     11 CL   UNL     1       7.419   8.556  17.356  0.00  0.00    +0.000 Cl
ATOM     12  C   UNL     1       5.600   6.611  17.803  0.00  0.00    +0.000 A 
ATOM     13  C   UNL     1       5.213   5.377  18.303  0.00  0.00    +0.000 A 
ATOM     14  H   UNL     1       6.120   2.558  19.664  0.00  0.00    +0.000 HD
ENDROOT
BRANCH   1  18
ATOM     15  C   UNL     1       1.613  10.087  18.193  0.00  0.00    +0.000 C 
ATOM     16  C   UNL     1       1.821   8.726  18.741  0.00  0.00    +0.000 A 
ATOM     17  C   UNL     1       2.202   7.559  18.025  0.00  0.00    +0.000 A 
ATOM     18  C   UNL     1       2.218   6.516  18.927  0.00  0.00    +0.000 A 
ATOM     19  O   UNL     1       1.923   6.985  20.168  0.00  0.00    +0.000 OA
ATOM     20  C   UNL     1       1.662   8.316  20.052  0.00  0.00    +0.000 A 
ATOM     21  C   UNL     1       1.254   9.022  21.285  0.00  0.00    +0.000 C 
ENDBRANCH   1  18
TORSDOF 1
ENDMDL
MODEL 5
REMARK VINA RESULT:      -6.8      3.017      5.774
REMARK  Name = 
REMARK  3 active torsions:
REMARK  status: ('A' for Active; 'I' for Inactive)
REMARK    1  A    between atoms: C_1  and  C_2
REMARK    2  A    between atoms: C_4  and  C_5
REMARK    3  A    between atoms: C_19  and  C_20
REMARK                            x       y       z     vdW  Elec       q    Type
REMARK                         _______ _______ _______ _____ _____    ______ ____
ROOT
ATOM      1  C   UNL     1       2.379   4.894  18.755  0.00  0.00    +0.000 C 
ATOM      2  C   UNL     1       2.744   4.533  17.331  0.00  0.00    +0.000 C 
ATOM      3  C   UNL     1       3.779   4.423  18.401  0.00  0.00    +0.000 C 
ATOM      4  C   UNL     1       4.214   3.099  18.995  0.00  0.00    +0.000 C 
ATOM      5  O   UNL     1       3.490   2.132  19.167  0.00  0.00    +0.000 OA
ATOM      6  N   UNL     1       5.554   3.210  19.309  0.00  0.00    +0.000 N 
ATOM      7  C   UNL     1       6.071   4.447  18.923  0.00  0.00    +0.000 A 
ATOM      8  C   UNL     1       7.386   4.856  19.021  0.00  0.00    +0.000 A 
ATOM      9  C   UNL     1       7.706   6.109  18.495  0.00  0.00    +0.000 A 
ATOM     10  C   UNL     1       6.712   6.894  17.888  0.00  0.00    +0.000 A 
ATOM     11 CL   UNL     1       7.142   8.419  17.211  0.00  0.00    +0.000 Cl
ATOM     12  C   UNL     1       5.386   6.455  17.803  0.00  0.00    +0.000 A 
ATOM     13  C   UNL     1       5.049   5.227  18.351  0.00  0.00    +0.000 A 
ATOM     14  H   UNL     1       6.082   2.453  19.716  0.00  0.00    +0.000 HD
ENDROOT
BRANCH   1  18
ATOM     15  C   UNL     1       1.330   9.062  21.499  0.00  0.00    +0.000 C 
ATOM     16  C   UNL     1       1.614   8.156  20.361  0.00  0.00    +0.000 A 
ATOM     17  C   UNL     1       1.767   6.744  20.402  0.00  0.00    +0.000 A 
ATOM     18  C   UNL     1       2.076   6.332  19.123  0.00  0.00    +0.000 A 
ATOM     19  O   UNL     1       2.067   7.403  18.286  0.00  0.00    +0.000 OA
ATOM     20  C   UNL     1       1.809   8.508  19.037  0.00  0.00    +0.000 A 
ATOM     21  C   UNL     1       1.815   9.807  18.331  0.00  0.00    +0.000 C 
ENDBRANCH   1  18
TORSDOF 1
ENDMDL
MODEL 6
REMARK VINA RESULT:      -6.8      2.658      5.553
REMARK  Name = 
REMARK  3 active torsions:
REMARK  status: ('A' for Active; 'I' for Inactive)
REMARK    1  A    between atoms: C_1  and  C_2
REMARK    2  A    between atoms: C_4  and  C_5
REMARK    3  A    between atoms: C_19  and  C_20
REMARK                            x       y       z     vdW  Elec       q    Type
REMARK                         _______ _______ _______ _____ _____    ______ ____
ROOT
ATOM      1  C   UNL     1       2.133   4.886  20.004  0.00  0.00    +0.000 C 
ATOM      2  C   UNL     1       1.785   3.953  18.863  0.00  0.00    +0.000 C 
ATOM      3  C   UNL     1       3.218   4.165  19.224  0.00  0.00    +0.000 C 
ATOM      4  C   UNL     1       4.034   3.146  19.991  0.00  0.00    +0.000 C 
ATOM      5  O   UNL     1       3.604   2.410  20.863  0.00  0.00    +0.000 OA
ATOM      6  N   UNL     1       5.333   3.226  19.527  0.00  0.00    +0.000 N 
ATOM      7  C   UNL     1       5.450   4.146  18.485  0.00  0.00    +0.000 A 
ATOM      8  C   UNL     1       6.587   4.415  17.750  0.00  0.00    +0.000 A 
ATOM      9  C   UNL     1       6.463   5.315  16.690  0.00  0.00    +0.000 A 
ATOM     10  C   UNL     1       5.219   5.898  16.401  0.00  0.00    +0.000 A 
ATOM     11 CL   UNL     1       5.084   6.975  15.062  0.00  0.00    +0.000 Cl
ATOM     12  C   UNL     1       4.082   5.608  17.164  0.00  0.00    +0.000 A 
ATOM     13  C   UNL     1       4.199   4.741  18.239  0.00  0.00    +0.000 A 
ATOM     14  H   UNL     1       6.074   2.640  19.881  0.00  0.00    +0.000 HD
ENDROOT
BRANCH   1  18
ATOM     15  C   UNL     1       1.039   9.728  21.171  0.00  0.00    +0.000 C 
ATOM     16  C   UNL     1       1.405   8.507  20.416  0.00  0.00    +0.000 A 
ATOM     17  C   UNL     1       1.444   7.173  20.903  0.00  0.00    +0.000 A 
ATOM     18  C   UNL     1       1.893   6.376  19.871  0.00  0.00    +0.000 A 
ATOM     19  O   UNL     1       2.079   7.135  18.759  0.00  0.00    +0.000 OA
ATOM     20  C   UNL     1       1.805   8.426  19.094  0.00  0.00    +0.000 A 
ATOM     21  C   UNL     1       2.005   9.442  18.039  0.00  0.00    +0.000 C 
ENDBRANCH   1  18
TORSDOF 1
ENDMDL
MODEL 7
REMARK VINA RESULT:      -6.5      2.299      4.925
REMARK  Name = 
REMARK  3 active torsions:
REMARK  status: ('A' for Active; 'I' for Inactive)
REMARK    1  A    between atoms: C_1  and  C_2
REMARK    2  A    between atoms: C_4  and  C_5
REMARK    3  A    between atoms: C_19  and  C_20
REMARK                            x       y       z     vdW  Elec       q    Type
REMARK                         _______ _______ _______ _____ _____    ______ ____
ROOT
ATOM      1  C   UNL     1       4.115   6.841  17.538  0.00  0.00    +0.000 C 
ATOM      2  C   UNL     1       5.193   6.202  18.388  0.00  0.00    +0.000 C 
ATOM      3  C   UNL     1       4.262   5.331  17.611  0.00  0.00    +0.000 C 
ATOM      4  C   UNL     1       4.665   4.632  16.329  0.00  0.00    +0.000 C 
ATOM      5  O   UNL     1       5.438   5.077  15.496  0.00  0.00    +0.000 OA
ATOM      6  N   UNL     1       3.988   3.429  16.286  0.00  0.00    +0.000 N 
ATOM      7  C   UNL     1       3.229   3.226  17.439  0.00  0.00    +0.000 A 
ATOM      8  C   UNL     1       2.494   2.100  17.752  0.00  0.00    +0.000 A 
ATOM      9  C   UNL     1       1.875   2.070  19.002  0.00  0.00    +0.000 A 
ATOM     10  C   UNL     1       2.018   3.150  19.888  0.00  0.00    +0.000 A 
ATOM     11 CL   UNL     1       1.277   3.071  21.441  0.00  0.00    +0.000 Cl
ATOM     12  C   UNL     1       2.769   4.281  19.544  0.00  0.00    +0.000 A 
ATOM     13  C   UNL     1       3.363   4.336  18.292  0.00  0.00    +0.000 A 
ATOM     14  H   UNL     1       4.092   2.773  15.527  0.00  0.00    +0.000 HD
ENDROOT
BRANCH   1  18
ATOM     15  C   UNL     1       0.870   8.568  21.073  0.00  0.00    +0.000 C 
ATOM     16  C   UNL     1       1.544   8.322  19.777  0.00  0.00    +0.000 A 
ATOM     17  C   UNL     1       2.625   7.434  19.523  0.00  0.00    +0.000 A 
ATOM     18  C   UNL     1       2.962   7.574  18.194  0.00  0.00    +0.000 A 
ATOM     19  O   UNL     1       2.115   8.456  17.600  0.00  0.00    +0.000 OA
ATOM     20  C   UNL     1       1.272   8.924  18.562  0.00  0.00    +0.000 A 
ATOM     21  C   UNL     1       0.296   9.953  18.145  0.00  0.00    +0.000 C 
ENDBRANCH   1  18
TORSDOF 1
ENDMDL
MODEL 8
REMARK VINA RESULT:      -6.4      2.642      5.420
REMARK  Name = 
REMARK  3 active torsions:
REMARK  status: ('A' for Active; 'I' for Inactive)
REMARK    1  A    between atoms: C_1  and  C_2
REMARK    2  A    between atoms: C_4  and  C_5
REMARK    3  A    between atoms: C_19  and  C_20
REMARK                            x       y       z     vdW  Elec       q    Type
REMARK                         _______ _______ _______ _____ _____    ______ ____
ROOT
ATOM      1  C   UNL     1       2.121   4.939  20.017  0.00  0.00    +0.000 C 
ATOM      2  C   UNL     1       1.740   4.026  18.870  0.00  0.00    +0.000 C 
ATOM      3  C   UNL     1       3.180   4.188  19.230  0.00  0.00    +0.000 C 
ATOM      4  C   UNL     1       3.963   3.137  19.988  0.00  0.00    +0.000 C 
ATOM      5  O   UNL     1       3.509   2.410  20.857  0.00  0.00    +0.000 OA
ATOM      6  N   UNL     1       5.263   3.177  19.523  0.00  0.00    +0.000 N 
ATOM      7  C   UNL     1       5.409   4.099  18.487  0.00  0.00    +0.000 A 
ATOM      8  C   UNL     1       6.553   4.335  17.751  0.00  0.00    +0.000 A 
ATOM      9  C   UNL     1       6.457   5.246  16.698  0.00  0.00    +0.000 A 
ATOM     10  C   UNL     1       5.233   5.873  16.415  0.00  0.00    +0.000 A 
ATOM     11 CL   UNL     1       5.132   6.962  15.084  0.00  0.00    +0.000 Cl
ATOM     12  C   UNL     1       4.088   5.615  17.178  0.00  0.00    +0.000 A 
ATOM     13  C   UNL     1       4.178   4.737  18.248  0.00  0.00    +0.000 A 
ATOM     14  H   UNL     1       5.984   2.564  19.871  0.00  0.00    +0.000 HD
ENDROOT
BRANCH   1  18
ATOM     15  C   UNL     1       1.783   9.620  18.024  0.00  0.00    +0.000 C 
ATOM     16  C   UNL     1       1.787   8.494  18.986  0.00  0.00    +0.000 A 
ATOM     17  C   UNL     1       2.122   7.138  18.723  0.00  0.00    +0.000 A 
ATOM     18  C   UNL     1       1.930   6.437  19.895  0.00  0.00    +0.000 A 
ATOM     19  O   UNL     1       1.550   7.293  20.879  0.00  0.00    +0.000 OA
ATOM     20  C   UNL     1       1.442   8.532  20.325  0.00  0.00    +0.000 A 
ATOM     21  C   UNL     1       0.975   9.618  21.213  0.00  0.00    +0.000 C 
ENDBRANCH   1  18
TORSDOF 1
ENDMDL
MODEL 9
REMARK VINA RESULT:      -6.2      5.847      7.731
REMARK  Name = 
REMARK  3 active torsions:
REMARK  status: ('A' for Active; 'I' for Inactive)
REMARK    1  A    between atoms: C_1  and  C_2
REMARK    2  A    between atoms: C_4  and  C_5
REMARK    3  A    between atoms: C_19  and  C_20
REMARK                            x       y       z     vdW  Elec       q    Type
REMARK                         _______ _______ _______ _____ _____    ______ ____
ROOT
ATOM      1  C   UNL     1       0.252  12.201  19.943  0.00  0.00    +0.000 C 
ATOM      2  C   UNL     1       0.180  13.200  18.808  0.00  0.00    +0.000 C 
ATOM      3  C   UNL     1      -1.085  12.677  19.404  0.00  0.00    +0.000 C 
ATOM      4  C   UNL     1      -1.945  13.484  20.353  0.00  0.00    +0.000 C 
ATOM      5  O   UNL     1      -1.529  14.285  21.173  0.00  0.00    +0.000 OA
ATOM      6  N   UNL     1      -3.260  13.128  20.122  0.00  0.00    +0.000 N 
ATOM      7  C   UNL     1      -3.367  12.218  19.070  0.00  0.00    +0.000 A 
ATOM      8  C   UNL     1      -4.536  11.716  18.533  0.00  0.00    +0.000 A 
ATOM      9  C   UNL     1      -4.419  10.879  17.423  0.00  0.00    +0.000 A 
ATOM     10  C   UNL     1      -3.154  10.584  16.890  0.00  0.00    +0.000 A 
ATOM     11 CL   UNL     1      -3.040   9.579  15.494  0.00  0.00    +0.000 Cl
ATOM     12  C   UNL     1      -1.984  11.106  17.455  0.00  0.00    +0.000 A 
ATOM     13  C   UNL     1      -2.085  11.913  18.578  0.00  0.00    +0.000 A 
ATOM     14  H   UNL     1      -4.031  13.534  20.630  0.00  0.00    +0.000 HD
ENDROOT
BRANCH   1  18
ATOM     15  C   UNL     1       2.543   8.222  17.724  0.00  0.00    +0.000 C 
ATOM     16  C   UNL     1       1.795   9.061  18.689  0.00  0.00    +0.000 A 
ATOM     17  C   UNL     1       1.391  10.413  18.522  0.00  0.00    +0.000 A 
ATOM     18  C   UNL     1       0.774  10.800  19.693  0.00  0.00    +0.000 A 
ATOM     19  O   UNL     1       0.726   9.747  20.550  0.00  0.00    +0.000 OA
ATOM     20  C   UNL     1       1.361   8.703  19.952  0.00  0.00    +0.000 A 
ATOM     21  C   UNL     1       1.481   7.459  20.742  0.00  0.00    +0.000 C 
ENDBRANCH   1  18
TORSDOF 1
ENDMDL
