MODEL 1
REMARK VINA RESULT:      -7.2      0.000      0.000
REMARK  Name = 
REMARK  1 active torsions:
REMARK  status: ('A' for Active; 'I' for Inactive)
REMARK    1  A    between atoms: C_1  and  N_2
REMARK                            x       y       z     vdW  Elec       q    Type
REMARK                         _______ _______ _______ _____ _____    ______ ____
ROOT
ATOM      1  C   UNL     1      -0.859  11.128  22.733  0.00  0.00    +0.000 C 
ATOM      2  N   UNL     1      -0.235  10.165  21.857  0.00  0.00    +0.000 N 
ATOM      3  C   UNL     1      -0.173   8.824  22.099  0.00  0.00    +0.000 A 
ATOM      4  C   UNL     1       0.449   8.239  21.022  0.00  0.00    +0.000 A 
ATOM      5  C   UNL     1       0.800   9.261  20.093  0.00  0.00    +0.000 A 
ATOM      6  C   UNL     1       1.408   9.315  18.816  0.00  0.00    +0.000 A 
ATOM      7  N   UNL     1       1.879   8.192  18.119  0.00  0.00    +0.000 N 
ATOM      8  C   UNL     1       2.508   7.141  18.697  0.00  0.00    +0.000 C 
ATOM      9  N   UNL     1       2.912   7.043  19.924  0.00  0.00    +0.000 NA
ATOM     10  C   UNL     1       3.483   5.711  20.021  0.00  0.00    +0.000 C 
ATOM     11  C   UNL     1       2.942   4.963  18.804  0.00  0.00    +0.000 C 
ATOM     12  C   UNL     1       1.598   4.219  19.073  0.00  0.00    +0.000 C 
ATOM     13  N   UNL     1       1.719   2.743  18.901  0.00  0.00    +0.000 NA
ATOM     14  C   UNL     1       2.126   2.449  17.509  0.00  0.00    +0.000 C 
ATOM     15  C   UNL     1       3.490   3.069  17.173  0.00  0.00    +0.000 C 
ATOM     16  C   UNL     1       3.985   3.905  18.362  0.00  0.00    +0.000 C 
ATOM     17  C   UNL     1       4.132   2.898  19.532  0.00  0.00    +0.000 C 
ATOM     18  C   UNL     1       2.765   2.246  19.820  0.00  0.00    +0.000 C 
ATOM     19  O   UNL     1       2.720   6.048  17.884  0.00  0.00    +0.000 OA
ATOM     20  N   UNL     1       1.449  10.524  18.194  0.00  0.00    +0.000 NA
ATOM     21  C   UNL     1       0.995  11.612  18.861  0.00  0.00    +0.000 A 
ATOM     22  N   UNL     1       0.433  11.672  20.083  0.00  0.00    +0.000 NA
ATOM     23  C   UNL     1       0.348  10.456  20.643  0.00  0.00    +0.000 A 
ATOM     24  H   UNL     1       1.965   8.326  17.124  0.00  0.00    +0.000 HD
ENDROOT
TORSDOF 0
ENDMDL
MODEL 2
REMARK VINA RESULT:      -7.1      2.145      3.537
REMARK  Name = 
REMARK  1 active torsions:
REMARK  status: ('A' for Active; 'I' for Inactive)
REMARK    1  A    between atoms: C_1  and  N_2
REMARK                            x       y       z     vdW  Elec       q    Type
REMARK                         _______ _______ _______ _____ _____    ______ ____
ROOT
ATOM      1  C   UNL     1      -1.534  11.543  18.818  0.00  0.00    +0.000 C 
ATOM      2  N   UNL     1      -0.483  10.554  18.882  0.00  0.00    +0.000 N 
ATOM      3  C   UNL     1       0.326  10.215  17.839  0.00  0.00    +0.000 A 
ATOM      4  C   UNL     1       1.225   9.283  18.299  0.00  0.00    +0.000 A 
ATOM      5  C   UNL     1       0.944   9.026  19.673  0.00  0.00    +0.000 A 
ATOM      6  C   UNL     1       1.504   8.225  20.698  0.00  0.00    +0.000 A 
ATOM      7  N   UNL     1       2.608   7.377  20.520  0.00  0.00    +0.000 N 
ATOM      8  C   UNL     1       2.827   6.628  19.413  0.00  0.00    +0.000 C 
ATOM      9  N   UNL     1       2.023   6.445  18.415  0.00  0.00    +0.000 NA
ATOM     10  C   UNL     1       2.760   5.596  17.495  0.00  0.00    +0.000 C 
ATOM     11  C   UNL     1       4.216   5.707  17.942  0.00  0.00    +0.000 C 
ATOM     12  C   UNL     1       5.001   6.856  17.238  0.00  0.00    +0.000 C 
ATOM     13  N   UNL     1       6.145   6.351  16.426  0.00  0.00    +0.000 NA
ATOM     14  C   UNL     1       7.091   5.637  17.312  0.00  0.00    +0.000 C 
ATOM     15  C   UNL     1       6.432   4.427  17.989  0.00  0.00    +0.000 C 
ATOM     16  C   UNL     1       4.942   4.376  17.619  0.00  0.00    +0.000 C 
ATOM     17  C   UNL     1       4.912   4.206  16.077  0.00  0.00    +0.000 C 
ATOM     18  C   UNL     1       5.626   5.403  15.418  0.00  0.00    +0.000 C 
ATOM     19  O   UNL     1       4.059   6.013  19.340  0.00  0.00    +0.000 OA
ATOM     20  N   UNL     1       0.993   8.365  21.951  0.00  0.00    +0.000 NA
ATOM     21  C   UNL     1      -0.071   9.184  22.128  0.00  0.00    +0.000 A 
ATOM     22  N   UNL     1      -0.694   9.958  21.220  0.00  0.00    +0.000 NA
ATOM     23  C   UNL     1      -0.127   9.847  20.010  0.00  0.00    +0.000 A 
ATOM     24  H   UNL     1       3.095   7.145  21.371  0.00  0.00    +0.000 HD
ENDROOT
TORSDOF 0
ENDMDL
MODEL 3
REMARK VINA RESULT:      -6.5      2.144      7.251
REMARK  Name = 
REMARK  1 active torsions:
REMARK  status: ('A' for Active; 'I' for Inactive)
REMARK    1  A    between atoms: C_1  and  N_2
REMARK                            x       y       z     vdW  Elec       q    Type
REMARK                         _______ _______ _______ _____ _____    ______ ____
ROOT
ATOM      1  C   UNL     1       2.637   3.306  20.316  0.00  0.00    +0.000 C 
ATOM      2  N   UNL     1       2.495   4.702  19.973  0.00  0.00    +0.000 N 
ATOM      3  C   UNL     1       1.800   5.613  20.713  0.00  0.00    +0.000 A 
ATOM      4  C   UNL     1       1.935   6.833  20.096  0.00  0.00    +0.000 A 
ATOM      5  C   UNL     1       2.726   6.661  18.923  0.00  0.00    +0.000 A 
ATOM      6  C   UNL     1       3.240   7.501  17.905  0.00  0.00    +0.000 A 
ATOM      7  N   UNL     1       3.014   8.884  17.835  0.00  0.00    +0.000 N 
ATOM      8  C   UNL     1       1.837   9.482  18.139  0.00  0.00    +0.000 C 
ATOM      9  N   UNL     1       0.705   8.908  18.397  0.00  0.00    +0.000 NA
ATOM     10  C   UNL     1      -0.207  10.000  18.688  0.00  0.00    +0.000 C 
ATOM     11  C   UNL     1       0.695  11.199  18.970  0.00  0.00    +0.000 C 
ATOM     12  C   UNL     1       1.083  11.351  20.473  0.00  0.00    +0.000 C 
ATOM     13  N   UNL     1       0.586  12.627  21.064  0.00  0.00    +0.000 NA
ATOM     14  C   UNL     1       1.179  13.765  20.329  0.00  0.00    +0.000 C 
ATOM     15  C   UNL     1       0.780  13.754  18.846  0.00  0.00    +0.000 C 
ATOM     16  C   UNL     1      -0.043  12.494  18.543  0.00  0.00    +0.000 C 
ATOM     17  C   UNL     1      -1.307  12.609  19.434  0.00  0.00    +0.000 C 
ATOM     18  C   UNL     1      -0.883  12.674  20.914  0.00  0.00    +0.000 C 
ATOM     19  O   UNL     1       1.863  10.859  18.200  0.00  0.00    +0.000 OA
ATOM     20  N   UNL     1       4.083   6.939  16.998  0.00  0.00    +0.000 NA
ATOM     21  C   UNL     1       4.308   5.604  17.062  0.00  0.00    +0.000 A 
ATOM     22  N   UNL     1       3.844   4.719  17.962  0.00  0.00    +0.000 NA
ATOM     23  C   UNL     1       3.069   5.314  18.881  0.00  0.00    +0.000 A 
ATOM     24  H   UNL     1       3.691   9.389  17.288  0.00  0.00    +0.000 HD
ENDROOT
TORSDOF 0
ENDMDL
MODEL 4
REMARK VINA RESULT:      -6.5      9.026      9.826
REMARK  Name = 
REMARK  1 active torsions:
REMARK  status: ('A' for Active; 'I' for Inactive)
REMARK    1  A    between atoms: C_1  and  N_2
REMARK                            x       y       z     vdW  Elec       q    Type
REMARK                         _______ _______ _______ _____ _____    ______ ____
ROOT
ATOM      1  C   UNL     1       3.249  18.494  21.440  0.00  0.00    +0.000 C 
ATOM      2  N   UNL     1       4.126  17.549  20.788  0.00  0.00    +0.000 N 
ATOM      3  C   UNL     1       5.283  17.068  21.327  0.00  0.00    +0.000 A 
ATOM      4  C   UNL     1       5.807  16.162  20.436  0.00  0.00    +0.000 A 
ATOM      5  C   UNL     1       4.950  16.100  19.299  0.00  0.00    +0.000 A 
ATOM      6  C   UNL     1       4.910  15.364  18.090  0.00  0.00    +0.000 A 
ATOM      7  N   UNL     1       5.874  14.419  17.710  0.00  0.00    +0.000 N 
ATOM      8  C   UNL     1       7.205  14.556  17.923  0.00  0.00    +0.000 C 
ATOM      9  N   UNL     1       7.828  15.603  18.362  0.00  0.00    +0.000 NA
ATOM     10  C   UNL     1       9.223  15.202  18.434  0.00  0.00    +0.000 C 
ATOM     11  C   UNL     1       9.194  13.676  18.384  0.00  0.00    +0.000 C 
ATOM     12  C   UNL     1       9.107  13.005  19.789  0.00  0.00    +0.000 C 
ATOM     13  N   UNL     1      10.295  12.155  20.090  0.00  0.00    +0.000 NA
ATOM     14  C   UNL     1      10.388  11.077  19.081  0.00  0.00    +0.000 C 
ATOM     15  C   UNL     1      10.565  11.639  17.663  0.00  0.00    +0.000 C 
ATOM     16  C   UNL     1      10.492  13.172  17.703  0.00  0.00    +0.000 C 
ATOM     17  C   UNL     1      11.676  13.612  18.602  0.00  0.00    +0.000 C 
ATOM     18  C   UNL     1      11.508  12.995  20.004  0.00  0.00    +0.000 C 
ATOM     19  O   UNL     1       7.972  13.441  17.659  0.00  0.00    +0.000 OA
ATOM     20  N   UNL     1       3.814  15.521  17.299  0.00  0.00    +0.000 NA
ATOM     21  C   UNL     1       2.879  16.431  17.662  0.00  0.00    +0.000 A 
ATOM     22  N   UNL     1       2.841  17.200  18.766  0.00  0.00    +0.000 NA
ATOM     23  C   UNL     1       3.900  16.975  19.557  0.00  0.00    +0.000 A 
ATOM     24  H   UNL     1       5.555  13.750  17.028  0.00  0.00    +0.000 HD
ENDROOT
TORSDOF 0
ENDMDL
MODEL 5
REMARK VINA RESULT:      -6.3      9.351     10.755
REMARK  Name = 
REMARK  1 active torsions:
REMARK  status: ('A' for Active; 'I' for Inactive)
REMARK    1  A    between atoms: C_1  and  N_2
REMARK                            x       y       z     vdW  Elec       q    Type
REMARK                         _______ _______ _______ _____ _____    ______ ____
ROOT
ATOM      1  C   UNL     1       7.549  15.712  27.171  0.00  0.00    +0.000 C 
ATOM      2  N   UNL     1       7.910  14.993  25.970  0.00  0.00    +0.000 N 
ATOM      3  C   UNL     1       8.717  15.485  24.988  0.00  0.00    +0.000 A 
ATOM      4  C   UNL     1       8.865  14.499  24.043  0.00  0.00    +0.000 A 
ATOM      5  C   UNL     1       8.104  13.365  24.452  0.00  0.00    +0.000 A 
ATOM      6  C   UNL     1       7.871  12.059  23.957  0.00  0.00    +0.000 A 
ATOM      7  N   UNL     1       8.416  11.558  22.765  0.00  0.00    +0.000 N 
ATOM      8  C   UNL     1       8.558  12.280  21.627  0.00  0.00    +0.000 C 
ATOM      9  N   UNL     1       8.102  13.468  21.386  0.00  0.00    +0.000 NA
ATOM     10  C   UNL     1       8.565  13.778  20.044  0.00  0.00    +0.000 C 
ATOM     11  C   UNL     1       9.684  12.774  19.775  0.00  0.00    +0.000 C 
ATOM     12  C   UNL     1      11.097  13.283  20.193  0.00  0.00    +0.000 C 
ATOM     13  N   UNL     1      12.030  13.392  19.035  0.00  0.00    +0.000 NA
ATOM     14  C   UNL     1      12.197  12.057  18.420  0.00  0.00    +0.000 C 
ATOM     15  C   UNL     1      10.865  11.503  17.893  0.00  0.00    +0.000 C 
ATOM     16  C   UNL     1       9.726  12.467  18.255  0.00  0.00    +0.000 C 
ATOM     17  C   UNL     1      10.073  13.796  17.534  0.00  0.00    +0.000 C 
ATOM     18  C   UNL     1      11.438  14.307  18.037  0.00  0.00    +0.000 C 
ATOM     19  O   UNL     1       9.291  11.680  20.625  0.00  0.00    +0.000 OA
ATOM     20  N   UNL     1       7.149  11.213  24.741  0.00  0.00    +0.000 NA
ATOM     21  C   UNL     1       6.622  11.690  25.894  0.00  0.00    +0.000 A 
ATOM     22  N   UNL     1       6.756  12.915  26.433  0.00  0.00    +0.000 NA
ATOM     23  C   UNL     1       7.525  13.705  25.669  0.00  0.00    +0.000 A 
ATOM     24  H   UNL     1       8.452  10.553  22.714  0.00  0.00    +0.000 HD
ENDROOT
TORSDOF 0
ENDMDL
MODEL 6
REMARK VINA RESULT:      -6.3      5.559     10.246
REMARK  Name = 
REMARK  1 active torsions:
REMARK  status: ('A' for Active; 'I' for Inactive)
REMARK    1  A    between atoms: C_1  and  N_2
REMARK                            x       y       z     vdW  Elec       q    Type
REMARK                         _______ _______ _______ _____ _____    ______ ____
ROOT
ATOM      1  C   UNL     1       1.557  11.039  18.686  0.00  0.00    +0.000 C 
ATOM      2  N   UNL     1       0.442  11.280  19.572  0.00  0.00    +0.000 N 
ATOM      3  C   UNL     1      -0.704  11.928  19.214  0.00  0.00    +0.000 A 
ATOM      4  C   UNL     1      -1.541  11.917  20.304  0.00  0.00    +0.000 A 
ATOM      5  C   UNL     1      -0.877  11.253  21.376  0.00  0.00    +0.000 A 
ATOM      6  C   UNL     1      -1.196  10.892  22.708  0.00  0.00    +0.000 A 
ATOM      7  N   UNL     1      -2.417  11.186  23.333  0.00  0.00    +0.000 N 
ATOM      8  C   UNL     1      -3.097  12.347  23.176  0.00  0.00    +0.000 C 
ATOM      9  N   UNL     1      -2.697  13.417  22.566  0.00  0.00    +0.000 NA
ATOM     10  C   UNL     1      -3.816  14.339  22.661  0.00  0.00    +0.000 C 
ATOM     11  C   UNL     1      -5.013  13.464  23.027  0.00  0.00    +0.000 C 
ATOM     12  C   UNL     1      -5.792  12.920  21.790  0.00  0.00    +0.000 C 
ATOM     13  N   UNL     1      -7.201  13.404  21.744  0.00  0.00    +0.000 NA
ATOM     14  C   UNL     1      -7.910  12.947  22.960  0.00  0.00    +0.000 C 
ATOM     15  C   UNL     1      -7.268  13.507  24.237  0.00  0.00    +0.000 C 
ATOM     16  C   UNL     1      -6.005  14.302  23.874  0.00  0.00    +0.000 C 
ATOM     17  C   UNL     1      -6.501  15.464  22.975  0.00  0.00    +0.000 C 
ATOM     18  C   UNL     1      -7.190  14.882  21.724  0.00  0.00    +0.000 C 
ATOM     19  O   UNL     1      -4.367  12.375  23.711  0.00  0.00    +0.000 OA
ATOM     20  N   UNL     1      -0.293  10.130  23.382  0.00  0.00    +0.000 NA
ATOM     21  C   UNL     1       0.887   9.842  22.783  0.00  0.00    +0.000 A 
ATOM     22  N   UNL     1       1.298  10.164  21.543  0.00  0.00    +0.000 NA
ATOM     23  C   UNL     1       0.361  10.858  20.880  0.00  0.00    +0.000 A 
ATOM     24  H   UNL     1      -2.634  10.596  24.120  0.00  0.00    +0.000 HD
ENDROOT
TORSDOF 0
ENDMDL
MODEL 7
REMARK VINA RESULT:      -6.3      1.926      7.135
REMARK  Name = 
REMARK  1 active torsions:
REMARK  status: ('A' for Active; 'I' for Inactive)
REMARK    1  A    between atoms: C_1  and  N_2
REMARK                            x       y       z     vdW  Elec       q    Type
REMARK                         _______ _______ _______ _____ _____    ______ ____
ROOT
ATOM      1  C   UNL     1       2.909   1.962  18.206  0.00  0.00    +0.000 C 
ATOM      2  N   UNL     1       2.821   3.403  18.253  0.00  0.00    +0.000 N 
ATOM      3  C   UNL     1       1.939   4.100  19.025  0.00  0.00    +0.000 A 
ATOM      4  C   UNL     1       2.193   5.437  18.837  0.00  0.00    +0.000 A 
ATOM      5  C   UNL     1       3.259   5.566  17.900  0.00  0.00    +0.000 A 
ATOM      6  C   UNL     1       3.991   6.634  17.327  0.00  0.00    +0.000 A 
ATOM      7  N   UNL     1       3.754   7.989  17.602  0.00  0.00    +0.000 N 
ATOM      8  C   UNL     1       2.523   8.533  17.761  0.00  0.00    +0.000 C 
ATOM      9  N   UNL     1       1.379   7.965  17.553  0.00  0.00    +0.000 NA
ATOM     10  C   UNL     1       0.394   8.972  17.908  0.00  0.00    +0.000 C 
ATOM     11  C   UNL     1       1.164   9.997  18.737  0.00  0.00    +0.000 C 
ATOM     12  C   UNL     1       1.156   9.698  20.268  0.00  0.00    +0.000 C 
ATOM     13  N   UNL     1       0.493  10.776  21.056  0.00  0.00    +0.000 NA
ATOM     14  C   UNL     1       1.222  12.046  20.850  0.00  0.00    +0.000 C 
ATOM     15  C   UNL     1       1.211  12.475  19.375  0.00  0.00    +0.000 C 
ATOM     16  C   UNL     1       0.524  11.394  18.529  0.00  0.00    +0.000 C 
ATOM     17  C   UNL     1      -0.926  11.313  19.071  0.00  0.00    +0.000 C 
ATOM     18  C   UNL     1      -0.892  10.934  20.565  0.00  0.00    +0.000 C 
ATOM     19  O   UNL     1       2.497   9.834  18.218  0.00  0.00    +0.000 OA
ATOM     20  N   UNL     1       5.051   6.312  16.537  0.00  0.00    +0.000 NA
ATOM     21  C   UNL     1       5.286   5.005  16.270  0.00  0.00    +0.000 A 
ATOM     22  N   UNL     1       4.633   3.924  16.734  0.00  0.00    +0.000 NA
ATOM     23  C   UNL     1       3.636   4.271  17.561  0.00  0.00    +0.000 A 
ATOM     24  H   UNL     1       4.534   8.596  17.409  0.00  0.00    +0.000 HD
ENDROOT
TORSDOF 0
ENDMDL
MODEL 8
REMARK VINA RESULT:      -6.2      4.570      9.721
REMARK  Name = 
REMARK  1 active torsions:
REMARK  status: ('A' for Active; 'I' for Inactive)
REMARK    1  A    between atoms: C_1  and  N_2
REMARK                            x       y       z     vdW  Elec       q    Type
REMARK                         _______ _______ _______ _____ _____    ______ ____
ROOT
ATOM      1  C   UNL     1       1.562   9.174  18.256  0.00  0.00    +0.000 C 
ATOM      2  N   UNL     1       0.605   9.774  19.156  0.00  0.00    +0.000 N 
ATOM      3  C   UNL     1      -0.532  10.416  18.761  0.00  0.00    +0.000 A 
ATOM      4  C   UNL     1      -1.203  10.803  19.896  0.00  0.00    +0.000 A 
ATOM      5  C   UNL     1      -0.440  10.399  21.030  0.00  0.00    +0.000 A 
ATOM      6  C   UNL     1      -0.589  10.464  22.437  0.00  0.00    +0.000 A 
ATOM      7  N   UNL     1      -1.685  11.053  23.087  0.00  0.00    +0.000 N 
ATOM      8  C   UNL     1      -2.297  12.190  22.676  0.00  0.00    +0.000 C 
ATOM      9  N   UNL     1      -1.914  12.994  21.737  0.00  0.00    +0.000 NA
ATOM     10  C   UNL     1      -2.940  14.022  21.688  0.00  0.00    +0.000 C 
ATOM     11  C   UNL     1      -4.131  13.421  22.431  0.00  0.00    +0.000 C 
ATOM     12  C   UNL     1      -5.115  12.639  21.508  0.00  0.00    +0.000 C 
ATOM     13  N   UNL     1      -6.479  13.241  21.487  0.00  0.00    +0.000 NA
ATOM     14  C   UNL     1      -7.037  13.224  22.857  0.00  0.00    +0.000 C 
ATOM     15  C   UNL     1      -6.181  14.048  23.830  0.00  0.00    +0.000 C 
ATOM     16  C   UNL     1      -4.931  14.566  23.106  0.00  0.00    +0.000 C 
ATOM     17  C   UNL     1      -5.467  15.475  21.969  0.00  0.00    +0.000 C 
ATOM     18  C   UNL     1      -6.368  14.643  21.034  0.00  0.00    +0.000 C 
ATOM     19  O   UNL     1      -3.472  12.505  23.325  0.00  0.00    +0.000 OA
ATOM     20  N   UNL     1       0.345   9.829  23.195  0.00  0.00    +0.000 NA
ATOM     21  C   UNL     1       1.404   9.257  22.573  0.00  0.00    +0.000 A 
ATOM     22  N   UNL     1       1.654   9.171  21.253  0.00  0.00    +0.000 NA
ATOM     23  C   UNL     1       0.683   9.748  20.531  0.00  0.00    +0.000 A 
ATOM     24  H   UNL     1      -1.828  10.735  24.032  0.00  0.00    +0.000 HD
ENDROOT
TORSDOF 0
ENDMDL
MODEL 9
REMARK VINA RESULT:      -6.2      1.843      1.967
REMARK  Name = 
REMARK  1 active torsions:
REMARK  status: ('A' for Active; 'I' for Inactive)
REMARK    1  A    between atoms: C_1  and  N_2
REMARK                            x       y       z     vdW  Elec       q    Type
REMARK                         _______ _______ _______ _____ _____    ______ ____
ROOT
ATOM      1  C   UNL     1      -2.227  12.519  19.351  0.00  0.00    +0.000 C 
ATOM      2  N   UNL     1      -1.268  11.467  19.105  0.00  0.00    +0.000 N 
ATOM      3  C   UNL     1      -1.548  10.134  19.166  0.00  0.00    +0.000 A 
ATOM      4  C   UNL     1      -0.403   9.456  18.823  0.00  0.00    +0.000 A 
ATOM      5  C   UNL     1       0.624  10.408  18.562  0.00  0.00    +0.000 A 
ATOM      6  C   UNL     1       1.977  10.363  18.144  0.00  0.00    +0.000 A 
ATOM      7  N   UNL     1       2.684   9.178  17.889  0.00  0.00    +0.000 N 
ATOM      8  C   UNL     1       2.567   8.045  18.622  0.00  0.00    +0.000 C 
ATOM      9  N   UNL     1       1.925   7.891  19.736  0.00  0.00    +0.000 NA
ATOM     10  C   UNL     1       2.093   6.487  20.070  0.00  0.00    +0.000 C 
ATOM     11  C   UNL     1       2.545   5.827  18.769  0.00  0.00    +0.000 C 
ATOM     12  C   UNL     1       1.368   5.300  17.892  0.00  0.00    +0.000 C 
ATOM     13  N   UNL     1       1.417   3.822  17.701  0.00  0.00    +0.000 NA
ATOM     14  C   UNL     1       2.682   3.463  17.021  0.00  0.00    +0.000 C 
ATOM     15  C   UNL     1       3.908   3.865  17.852  0.00  0.00    +0.000 C 
ATOM     16  C   UNL     1       3.455   4.619  19.110  0.00  0.00    +0.000 C 
ATOM     17  C   UNL     1       2.585   3.606  19.900  0.00  0.00    +0.000 C 
ATOM     18  C   UNL     1       1.389   3.174  19.029  0.00  0.00    +0.000 C 
ATOM     19  O   UNL     1       3.189   6.929  18.104  0.00  0.00    +0.000 OA
ATOM     20  N   UNL     1       2.591  11.549  17.886  0.00  0.00    +0.000 NA
ATOM     21  C   UNL     1       1.913  12.696  18.128  0.00  0.00    +0.000 A 
ATOM     22  N   UNL     1       0.645  12.847  18.554  0.00  0.00    +0.000 NA
ATOM     23  C   UNL     1       0.046  11.661  18.737  0.00  0.00    +0.000 A 
ATOM     24  H   UNL     1       3.487   9.294  17.292  0.00  0.00    +0.000 HD
ENDROOT
TORSDOF 0
ENDMDL
