MODEL 1
REMARK VINA RESULT:      -7.6      0.000      0.000
REMARK  Name = 
REMARK  11 active torsions:
REMARK  status: ('A' for Active; 'I' for Inactive)
REMARK    1  A    between atoms: C_1  and  S_2
REMARK    2  A    between atoms: S_2  and  N_5
REMARK    3  A    between atoms: N_5  and  C_6
REMARK    4  A    between atoms: C_11  and  O_12
REMARK    5  A    between atoms: O_12  and  C_13
REMARK    6  A    between atoms: C_13  and  C_14
REMARK    7  A    between atoms: N_16  and  C_17
REMARK    8  A    between atoms: C_17  and  C_18
REMARK    9  A    between atoms: C_18  and  O_19
REMARK   10  A    between atoms: C_18  and  C_20
REMARK   11  A    between atoms: C_20  and  N_21
REMARK                            x       y       z     vdW  Elec       q    Type
REMARK                         _______ _______ _______ _____ _____    ______ ____
ROOT
ATOM      1  C   UNL     1       2.583   2.218  17.835  0.00  0.00    +0.000 C 
ATOM      2  O   UNL     1       2.071   2.038  16.746  0.00  0.00    +0.000 OA
ATOM      3  N   UNL     1       1.879   2.045  19.007  0.00  0.00    +0.000 N 
ATOM      4  H   UNL     1       1.051   1.465  18.940  0.00  0.00    +0.000 HD
ENDROOT
BRANCH   1   5
ATOM      5  C   UNL     1       4.069   2.566  18.013  0.00  0.00    +0.000 C 
BRANCH   5   6
ATOM      6  O   UNL     1       4.370   3.818  17.514  0.00  0.00    +0.000 OA
BRANCH   6  12
ATOM      7  C   UNL     1       6.774   4.373  17.147  0.00  0.00    +0.000 A 
ATOM      8  C   UNL     1       7.872   5.011  17.739  0.00  0.00    +0.000 A 
ATOM      9  C   UNL     1       7.750   5.590  18.998  0.00  0.00    +0.000 A 
ATOM     10  C   UNL     1       6.528   5.505  19.636  0.00  0.00    +0.000 A 
ATOM     11  N   UNL     1       5.462   4.895  19.107  0.00  0.00    +0.000 NA
ATOM     12  C   UNL     1       5.576   4.336  17.886  0.00  0.00    +0.000 A 
BRANCH   7  13
ATOM     13  N   UNL     1       6.923   3.864  15.806  0.00  0.00    +0.000 N 
ATOM     14  H   UNL     1       6.467   2.956  15.677  0.00  0.00    +0.000 HD
BRANCH  13  16
ATOM     15  C   UNL     1       6.025   3.770  13.290  0.00  0.00    +0.000 C 
ATOM     16  S   UNL     1       6.644   4.911  14.506  0.00  0.00    +0.000 S 
ATOM     17  O   UNL     1       7.932   5.383  14.054  0.00  0.00    +0.000 OA
ATOM     18  O   UNL     1       5.584   5.839  14.853  0.00  0.00    +0.000 OA
ENDBRANCH  13  16
ENDBRANCH   7  13
ENDBRANCH   6  12
ENDBRANCH   5   6
ENDBRANCH   1   5
BRANCH   3  19
ATOM     19  C   UNL     1       2.453   2.235  20.334  0.00  0.00    +0.000 C 
BRANCH  19  20
ATOM     20  C   UNL     1       1.620   3.201  21.136  0.00  0.00    +0.000 C 
BRANCH  20  21
ATOM     21  O   UNL     1       1.528   2.648  22.458  0.00  0.00    +0.000 OA
ATOM     22  H   UNL     1       2.385   2.250  22.678  0.00  0.00    +0.000 HD
ENDBRANCH  20  21
BRANCH  20  23
ATOM     23  C   UNL     1       2.259   4.612  21.120  0.00  0.00    +0.000 C 
BRANCH  23  24
ATOM     24  N   UNL     1       1.505   5.623  20.357  0.00  0.00    +0.000 NA
ATOM     25  C   UNL     1       1.753   5.650  18.903  0.00  0.00    +0.000 C 
ATOM     26  C   UNL     1       2.768   6.712  18.453  0.00  0.00    +0.000 C 
ATOM     27  C   UNL     1       2.164   8.044  18.800  0.00  0.00    +0.000 A 
ATOM     28  C   UNL     1       2.157   9.115  17.906  0.00  0.00    +0.000 A 
ATOM     29  C   UNL     1       1.480  10.282  18.243  0.00  0.00    +0.000 A 
ATOM     30  C   UNL     1       0.829  10.386  19.476  0.00  0.00    +0.000 A 
ATOM     31  C   UNL     1       0.855   9.322  20.382  0.00  0.00    +0.000 A 
ATOM     32  C   UNL     1       1.513   8.137  20.045  0.00  0.00    +0.000 A 
ATOM     33  C   UNL     1       1.615   6.958  20.994  0.00  0.00    +0.000 C 
ENDBRANCH  23  24
ENDBRANCH  20  23
ENDBRANCH  19  20
ENDBRANCH   3  19
TORSDOF 10
ENDMDL
MODEL 2
REMARK VINA RESULT:      -7.2      3.433      5.575
REMARK  Name = 
REMARK  11 active torsions:
REMARK  status: ('A' for Active; 'I' for Inactive)
REMARK    1  A    between atoms: C_1  and  S_2
REMARK    2  A    between atoms: S_2  and  N_5
REMARK    3  A    between atoms: N_5  and  C_6
REMARK    4  A    between atoms: C_11  and  O_12
REMARK    5  A    between atoms: O_12  and  C_13
REMARK    6  A    between atoms: C_13  and  C_14
REMARK    7  A    between atoms: N_16  and  C_17
REMARK    8  A    between atoms: C_17  and  C_18
REMARK    9  A    between atoms: C_18  and  O_19
REMARK   10  A    between atoms: C_18  and  C_20
REMARK   11  A    between atoms: C_20  and  N_21
REMARK                            x       y       z     vdW  Elec       q    Type
REMARK                         _______ _______ _______ _____ _____    ______ ____
ROOT
ATOM      1  C   UNL     1       2.340   8.121  18.479  0.00  0.00    +0.000 C 
ATOM      2  O   UNL     1       2.715   8.473  17.376  0.00  0.00    +0.000 OA
ATOM      3  N   UNL     1       1.716   8.990  19.347  0.00  0.00    +0.000 N 
ATOM      4  H   UNL     1       1.299   9.809  18.923  0.00  0.00    +0.000 HD
ENDROOT
BRANCH   1   5
ATOM      5  C   UNL     1       2.447   6.669  18.974  0.00  0.00    +0.000 C 
BRANCH   5   6
ATOM      6  O   UNL     1       2.546   5.773  17.929  0.00  0.00    +0.000 OA
BRANCH   6  12
ATOM      7  C   UNL     1       3.894   3.848  18.765  0.00  0.00    +0.000 A 
ATOM      8  C   UNL     1       3.808   2.490  19.097  0.00  0.00    +0.000 A 
ATOM      9  C   UNL     1       2.603   1.809  18.955  0.00  0.00    +0.000 A 
ATOM     10  C   UNL     1       1.514   2.510  18.474  0.00  0.00    +0.000 A 
ATOM     11  N   UNL     1       1.562   3.804  18.136  0.00  0.00    +0.000 NA
ATOM     12  C   UNL     1       2.728   4.466  18.276  0.00  0.00    +0.000 A 
BRANCH   7  13
ATOM     13  N   UNL     1       5.140   4.532  19.009  0.00  0.00    +0.000 N 
ATOM     14  H   UNL     1       5.608   4.206  19.860  0.00  0.00    +0.000 HD
BRANCH  13  16
ATOM     15  C   UNL     1       6.057   6.480  17.425  0.00  0.00    +0.000 C 
ATOM     16  S   UNL     1       6.219   4.734  17.721  0.00  0.00    +0.000 S 
ATOM     17  O   UNL     1       5.662   4.038  16.585  0.00  0.00    +0.000 OA
ATOM     18  O   UNL     1       7.570   4.465  18.178  0.00  0.00    +0.000 OA
ENDBRANCH  13  16
ENDBRANCH   7  13
ENDBRANCH   6  12
ENDBRANCH   5   6
ENDBRANCH   1   5
BRANCH   3  19
ATOM     19  C   UNL     1       1.238   8.610  20.671  0.00  0.00    +0.000 C 
BRANCH  19  20
ATOM     20  C   UNL     1      -0.113   9.219  20.940  0.00  0.00    +0.000 C 
BRANCH  20  21
ATOM     21  O   UNL     1      -0.473   8.825  22.272  0.00  0.00    +0.000 OA
ATOM     22  H   UNL     1      -0.431   7.857  22.321  0.00  0.00    +0.000 HD
ENDBRANCH  20  21
BRANCH  20  23
ATOM     23  C   UNL     1      -0.059  10.757  20.764  0.00  0.00    +0.000 C 
BRANCH  23  24
ATOM     24  N   UNL     1      -0.582  11.251  19.477  0.00  0.00    +0.000 NA
ATOM     25  C   UNL     1      -1.482  12.417  19.551  0.00  0.00    +0.000 C 
ATOM     26  C   UNL     1      -2.978  12.067  19.519  0.00  0.00    +0.000 C 
ATOM     27  C   UNL     1      -3.230  11.429  18.182  0.00  0.00    +0.000 A 
ATOM     28  C   UNL     1      -4.319  11.777  17.382  0.00  0.00    +0.000 A 
ATOM     29  C   UNL     1      -4.432  11.235  16.107  0.00  0.00    +0.000 A 
ATOM     30  C   UNL     1      -3.471  10.334  15.639  0.00  0.00    +0.000 A 
ATOM     31  C   UNL     1      -2.393   9.965  16.448  0.00  0.00    +0.000 A 
ATOM     32  C   UNL     1      -2.257  10.521  17.722  0.00  0.00    +0.000 A 
ATOM     33  C   UNL     1      -1.135  10.137  18.667  0.00  0.00    +0.000 C 
ENDBRANCH  23  24
ENDBRANCH  20  23
ENDBRANCH  19  20
ENDBRANCH   3  19
TORSDOF 10
ENDMDL
MODEL 3
REMARK VINA RESULT:      -7.1      6.771      8.885
REMARK  Name = 
REMARK  11 active torsions:
REMARK  status: ('A' for Active; 'I' for Inactive)
REMARK    1  A    between atoms: C_1  and  S_2
REMARK    2  A    between atoms: S_2  and  N_5
REMARK    3  A    between atoms: N_5  and  C_6
REMARK    4  A    between atoms: C_11  and  O_12
REMARK    5  A    between atoms: O_12  and  C_13
REMARK    6  A    between atoms: C_13  and  C_14
REMARK    7  A    between atoms: N_16  and  C_17
REMARK    8  A    between atoms: C_17  and  C_18
REMARK    9  A    between atoms: C_18  and  O_19
REMARK   10  A    between atoms: C_18  and  C_20
REMARK   11  A    between atoms: C_20  and  N_21
REMARK                            x       y       z     vdW  Elec       q    Type
REMARK                         _______ _______ _______ _____ _____    ______ ____
ROOT
ATOM      1  C   UNL     1       9.216  10.026  19.137  0.00  0.00    +0.000 C 
ATOM      2  O   UNL     1       9.717  10.366  20.194  0.00  0.00    +0.000 OA
ATOM      3  N   UNL     1       8.650   8.782  18.968  0.00  0.00    +0.000 N 
ATOM      4  H   UNL     1       8.379   8.304  19.819  0.00  0.00    +0.000 HD
ENDROOT
BRANCH   1   5
ATOM      5  C   UNL     1       9.090  10.970  17.930  0.00  0.00    +0.000 C 
BRANCH   5   6
ATOM      6  O   UNL     1       8.812  12.267  18.315  0.00  0.00    +0.000 OA
BRANCH   6  12
ATOM      7  C   UNL     1       9.863  14.523  18.473  0.00  0.00    +0.000 A 
ATOM      8  C   UNL     1      10.969  15.269  18.042  0.00  0.00    +0.000 A 
ATOM      9  C   UNL     1      11.917  14.693  17.203  0.00  0.00    +0.000 A 
ATOM     10  C   UNL     1      11.728  13.382  16.811  0.00  0.00    +0.000 A 
ATOM     11  N   UNL     1      10.680  12.644  17.193  0.00  0.00    +0.000 NA
ATOM     12  C   UNL     1       9.760  13.198  18.008  0.00  0.00    +0.000 A 
BRANCH   7  13
ATOM     13  N   UNL     1       8.952  15.134  19.408  0.00  0.00    +0.000 N 
ATOM     14  H   UNL     1       9.428  15.734  20.087  0.00  0.00    +0.000 HD
BRANCH  13  16
ATOM     15  C   UNL     1       8.090  17.502  18.515  0.00  0.00    +0.000 C 
ATOM     16  S   UNL     1       7.533  15.839  18.814  0.00  0.00    +0.000 S 
ATOM     17  O   UNL     1       6.587  15.879  19.905  0.00  0.00    +0.000 OA
ATOM     18  O   UNL     1       7.187  15.231  17.543  0.00  0.00    +0.000 OA
ENDBRANCH  13  16
ENDBRANCH   7  13
ENDBRANCH   6  12
ENDBRANCH   5   6
ENDBRANCH   1   5
BRANCH   3  19
ATOM     19  C   UNL     1       8.026   8.337  17.727  0.00  0.00    +0.000 C 
BRANCH  19  20
ATOM     20  C   UNL     1       7.675   6.874  17.808  0.00  0.00    +0.000 C 
BRANCH  20  21
ATOM     21  O   UNL     1       7.973   6.464  19.151  0.00  0.00    +0.000 OA
ATOM     22  H   UNL     1       7.404   5.710  19.369  0.00  0.00    +0.000 HD
ENDBRANCH  20  21
BRANCH  20  23
ATOM     23  C   UNL     1       6.190   6.650  17.429  0.00  0.00    +0.000 C 
BRANCH  23  24
ATOM     24  N   UNL     1       5.501   5.611  18.216  0.00  0.00    +0.000 NA
ATOM     25  C   UNL     1       5.407   4.281  17.585  0.00  0.00    +0.000 C 
ATOM     26  C   UNL     1       4.070   4.006  16.879  0.00  0.00    +0.000 C 
ATOM     27  C   UNL     1       3.017   4.037  17.950  0.00  0.00    +0.000 A 
ATOM     28  C   UNL     1       2.020   3.065  18.044  0.00  0.00    +0.000 A 
ATOM     29  C   UNL     1       1.145   3.085  19.125  0.00  0.00    +0.000 A 
ATOM     30  C   UNL     1       1.254   4.082  20.098  0.00  0.00    +0.000 A 
ATOM     31  C   UNL     1       2.236   5.071  19.993  0.00  0.00    +0.000 A 
ATOM     32  C   UNL     1       3.135   5.047  18.923  0.00  0.00    +0.000 A 
ATOM     33  C   UNL     1       4.199   6.110  18.725  0.00  0.00    +0.000 C 
ENDBRANCH  23  24
ENDBRANCH  20  23
ENDBRANCH  19  20
ENDBRANCH   3  19
TORSDOF 10
ENDMDL
MODEL 4
REMARK VINA RESULT:      -7.0      3.996      7.662
REMARK  Name = 
REMARK  11 active torsions:
REMARK  status: ('A' for Active; 'I' for Inactive)
REMARK    1  A    between atoms: C_1  and  S_2
REMARK    2  A    between atoms: S_2  and  N_5
REMARK    3  A    between atoms: N_5  and  C_6
REMARK    4  A    between atoms: C_11  and  O_12
REMARK    5  A    between atoms: O_12  and  C_13
REMARK    6  A    between atoms: C_13  and  C_14
REMARK    7  A    between atoms: N_16  and  C_17
REMARK    8  A    between atoms: C_17  and  C_18
REMARK    9  A    between atoms: C_18  and  O_19
REMARK   10  A    between atoms: C_18  and  C_20
REMARK   11  A    between atoms: C_20  and  N_21
REMARK                            x       y       z     vdW  Elec       q    Type
REMARK                         _______ _______ _______ _____ _____    ______ ____
ROOT
ATOM      1  C   UNL     1       2.018   7.324  19.851  0.00  0.00    +0.000 C 
ATOM      2  O   UNL     1       2.370   7.994  18.898  0.00  0.00    +0.000 OA
ATOM      3  N   UNL     1       2.175   5.955  19.874  0.00  0.00    +0.000 N 
ATOM      4  H   UNL     1       2.869   5.582  19.238  0.00  0.00    +0.000 HD
ENDROOT
BRANCH   1   5
ATOM      5  C   UNL     1       1.450   7.937  21.141  0.00  0.00    +0.000 C 
BRANCH   5   6
ATOM      6  O   UNL     1       1.743   9.282  21.246  0.00  0.00    +0.000 OA
BRANCH   6  12
ATOM      7  C   UNL     1       0.118  11.122  20.802  0.00  0.00    +0.000 A 
ATOM      8  C   UNL     1      -0.986  11.788  21.350  0.00  0.00    +0.000 A 
ATOM      9  C   UNL     1      -1.475  11.422  22.600  0.00  0.00    +0.000 A 
ATOM     10  C   UNL     1      -0.837  10.398  23.272  0.00  0.00    +0.000 A 
ATOM     11  N   UNL     1       0.225   9.747  22.785  0.00  0.00    +0.000 NA
ATOM     12  C   UNL     1       0.700  10.098  21.574  0.00  0.00    +0.000 A 
BRANCH   7  13
ATOM     13  N   UNL     1       0.537  11.478  19.469  0.00  0.00    +0.000 N 
ATOM     14  H   UNL     1      -0.252  11.602  18.828  0.00  0.00    +0.000 HD
BRANCH  13  16
ATOM     15  C   UNL     1       0.702  14.042  18.728  0.00  0.00    +0.000 C 
ATOM     16  S   UNL     1       1.709  12.685  19.283  0.00  0.00    +0.000 S 
ATOM     17  O   UNL     1       2.560  12.288  18.186  0.00  0.00    +0.000 OA
ATOM     18  O   UNL     1       2.265  13.021  20.581  0.00  0.00    +0.000 OA
ENDBRANCH  13  16
ENDBRANCH   7  13
ENDBRANCH   6  12
ENDBRANCH   5   6
ENDBRANCH   1   5
BRANCH   3  19
ATOM     19  C   UNL     1       1.782   5.113  20.998  0.00  0.00    +0.000 C 
BRANCH  19  20
ATOM     20  C   UNL     1       2.378   3.736  20.860  0.00  0.00    +0.000 C 
BRANCH  20  21
ATOM     21  O   UNL     1       1.751   2.925  21.864  0.00  0.00    +0.000 OA
ATOM     22  H   UNL     1       2.008   3.270  22.733  0.00  0.00    +0.000 HD
ENDBRANCH  20  21
BRANCH  20  23
ATOM     23  C   UNL     1       2.159   3.191  19.426  0.00  0.00    +0.000 C 
BRANCH  23  24
ATOM     24  N   UNL     1       3.396   2.948  18.662  0.00  0.00    +0.000 NA
ATOM     25  C   UNL     1       4.658   3.119  19.407  0.00  0.00    +0.000 C 
ATOM     26  C   UNL     1       5.331   4.486  19.208  0.00  0.00    +0.000 C 
ATOM     27  C   UNL     1       5.690   4.568  17.751  0.00  0.00    +0.000 A 
ATOM     28  C   UNL     1       6.940   5.012  17.315  0.00  0.00    +0.000 A 
ATOM     29  C   UNL     1       7.251   4.955  15.961  0.00  0.00    +0.000 A 
ATOM     30  C   UNL     1       6.311   4.475  15.044  0.00  0.00    +0.000 A 
ATOM     31  C   UNL     1       5.050   4.053  15.476  0.00  0.00    +0.000 A 
ATOM     32  C   UNL     1       4.735   4.085  16.837  0.00  0.00    +0.000 A 
ATOM     33  C   UNL     1       3.375   3.680  17.372  0.00  0.00    +0.000 C 
ENDBRANCH  23  24
ENDBRANCH  20  23
ENDBRANCH  19  20
ENDBRANCH   3  19
TORSDOF 10
ENDMDL
MODEL 5
REMARK VINA RESULT:      -6.9      1.760      2.704
REMARK  Name = 
REMARK  11 active torsions:
REMARK  status: ('A' for Active; 'I' for Inactive)
REMARK    1  A    between atoms: C_1  and  S_2
REMARK    2  A    between atoms: S_2  and  N_5
REMARK    3  A    between atoms: N_5  and  C_6
REMARK    4  A    between atoms: C_11  and  O_12
REMARK    5  A    between atoms: O_12  and  C_13
REMARK    6  A    between atoms: C_13  and  C_14
REMARK    7  A    between atoms: N_16  and  C_17
REMARK    8  A    between atoms: C_17  and  C_18
REMARK    9  A    between atoms: C_18  and  O_19
REMARK   10  A    between atoms: C_18  and  C_20
REMARK   11  A    between atoms: C_20  and  N_21
REMARK                            x       y       z     vdW  Elec       q    Type
REMARK                         _______ _______ _______ _____ _____    ______ ____
ROOT
ATOM      1  C   UNL     1       2.892   2.716  17.595  0.00  0.00    +0.000 C 
ATOM      2  O   UNL     1       2.288   2.412  16.583  0.00  0.00    +0.000 OA
ATOM      3  N   UNL     1       2.462   2.327  18.844  0.00  0.00    +0.000 N 
ATOM      4  H   UNL     1       1.835   1.531  18.864  0.00  0.00    +0.000 HD
ENDROOT
BRANCH   1   5
ATOM      5  C   UNL     1       4.226   3.481  17.574  0.00  0.00    +0.000 C 
BRANCH   5   6
ATOM      6  O   UNL     1       4.176   4.583  16.743  0.00  0.00    +0.000 OA
BRANCH   6  12
ATOM      7  C   UNL     1       6.346   5.506  15.929  0.00  0.00    +0.000 A 
ATOM      8  C   UNL     1       7.275   5.409  14.885  0.00  0.00    +0.000 A 
ATOM      9  C   UNL     1       7.051   4.532  13.828  0.00  0.00    +0.000 A 
ATOM     10  C   UNL     1       5.894   3.779  13.843  0.00  0.00    +0.000 A 
ATOM     11  N   UNL     1       4.979   3.853  14.816  0.00  0.00    +0.000 NA
ATOM     12  C   UNL     1       5.195   4.700  15.843  0.00  0.00    +0.000 A 
BRANCH   7  13
ATOM     13  N   UNL     1       6.660   6.364  17.044  0.00  0.00    +0.000 N 
ATOM     14  H   UNL     1       5.867   6.944  17.331  0.00  0.00    +0.000 HD
BRANCH  13  16
ATOM     15  C   UNL     1       6.138   5.459  19.504  0.00  0.00    +0.000 C 
ATOM     16  S   UNL     1       7.483   5.704  18.368  0.00  0.00    +0.000 S 
ATOM     17  O   UNL     1       8.332   6.743  18.904  0.00  0.00    +0.000 OA
ATOM     18  O   UNL     1       8.023   4.408  18.002  0.00  0.00    +0.000 OA
ENDBRANCH  13  16
ENDBRANCH   7  13
ENDBRANCH   6  12
ENDBRANCH   5   6
ENDBRANCH   1   5
BRANCH   3  19
ATOM     19  C   UNL     1       3.160   2.655  20.082  0.00  0.00    +0.000 C 
BRANCH  19  20
ATOM     20  C   UNL     1       2.310   3.551  20.945  0.00  0.00    +0.000 C 
BRANCH  20  21
ATOM     21  O   UNL     1       2.415   3.037  22.281  0.00  0.00    +0.000 OA
ATOM     22  H   UNL     1       2.567   2.081  22.224  0.00  0.00    +0.000 HD
ENDBRANCH  20  21
BRANCH  20  23
ATOM     23  C   UNL     1       2.782   5.022  20.830  0.00  0.00    +0.000 C 
BRANCH  23  24
ATOM     24  N   UNL     1       1.828   5.927  20.164  0.00  0.00    +0.000 NA
ATOM     25  C   UNL     1       2.021   6.113  18.713  0.00  0.00    +0.000 C 
ATOM     26  C   UNL     1       2.804   7.380  18.335  0.00  0.00    +0.000 C 
ATOM     27  C   UNL     1       1.972   8.541  18.798  0.00  0.00    +0.000 A 
ATOM     28  C   UNL     1       1.736   9.658  17.995  0.00  0.00    +0.000 A 
ATOM     29  C   UNL     1       0.863  10.646  18.437  0.00  0.00    +0.000 A 
ATOM     30  C   UNL     1       0.242  10.529  19.684  0.00  0.00    +0.000 A 
ATOM     31  C   UNL     1       0.496   9.423  20.500  0.00  0.00    +0.000 A 
ATOM     32  C   UNL     1       1.354   8.414  20.057  0.00  0.00    +0.000 A 
ATOM     33  C   UNL     1       1.705   7.206  20.906  0.00  0.00    +0.000 C 
ENDBRANCH  23  24
ENDBRANCH  20  23
ENDBRANCH  19  20
ENDBRANCH   3  19
TORSDOF 10
ENDMDL
MODEL 6
REMARK VINA RESULT:      -6.9      1.868      3.354
REMARK  Name = 
REMARK  11 active torsions:
REMARK  status: ('A' for Active; 'I' for Inactive)
REMARK    1  A    between atoms: C_1  and  S_2
REMARK    2  A    between atoms: S_2  and  N_5
REMARK    3  A    between atoms: N_5  and  C_6
REMARK    4  A    between atoms: C_11  and  O_12
REMARK    5  A    between atoms: O_12  and  C_13
REMARK    6  A    between atoms: C_13  and  C_14
REMARK    7  A    between atoms: N_16  and  C_17
REMARK    8  A    between atoms: C_17  and  C_18
REMARK    9  A    between atoms: C_18  and  O_19
REMARK   10  A    between atoms: C_18  and  C_20
REMARK   11  A    between atoms: C_20  and  N_21
REMARK                            x       y       z     vdW  Elec       q    Type
REMARK                         _______ _______ _______ _____ _____    ______ ____
ROOT
ATOM      1  C   UNL     1       2.095   4.421  17.964  0.00  0.00    +0.000 C 
ATOM      2  O   UNL     1       1.393   3.761  17.220  0.00  0.00    +0.000 OA
ATOM      3  N   UNL     1       1.850   5.756  18.200  0.00  0.00    +0.000 N 
ATOM      4  H   UNL     1       0.908   6.071  18.002  0.00  0.00    +0.000 HD
ENDROOT
BRANCH   1   5
ATOM      5  C   UNL     1       3.257   3.819  18.770  0.00  0.00    +0.000 C 
BRANCH   5   6
ATOM      6  O   UNL     1       4.282   3.383  17.953  0.00  0.00    +0.000 OA
BRANCH   6  12
ATOM      7  C   UNL     1       6.445   4.234  17.049  0.00  0.00    +0.000 A 
ATOM      8  C   UNL     1       7.539   5.050  17.365  0.00  0.00    +0.000 A 
ATOM      9  C   UNL     1       7.606   5.684  18.602  0.00  0.00    +0.000 A 
ATOM     10  C   UNL     1       6.573   5.475  19.495  0.00  0.00    +0.000 A 
ATOM     11  N   UNL     1       5.519   4.695  19.233  0.00  0.00    +0.000 NA
ATOM     12  C   UNL     1       5.451   4.082  18.034  0.00  0.00    +0.000 A 
BRANCH   7  13
ATOM     13  N   UNL     1       6.377   3.666  15.726  0.00  0.00    +0.000 N 
ATOM     14  H   UNL     1       5.890   2.766  15.707  0.00  0.00    +0.000 HD
BRANCH  13  16
ATOM     15  C   UNL     1       7.502   4.950  13.668  0.00  0.00    +0.000 C 
ATOM     16  S   UNL     1       5.924   4.667  14.438  0.00  0.00    +0.000 S 
ATOM     17  O   UNL     1       5.478   5.918  15.006  0.00  0.00    +0.000 OA
ATOM     18  O   UNL     1       5.087   3.919  13.518  0.00  0.00    +0.000 OA
ENDBRANCH  13  16
ENDBRANCH   7  13
ENDBRANCH   6  12
ENDBRANCH   5   6
ENDBRANCH   1   5
BRANCH   3  19
ATOM     19  C   UNL     1       2.654   6.583  19.093  0.00  0.00    +0.000 C 
BRANCH  19  20
ATOM     20  C   UNL     1       3.314   7.699  18.326  0.00  0.00    +0.000 C 
BRANCH  20  21
ATOM     21  O   UNL     1       4.023   7.077  17.245  0.00  0.00    +0.000 OA
ATOM     22  H   UNL     1       3.382   6.586  16.708  0.00  0.00    +0.000 HD
ENDBRANCH  20  21
BRANCH  20  23
ATOM     23  C   UNL     1       2.258   8.723  17.841  0.00  0.00    +0.000 C 
BRANCH  23  24
ATOM     24  N   UNL     1       1.078   8.856  18.715  0.00  0.00    +0.000 NA
ATOM     25  C   UNL     1       0.136   9.936  18.366  0.00  0.00    +0.000 C 
ATOM     26  C   UNL     1       0.328  11.230  19.173  0.00  0.00    +0.000 C 
ATOM     27  C   UNL     1       0.046  10.875  20.606  0.00  0.00    +0.000 A 
ATOM     28  C   UNL     1      -0.758  11.668  21.426  0.00  0.00    +0.000 A 
ATOM     29  C   UNL     1      -1.075  11.226  22.706  0.00  0.00    +0.000 A 
ATOM     30  C   UNL     1      -0.575  10.006  23.172  0.00  0.00    +0.000 A 
ATOM     31  C   UNL     1       0.250   9.223  22.360  0.00  0.00    +0.000 A 
ATOM     32  C   UNL     1       0.556   9.646  21.065  0.00  0.00    +0.000 A 
ATOM     33  C   UNL     1       1.476   8.867  20.144  0.00  0.00    +0.000 C 
ENDBRANCH  23  24
ENDBRANCH  20  23
ENDBRANCH  19  20
ENDBRANCH   3  19
TORSDOF 10
ENDMDL
MODEL 7
REMARK VINA RESULT:      -6.9      6.595      8.770
REMARK  Name = 
REMARK  11 active torsions:
REMARK  status: ('A' for Active; 'I' for Inactive)
REMARK    1  A    between atoms: C_1  and  S_2
REMARK    2  A    between atoms: S_2  and  N_5
REMARK    3  A    between atoms: N_5  and  C_6
REMARK    4  A    between atoms: C_11  and  O_12
REMARK    5  A    between atoms: O_12  and  C_13
REMARK    6  A    between atoms: C_13  and  C_14
REMARK    7  A    between atoms: N_16  and  C_17
REMARK    8  A    between atoms: C_17  and  C_18
REMARK    9  A    between atoms: C_18  and  O_19
REMARK   10  A    between atoms: C_18  and  C_20
REMARK   11  A    between atoms: C_20  and  N_21
REMARK                            x       y       z     vdW  Elec       q    Type
REMARK                         _______ _______ _______ _____ _____    ______ ____
ROOT
ATOM      1  C   UNL     1       8.045   7.287  18.565  0.00  0.00    +0.000 C 
ATOM      2  O   UNL     1       8.206   6.232  19.152  0.00  0.00    +0.000 OA
ATOM      3  N   UNL     1       8.744   8.423  18.908  0.00  0.00    +0.000 N 
ATOM      4  H   UNL     1       9.602   8.272  19.425  0.00  0.00    +0.000 HD
ENDROOT
BRANCH   1   5
ATOM      5  C   UNL     1       7.123   7.432  17.344  0.00  0.00    +0.000 C 
BRANCH   5   6
ATOM      6  O   UNL     1       6.017   6.610  17.431  0.00  0.00    +0.000 OA
BRANCH   6  12
ATOM      7  C   UNL     1       5.638   4.212  16.856  0.00  0.00    +0.000 A 
ATOM      8  C   UNL     1       5.649   3.310  15.784  0.00  0.00    +0.000 A 
ATOM      9  C   UNL     1       5.985   3.745  14.506  0.00  0.00    +0.000 A 
ATOM     10  C   UNL     1       6.310   5.076  14.338  0.00  0.00    +0.000 A 
ATOM     11  N   UNL     1       6.322   5.964  15.339  0.00  0.00    +0.000 NA
ATOM     12  C   UNL     1       5.993   5.546  16.577  0.00  0.00    +0.000 A 
BRANCH   7  13
ATOM     13  N   UNL     1       5.201   3.736  18.144  0.00  0.00    +0.000 N 
ATOM     14  H   UNL     1       5.761   4.111  18.914  0.00  0.00    +0.000 HD
BRANCH  13  16
ATOM     15  C   UNL     1       3.092   2.099  17.998  0.00  0.00    +0.000 C 
ATOM     16  S   UNL     1       3.545   3.746  18.493  0.00  0.00    +0.000 S 
ATOM     17  O   UNL     1       2.921   4.671  17.574  0.00  0.00    +0.000 OA
ATOM     18  O   UNL     1       3.354   3.868  19.926  0.00  0.00    +0.000 OA
ENDBRANCH  13  16
ENDBRANCH   7  13
ENDBRANCH   6  12
ENDBRANCH   5   6
ENDBRANCH   1   5
BRANCH   3  19
ATOM     19  C   UNL     1       8.595   9.704  18.226  0.00  0.00    +0.000 C 
BRANCH  19  20
ATOM     20  C   UNL     1       9.178  10.817  19.058  0.00  0.00    +0.000 C 
BRANCH  20  21
ATOM     21  O   UNL     1       9.403  10.265  20.364  0.00  0.00    +0.000 OA
ATOM     22  H   UNL     1       8.947   9.410  20.411  0.00  0.00    +0.000 HD
ENDBRANCH  20  21
BRANCH  20  23
ATOM     23  C   UNL     1      10.474  11.360  18.405  0.00  0.00    +0.000 C 
BRANCH  23  24
ATOM     24  N   UNL     1      10.307  12.619  17.657  0.00  0.00    +0.000 NA
ATOM     25  C   UNL     1      11.485  13.078  16.897  0.00  0.00    +0.000 C 
ATOM     26  C   UNL     1      12.333  14.137  17.619  0.00  0.00    +0.000 C 
ATOM     27  C   UNL     1      11.448  15.340  17.786  0.00  0.00    +0.000 A 
ATOM     28  C   UNL     1      11.886  16.633  17.498  0.00  0.00    +0.000 A 
ATOM     29  C   UNL     1      10.985  17.690  17.562  0.00  0.00    +0.000 A 
ATOM     30  C   UNL     1       9.656  17.459  17.929  0.00  0.00    +0.000 A 
ATOM     31  C   UNL     1       9.221  16.167  18.240  0.00  0.00    +0.000 A 
ATOM     32  C   UNL     1      10.113  15.095  18.158  0.00  0.00    +0.000 A 
ATOM     33  C   UNL     1       9.721  13.675  18.519  0.00  0.00    +0.000 C 
ENDBRANCH  23  24
ENDBRANCH  20  23
ENDBRANCH  19  20
ENDBRANCH   3  19
TORSDOF 10
ENDMDL
MODEL 8
REMARK VINA RESULT:      -6.8      3.746      7.917
REMARK  Name = 
REMARK  11 active torsions:
REMARK  status: ('A' for Active; 'I' for Inactive)
REMARK    1  A    between atoms: C_1  and  S_2
REMARK    2  A    between atoms: S_2  and  N_5
REMARK    3  A    between atoms: N_5  and  C_6
REMARK    4  A    between atoms: C_11  and  O_12
REMARK    5  A    between atoms: O_12  and  C_13
REMARK    6  A    between atoms: C_13  and  C_14
REMARK    7  A    between atoms: N_16  and  C_17
REMARK    8  A    between atoms: C_17  and  C_18
REMARK    9  A    between atoms: C_18  and  O_19
REMARK   10  A    between atoms: C_18  and  C_20
REMARK   11  A    between atoms: C_20  and  N_21
REMARK                            x       y       z     vdW  Elec       q    Type
REMARK                         _______ _______ _______ _____ _____    ______ ____
ROOT
ATOM      1  C   UNL     1       2.651   7.336  18.590  0.00  0.00    +0.000 C 
ATOM      2  O   UNL     1       3.437   7.746  17.756  0.00  0.00    +0.000 OA
ATOM      3  N   UNL     1       2.642   6.019  18.994  0.00  0.00    +0.000 N 
ATOM      4  H   UNL     1       3.495   5.502  18.824  0.00  0.00    +0.000 HD
ENDROOT
BRANCH   1   5
ATOM      5  C   UNL     1       1.662   8.252  19.328  0.00  0.00    +0.000 C 
BRANCH   5   6
ATOM      6  O   UNL     1       1.492   9.459  18.679  0.00  0.00    +0.000 OA
BRANCH   6  12
ATOM      7  C   UNL     1      -0.278  10.658  19.963  0.00  0.00    +0.000 A 
ATOM      8  C   UNL     1      -1.548  11.238  19.834  0.00  0.00    +0.000 A 
ATOM      9  C   UNL     1      -2.209  11.209  18.610  0.00  0.00    +0.000 A 
ATOM     10  C   UNL     1      -1.581  10.592  17.546  0.00  0.00    +0.000 A 
ATOM     11  N   UNL     1      -0.375  10.019  17.635  0.00  0.00    +0.000 NA
ATOM     12  C   UNL     1       0.269  10.047  18.819  0.00  0.00    +0.000 A 
BRANCH   7  13
ATOM     13  N   UNL     1       0.404  10.786  21.226  0.00  0.00    +0.000 N 
ATOM     14  H   UNL     1       0.528  11.762  21.510  0.00  0.00    +0.000 HD
BRANCH  13  16
ATOM     15  C   UNL     1      -1.330  10.827  23.261  0.00  0.00    +0.000 C 
ATOM     16  S   UNL     1      -0.084   9.801  22.514  0.00  0.00    +0.000 S 
ATOM     17  O   UNL     1       1.029   9.717  23.431  0.00  0.00    +0.000 OA
ATOM     18  O   UNL     1      -0.719   8.605  21.993  0.00  0.00    +0.000 OA
ENDBRANCH  13  16
ENDBRANCH   7  13
ENDBRANCH   6  12
ENDBRANCH   5   6
ENDBRANCH   1   5
BRANCH   3  19
ATOM     19  C   UNL     1       1.729   5.486  19.999  0.00  0.00    +0.000 C 
BRANCH  19  20
ATOM     20  C   UNL     1       1.952   4.008  20.183  0.00  0.00    +0.000 C 
BRANCH  20  21
ATOM     21  O   UNL     1       0.968   3.569  21.132  0.00  0.00    +0.000 OA
ATOM     22  H   UNL     1       1.324   3.714  22.022  0.00  0.00    +0.000 HD
ENDBRANCH  20  21
BRANCH  20  23
ATOM     23  C   UNL     1       1.847   3.269  18.825  0.00  0.00    +0.000 C 
BRANCH  23  24
ATOM     24  N   UNL     1       3.140   2.958  18.189  0.00  0.00    +0.000 NA
ATOM     25  C   UNL     1       4.299   2.870  19.096  0.00  0.00    +0.000 C 
ATOM     26  C   UNL     1       5.147   4.150  19.169  0.00  0.00    +0.000 C 
ATOM     27  C   UNL     1       5.709   4.359  17.791  0.00  0.00    +0.000 A 
ATOM     28  C   UNL     1       7.048   4.683  17.573  0.00  0.00    +0.000 A 
ATOM     29  C   UNL     1       7.532   4.750  16.271  0.00  0.00    +0.000 A 
ATOM     30  C   UNL     1       6.677   4.513  15.191  0.00  0.00    +0.000 A 
ATOM     31  C   UNL     1       5.329   4.212  15.407  0.00  0.00    +0.000 A 
ATOM     32  C   UNL     1       4.838   4.121  16.711  0.00  0.00    +0.000 A 
ATOM     33  C   UNL     1       3.379   3.838  17.018  0.00  0.00    +0.000 C 
ENDBRANCH  23  24
ENDBRANCH  20  23
ENDBRANCH  19  20
ENDBRANCH   3  19
TORSDOF 10
ENDMDL
MODEL 9
REMARK VINA RESULT:      -6.8      4.058      6.236
REMARK  Name = 
REMARK  11 active torsions:
REMARK  status: ('A' for Active; 'I' for Inactive)
REMARK    1  A    between atoms: C_1  and  S_2
REMARK    2  A    between atoms: S_2  and  N_5
REMARK    3  A    between atoms: N_5  and  C_6
REMARK    4  A    between atoms: C_11  and  O_12
REMARK    5  A    between atoms: O_12  and  C_13
REMARK    6  A    between atoms: C_13  and  C_14
REMARK    7  A    between atoms: N_16  and  C_17
REMARK    8  A    between atoms: C_17  and  C_18
REMARK    9  A    between atoms: C_18  and  O_19
REMARK   10  A    between atoms: C_18  and  C_20
REMARK   11  A    between atoms: C_20  and  N_21
REMARK                            x       y       z     vdW  Elec       q    Type
REMARK                         _______ _______ _______ _____ _____    ______ ____
ROOT
ATOM      1  C   UNL     1       2.840   8.014  17.887  0.00  0.00    +0.000 C 
ATOM      2  O   UNL     1       3.554   7.861  16.913  0.00  0.00    +0.000 OA
ATOM      3  N   UNL     1       2.118   9.171  18.084  0.00  0.00    +0.000 N 
ATOM      4  H   UNL     1       1.951   9.730  17.257  0.00  0.00    +0.000 HD
ENDROOT
BRANCH   1   5
ATOM      5  C   UNL     1       2.607   6.913  18.934  0.00  0.00    +0.000 C 
BRANCH   5   6
ATOM      6  O   UNL     1       3.690   6.062  19.039  0.00  0.00    +0.000 OA
BRANCH   6  12
ATOM      7  C   UNL     1       4.466   3.814  18.289  0.00  0.00    +0.000 A 
ATOM      8  C   UNL     1       4.003   2.555  17.883  0.00  0.00    +0.000 A 
ATOM      9  C   UNL     1       2.637   2.303  17.802  0.00  0.00    +0.000 A 
ATOM     10  C   UNL     1       1.769   3.327  18.124  0.00  0.00    +0.000 A 
ATOM     11  N   UNL     1       2.174   4.544  18.504  0.00  0.00    +0.000 NA
ATOM     12  C   UNL     1       3.496   4.790  18.586  0.00  0.00    +0.000 A 
BRANCH   7  13
ATOM     13  N   UNL     1       5.887   4.001  18.440  0.00  0.00    +0.000 N 
ATOM     14  H   UNL     1       6.363   3.159  18.776  0.00  0.00    +0.000 HD
BRANCH  13  16
ATOM     15  C   UNL     1       6.900   6.406  17.857  0.00  0.00    +0.000 C 
ATOM     16  S   UNL     1       6.741   4.764  17.193  0.00  0.00    +0.000 S 
ATOM     17  O   UNL     1       5.858   4.832  16.051  0.00  0.00    +0.000 OA
ATOM     18  O   UNL     1       8.064   4.178  17.085  0.00  0.00    +0.000 OA
ENDBRANCH  13  16
ENDBRANCH   7  13
ENDBRANCH   6  12
ENDBRANCH   5   6
ENDBRANCH   1   5
BRANCH   3  19
ATOM     19  C   UNL     1       1.239   9.393  19.227  0.00  0.00    +0.000 C 
BRANCH  19  20
ATOM     20  C   UNL     1       0.279  10.519  18.943  0.00  0.00    +0.000 C 
BRANCH  20  21
ATOM     21  O   UNL     1      -0.193  10.314  17.603  0.00  0.00    +0.000 OA
ATOM     22  H   UNL     1      -1.140  10.522  17.582  0.00  0.00    +0.000 HD
ENDBRANCH  20  21
BRANCH  20  23
ATOM     23  C   UNL     1      -0.866  10.532  19.986  0.00  0.00    +0.000 C 
BRANCH  23  24
ATOM     24  N   UNL     1      -1.032  11.807  20.706  0.00  0.00    +0.000 NA
ATOM     25  C   UNL     1      -0.657  11.795  22.133  0.00  0.00    +0.000 C 
ATOM     26  C   UNL     1      -1.839  11.607  23.097  0.00  0.00    +0.000 C 
ATOM     27  C   UNL     1      -2.728  12.804  22.908  0.00  0.00    +0.000 A 
ATOM     28  C   UNL     1      -3.260  13.515  23.984  0.00  0.00    +0.000 A 
ATOM     29  C   UNL     1      -3.980  14.681  23.745  0.00  0.00    +0.000 A 
ATOM     30  C   UNL     1      -4.184  15.124  22.434  0.00  0.00    +0.000 A 
ATOM     31  C   UNL     1      -3.672  14.399  21.354  0.00  0.00    +0.000 A 
ATOM     32  C   UNL     1      -2.928  13.239  21.585  0.00  0.00    +0.000 A 
ATOM     33  C   UNL     1      -2.377  12.383  20.460  0.00  0.00    +0.000 C 
ENDBRANCH  23  24
ENDBRANCH  20  23
ENDBRANCH  19  20
ENDBRANCH   3  19
TORSDOF 10
ENDMDL
