MODEL 1
REMARK VINA RESULT:      -6.5      0.000      0.000
REMARK  Name = 
REMARK  7 active torsions:
REMARK  status: ('A' for Active; 'I' for Inactive)
REMARK    1  A    between atoms: C_1  and  C_2
REMARK    2  A    between atoms: C_2  and  C_3
REMARK    3  A    between atoms: C_3  and  C_4
REMARK    4  A    between atoms: C_4  and  N_5
REMARK    5  A    between atoms: N_5  and  C_6
REMARK    6  A    between atoms: C_6  and  N_8
REMARK    7  A    between atoms: C_9  and  C_11
REMARK                            x       y       z     vdW  Elec       q    Type
REMARK                         _______ _______ _______ _____ _____    ______ ____
ROOT
ATOM      1  N   UNL     1       5.867   5.540  17.368  0.00  0.00    +0.000 N 
ATOM      2  C   UNL     1       4.556   5.938  17.152  0.00  0.00    +0.000 C 
ATOM      3  O   UNL     1       4.252   6.999  16.615  0.00  0.00    +0.000 OA
ATOM      4  H   UNL     1       6.029   4.658  17.837  0.00  0.00    +0.000 HD
ENDROOT
BRANCH   2   5
ATOM      5  C   UNL     1       3.462   5.059  17.661  0.00  0.00    +0.000 A 
ATOM      6  C   UNL     1       3.408   3.766  17.103  0.00  0.00    +0.000 A 
ATOM      7  C   UNL     1       2.461   2.835  17.535  0.00  0.00    +0.000 A 
ATOM      8  C   UNL     1       1.561   3.183  18.536  0.00  0.00    +0.000 A 
ATOM      9 CL   UNL     1       0.407   2.031  19.081  0.00  0.00    +0.000 Cl
ATOM     10  C   UNL     1       1.597   4.454  19.103  0.00  0.00    +0.000 A 
ATOM     11  C   UNL     1       2.545   5.393  18.671  0.00  0.00    +0.000 A 
ATOM     12 CL   UNL     1       2.536   6.921  19.480  0.00  0.00    +0.000 Cl
ENDBRANCH   2   5
BRANCH   1  13
ATOM     13  C   UNL     1       7.019   6.091  16.847  0.00  0.00    +0.000 C 
ATOM     14  S   UNL     1       7.631   7.464  17.573  0.00  0.00    +0.000 S 
BRANCH  13  15
ATOM     15  N   UNL     1       7.571   5.430  15.782  0.00  0.00    +0.000 N 
ATOM     16  H   UNL     1       8.587   5.344  15.813  0.00  0.00    +0.000 HD
BRANCH  15  17
ATOM     17  C   UNL     1       6.936   5.247  14.486  0.00  0.00    +0.000 C 
BRANCH  17  18
ATOM     18  C   UNL     1       6.200   3.914  14.362  0.00  0.00    +0.000 C 
BRANCH  18  20
ATOM     19  C   UNL     1       7.025   3.928  11.980  0.00  0.00    +0.000 C 
ATOM     20  C   UNL     1       5.883   3.548  12.911  0.00  0.00    +0.000 C 
ENDBRANCH  18  20
ENDBRANCH  17  18
ENDBRANCH  15  17
ENDBRANCH  13  15
ENDBRANCH   1  13
TORSDOF 6
ENDMDL
MODEL 2
REMARK VINA RESULT:      -6.4      2.879      3.680
REMARK  Name = 
REMARK  7 active torsions:
REMARK  status: ('A' for Active; 'I' for Inactive)
REMARK    1  A    between atoms: C_1  and  C_2
REMARK    2  A    between atoms: C_2  and  C_3
REMARK    3  A    between atoms: C_3  and  C_4
REMARK    4  A    between atoms: C_4  and  N_5
REMARK    5  A    between atoms: N_5  and  C_6
REMARK    6  A    between atoms: C_6  and  N_8
REMARK    7  A    between atoms: C_9  and  C_11
REMARK                            x       y       z     vdW  Elec       q    Type
REMARK                         _______ _______ _______ _____ _____    ______ ____
ROOT
ATOM      1  N   UNL     1       5.735   4.097  14.333  0.00  0.00    +0.000 N 
ATOM      2  C   UNL     1       6.196   4.433  15.597  0.00  0.00    +0.000 C 
ATOM      3  O   UNL     1       7.378   4.380  15.921  0.00  0.00    +0.000 OA
ATOM      4  H   UNL     1       4.740   4.149  14.155  0.00  0.00    +0.000 HD
ENDROOT
BRANCH   2   5
ATOM      5  C   UNL     1       5.189   4.813  16.632  0.00  0.00    +0.000 A 
ATOM      6  C   UNL     1       4.182   3.861  16.884  0.00  0.00    +0.000 A 
ATOM      7  C   UNL     1       3.213   4.081  17.865  0.00  0.00    +0.000 A 
ATOM      8  C   UNL     1       3.245   5.253  18.612  0.00  0.00    +0.000 A 
ATOM      9 CL   UNL     1       2.064   5.514  19.834  0.00  0.00    +0.000 Cl
ATOM     10  C   UNL     1       4.232   6.207  18.383  0.00  0.00    +0.000 A 
ATOM     11  C   UNL     1       5.206   5.991  17.396  0.00  0.00    +0.000 A 
ATOM     12 CL   UNL     1       6.416   7.216  17.232  0.00  0.00    +0.000 Cl
ENDBRANCH   2   5
BRANCH   1  13
ATOM     13  C   UNL     1       6.475   3.885  13.188  0.00  0.00    +0.000 C 
ATOM     14  S   UNL     1       7.565   5.064  12.728  0.00  0.00    +0.000 S 
BRANCH  13  15
ATOM     15  N   UNL     1       6.256   2.697  12.543  0.00  0.00    +0.000 N 
ATOM     16  H   UNL     1       6.975   1.989  12.696  0.00  0.00    +0.000 HD
BRANCH  15  17
ATOM     17  C   UNL     1       5.391   2.514  11.388  0.00  0.00    +0.000 C 
BRANCH  17  18
ATOM     18  C   UNL     1       4.171   3.432  11.401  0.00  0.00    +0.000 C 
BRANCH  18  20
ATOM     19  C   UNL     1       2.808   4.350   9.489  0.00  0.00    +0.000 C 
ATOM     20  C   UNL     1       3.177   3.107  10.285  0.00  0.00    +0.000 C 
ENDBRANCH  18  20
ENDBRANCH  17  18
ENDBRANCH  15  17
ENDBRANCH  13  15
ENDBRANCH   1  13
TORSDOF 6
ENDMDL
MODEL 3
REMARK VINA RESULT:      -6.4      1.842      2.283
REMARK  Name = 
REMARK  7 active torsions:
REMARK  status: ('A' for Active; 'I' for Inactive)
REMARK    1  A    between atoms: C_1  and  C_2
REMARK    2  A    between atoms: C_2  and  C_3
REMARK    3  A    between atoms: C_3  and  C_4
REMARK    4  A    between atoms: C_4  and  N_5
REMARK    5  A    between atoms: N_5  and  C_6
REMARK    6  A    between atoms: C_6  and  N_8
REMARK    7  A    between atoms: C_9  and  C_11
REMARK                            x       y       z     vdW  Elec       q    Type
REMARK                         _______ _______ _______ _____ _____    ______ ____
ROOT
ATOM      1  N   UNL     1       5.948   5.117  18.079  0.00  0.00    +0.000 N 
ATOM      2  C   UNL     1       4.570   5.126  17.919  0.00  0.00    +0.000 C 
ATOM      3  O   UNL     1       3.997   5.760  17.039  0.00  0.00    +0.000 OA
ATOM      4  H   UNL     1       6.339   4.584  18.845  0.00  0.00    +0.000 HD
ENDROOT
BRANCH   2   5
ATOM      5  C   UNL     1       3.744   4.379  18.913  0.00  0.00    +0.000 A 
ATOM      6  C   UNL     1       3.248   5.140  19.990  0.00  0.00    +0.000 A 
ATOM      7  C   UNL     1       2.421   4.564  20.957  0.00  0.00    +0.000 A 
ATOM      8  C   UNL     1       2.074   3.222  20.855  0.00  0.00    +0.000 A 
ATOM      9 CL   UNL     1       1.040   2.517  22.035  0.00  0.00    +0.000 Cl
ATOM     10  C   UNL     1       2.551   2.450  19.798  0.00  0.00    +0.000 A 
ATOM     11  C   UNL     1       3.384   3.024  18.826  0.00  0.00    +0.000 A 
ATOM     12 CL   UNL     1       3.874   1.991  17.529  0.00  0.00    +0.000 Cl
ENDBRANCH   2   5
BRANCH   1  13
ATOM     13  C   UNL     1       6.908   5.581  17.204  0.00  0.00    +0.000 C 
ATOM     14  S   UNL     1       7.526   7.112  17.457  0.00  0.00    +0.000 S 
BRANCH  13  15
ATOM     15  N   UNL     1       7.284   4.716  16.212  0.00  0.00    +0.000 N 
ATOM     16  H   UNL     1       8.013   4.052  16.477  0.00  0.00    +0.000 HD
BRANCH  15  17
ATOM     17  C   UNL     1       7.078   4.930  14.788  0.00  0.00    +0.000 C 
BRANCH  17  18
ATOM     18  C   UNL     1       5.978   4.046  14.202  0.00  0.00    +0.000 C 
BRANCH  18  20
ATOM     19  C   UNL     1       4.984   3.282  12.016  0.00  0.00    +0.000 C 
ATOM     20  C   UNL     1       6.265   3.627  12.760  0.00  0.00    +0.000 C 
ENDBRANCH  18  20
ENDBRANCH  17  18
ENDBRANCH  15  17
ENDBRANCH  13  15
ENDBRANCH   1  13
TORSDOF 6
ENDMDL
MODEL 4
REMARK VINA RESULT:      -6.4      3.468      5.863
REMARK  Name = 
REMARK  7 active torsions:
REMARK  status: ('A' for Active; 'I' for Inactive)
REMARK    1  A    between atoms: C_1  and  C_2
REMARK    2  A    between atoms: C_2  and  C_3
REMARK    3  A    between atoms: C_3  and  C_4
REMARK    4  A    between atoms: C_4  and  N_5
REMARK    5  A    between atoms: N_5  and  C_6
REMARK    6  A    between atoms: C_6  and  N_8
REMARK    7  A    between atoms: C_9  and  C_11
REMARK                            x       y       z     vdW  Elec       q    Type
REMARK                         _______ _______ _______ _____ _____    ______ ____
ROOT
ATOM      1  N   UNL     1       3.484   6.032  18.658  0.00  0.00    +0.000 N 
ATOM      2  C   UNL     1       4.752   5.468  18.654  0.00  0.00    +0.000 C 
ATOM      3  O   UNL     1       5.397   5.250  19.674  0.00  0.00    +0.000 OA
ATOM      4  H   UNL     1       3.029   6.197  17.769  0.00  0.00    +0.000 HD
ENDROOT
BRANCH   2   5
ATOM      5  C   UNL     1       5.385   5.176  17.334  0.00  0.00    +0.000 A 
ATOM      6  C   UNL     1       4.694   4.262  16.513  0.00  0.00    +0.000 A 
ATOM      7  C   UNL     1       5.161   3.948  15.235  0.00  0.00    +0.000 A 
ATOM      8  C   UNL     1       6.321   4.548  14.760  0.00  0.00    +0.000 A 
ATOM      9 CL   UNL     1       6.885   4.175  13.179  0.00  0.00    +0.000 Cl
ATOM     10  C   UNL     1       7.020   5.456  15.552  0.00  0.00    +0.000 A 
ATOM     11  C   UNL     1       6.555   5.773  16.837  0.00  0.00    +0.000 A 
ATOM     12 CL   UNL     1       7.468   6.952  17.713  0.00  0.00    +0.000 Cl
ENDBRANCH   2   5
BRANCH   1  13
ATOM     13  C   UNL     1       2.644   6.224  19.735  0.00  0.00    +0.000 C 
ATOM     14  S   UNL     1       1.955   7.733  19.933  0.00  0.00    +0.000 S 
BRANCH  13  15
ATOM     15  N   UNL     1       2.434   5.134  20.535  0.00  0.00    +0.000 N 
ATOM     16  H   UNL     1       3.284   4.661  20.846  0.00  0.00    +0.000 HD
BRANCH  15  17
ATOM     17  C   UNL     1       1.196   4.374  20.613  0.00  0.00    +0.000 C 
BRANCH  17  18
ATOM     18  C   UNL     1       1.386   2.885  20.333  0.00  0.00    +0.000 C 
BRANCH  18  20
ATOM     19  C   UNL     1       3.054   1.882  18.732  0.00  0.00    +0.000 C 
ATOM     20  C   UNL     1       1.718   2.597  18.869  0.00  0.00    +0.000 C 
ENDBRANCH  18  20
ENDBRANCH  17  18
ENDBRANCH  15  17
ENDBRANCH  13  15
ENDBRANCH   1  13
TORSDOF 6
ENDMDL
MODEL 5
REMARK VINA RESULT:      -6.4      1.414      1.446
REMARK  Name = 
REMARK  7 active torsions:
REMARK  status: ('A' for Active; 'I' for Inactive)
REMARK    1  A    between atoms: C_1  and  C_2
REMARK    2  A    between atoms: C_2  and  C_3
REMARK    3  A    between atoms: C_3  and  C_4
REMARK    4  A    between atoms: C_4  and  N_5
REMARK    5  A    between atoms: N_5  and  C_6
REMARK    6  A    between atoms: C_6  and  N_8
REMARK    7  A    between atoms: C_9  and  C_11
REMARK                            x       y       z     vdW  Elec       q    Type
REMARK                         _______ _______ _______ _____ _____    ______ ____
ROOT
ATOM      1  N   UNL     1       6.028   5.467  18.178  0.00  0.00    +0.000 N 
ATOM      2  C   UNL     1       4.663   5.676  18.049  0.00  0.00    +0.000 C 
ATOM      3  O   UNL     1       4.173   6.459  17.241  0.00  0.00    +0.000 OA
ATOM      4  H   UNL     1       6.350   4.819  18.885  0.00  0.00    +0.000 HD
ENDROOT
BRANCH   2   5
ATOM      5  C   UNL     1       3.752   4.960  18.990  0.00  0.00    +0.000 A 
ATOM      6  C   UNL     1       4.011   3.587  19.166  0.00  0.00    +0.000 A 
ATOM      7  C   UNL     1       3.259   2.821  20.059  0.00  0.00    +0.000 A 
ATOM      8  C   UNL     1       2.242   3.421  20.792  0.00  0.00    +0.000 A 
ATOM      9 CL   UNL     1       1.328   2.482  21.905  0.00  0.00    +0.000 Cl
ATOM     10  C   UNL     1       1.968   4.777  20.636  0.00  0.00    +0.000 A 
ATOM     11  C   UNL     1       2.720   5.550  19.739  0.00  0.00    +0.000 A 
ATOM     12 CL   UNL     1       2.332   7.233  19.664  0.00  0.00    +0.000 Cl
ENDBRANCH   2   5
BRANCH   1  13
ATOM     13  C   UNL     1       7.034   5.876  17.327  0.00  0.00    +0.000 C 
ATOM     14  S   UNL     1       7.603   7.438  17.477  0.00  0.00    +0.000 S 
BRANCH  13  15
ATOM     15  N   UNL     1       7.492   4.935  16.445  0.00  0.00    +0.000 N 
ATOM     16  H   UNL     1       8.382   4.504  16.702  0.00  0.00    +0.000 HD
BRANCH  15  17
ATOM     17  C   UNL     1       7.087   4.819  15.052  0.00  0.00    +0.000 C 
BRANCH  17  18
ATOM     18  C   UNL     1       5.691   4.223  14.881  0.00  0.00    +0.000 C 
BRANCH  18  20
ATOM     19  C   UNL     1       6.655   3.789  12.593  0.00  0.00    +0.000 C 
ATOM     20  C   UNL     1       5.387   3.840  13.433  0.00  0.00    +0.000 C 
ENDBRANCH  18  20
ENDBRANCH  17  18
ENDBRANCH  15  17
ENDBRANCH  13  15
ENDBRANCH   1  13
TORSDOF 6
ENDMDL
MODEL 6
REMARK VINA RESULT:      -6.3      3.670      6.172
REMARK  Name = 
REMARK  7 active torsions:
REMARK  status: ('A' for Active; 'I' for Inactive)
REMARK    1  A    between atoms: C_1  and  C_2
REMARK    2  A    between atoms: C_2  and  C_3
REMARK    3  A    between atoms: C_3  and  C_4
REMARK    4  A    between atoms: C_4  and  N_5
REMARK    5  A    between atoms: N_5  and  C_6
REMARK    6  A    between atoms: C_6  and  N_8
REMARK    7  A    between atoms: C_9  and  C_11
REMARK                            x       y       z     vdW  Elec       q    Type
REMARK                         _______ _______ _______ _____ _____    ______ ____
ROOT
ATOM      1  N   UNL     1       4.777   2.822  19.091  0.00  0.00    +0.000 N 
ATOM      2  C   UNL     1       5.127   4.128  18.781  0.00  0.00    +0.000 C 
ATOM      3  O   UNL     1       4.865   5.087  19.502  0.00  0.00    +0.000 OA
ATOM      4  H   UNL     1       5.014   2.093  18.431  0.00  0.00    +0.000 HD
ENDROOT
BRANCH   2   5
ATOM      5  C   UNL     1       5.797   4.384  17.472  0.00  0.00    +0.000 A 
ATOM      6  C   UNL     1       5.147   3.854  16.339  0.00  0.00    +0.000 A 
ATOM      7  C   UNL     1       5.649   4.070  15.054  0.00  0.00    +0.000 A 
ATOM      8  C   UNL     1       6.805   4.824  14.886  0.00  0.00    +0.000 A 
ATOM      9 CL   UNL     1       7.413   5.106  13.302  0.00  0.00    +0.000 Cl
ATOM     10  C   UNL     1       7.464   5.359  15.990  0.00  0.00    +0.000 A 
ATOM     11  C   UNL     1       6.963   5.142  17.282  0.00  0.00    +0.000 A 
ATOM     12 CL   UNL     1       7.828   5.897  18.576  0.00  0.00    +0.000 Cl
ENDBRANCH   2   5
BRANCH   1  13
ATOM     13  C   UNL     1       4.316   2.329  20.294  0.00  0.00    +0.000 C 
ATOM     14  S   UNL     1       5.208   1.134  21.046  0.00  0.00    +0.000 S 
BRANCH  13  15
ATOM     15  N   UNL     1       3.166   2.895  20.773  0.00  0.00    +0.000 N 
ATOM     16  H   UNL     1       3.287   3.470  21.608  0.00  0.00    +0.000 HD
BRANCH  15  17
ATOM     17  C   UNL     1       1.817   2.428  20.490  0.00  0.00    +0.000 C 
BRANCH  17  18
ATOM     18  C   UNL     1       0.867   3.551  20.080  0.00  0.00    +0.000 C 
BRANCH  18  20
ATOM     19  C   UNL     1       1.553   4.187  17.740  0.00  0.00    +0.000 C 
ATOM     20  C   UNL     1       1.542   4.605  19.202  0.00  0.00    +0.000 C 
ENDBRANCH  18  20
ENDBRANCH  17  18
ENDBRANCH  15  17
ENDBRANCH  13  15
ENDBRANCH   1  13
TORSDOF 6
ENDMDL
MODEL 7
REMARK VINA RESULT:      -6.3      3.296      6.061
REMARK  Name = 
REMARK  7 active torsions:
REMARK  status: ('A' for Active; 'I' for Inactive)
REMARK    1  A    between atoms: C_1  and  C_2
REMARK    2  A    between atoms: C_2  and  C_3
REMARK    3  A    between atoms: C_3  and  C_4
REMARK    4  A    between atoms: C_4  and  N_5
REMARK    5  A    between atoms: N_5  and  C_6
REMARK    6  A    between atoms: C_6  and  N_8
REMARK    7  A    between atoms: C_9  and  C_11
REMARK                            x       y       z     vdW  Elec       q    Type
REMARK                         _______ _______ _______ _____ _____    ______ ____
ROOT
ATOM      1  N   UNL     1       3.002   6.673  18.525  0.00  0.00    +0.000 N 
ATOM      2  C   UNL     1       4.113   5.843  18.557  0.00  0.00    +0.000 C 
ATOM      3  O   UNL     1       4.746   5.602  19.580  0.00  0.00    +0.000 OA
ATOM      4  H   UNL     1       2.549   6.836  17.635  0.00  0.00    +0.000 HD
ENDROOT
BRANCH   2   5
ATOM      5  C   UNL     1       4.598   5.271  17.267  0.00  0.00    +0.000 A 
ATOM      6  C   UNL     1       5.128   6.198  16.348  0.00  0.00    +0.000 A 
ATOM      7  C   UNL     1       5.660   5.778  15.127  0.00  0.00    +0.000 A 
ATOM      8  C   UNL     1       5.675   4.423  14.813  0.00  0.00    +0.000 A 
ATOM      9 CL   UNL     1       6.347   3.904  13.319  0.00  0.00    +0.000 Cl
ATOM     10  C   UNL     1       5.158   3.488  15.706  0.00  0.00    +0.000 A 
ATOM     11  C   UNL     1       4.621   3.907  16.933  0.00  0.00    +0.000 A 
ATOM     12 CL   UNL     1       4.057   2.659  17.989  0.00  0.00    +0.000 Cl
ENDBRANCH   2   5
BRANCH   1  13
ATOM     13  C   UNL     1       2.280   7.169  19.591  0.00  0.00    +0.000 C 
ATOM     14  S   UNL     1       1.634   8.703  19.457  0.00  0.00    +0.000 S 
BRANCH  13  15
ATOM     15  N   UNL     1       2.141   6.329  20.663  0.00  0.00    +0.000 N 
ATOM     16  H   UNL     1       2.867   6.420  21.375  0.00  0.00    +0.000 HD
BRANCH  15  17
ATOM     17  C   UNL     1       1.364   5.099  20.672  0.00  0.00    +0.000 C 
BRANCH  17  18
ATOM     18  C   UNL     1       2.100   3.930  21.323  0.00  0.00    +0.000 C 
BRANCH  18  20
ATOM     19  C   UNL     1       0.785   2.720  19.546  0.00  0.00    +0.000 C 
ATOM     20  C   UNL     1       1.623   2.572  20.807  0.00  0.00    +0.000 C 
ENDBRANCH  18  20
ENDBRANCH  17  18
ENDBRANCH  15  17
ENDBRANCH  13  15
ENDBRANCH   1  13
TORSDOF 6
ENDMDL
MODEL 8
REMARK VINA RESULT:      -6.3      2.374      3.838
REMARK  Name = 
REMARK  7 active torsions:
REMARK  status: ('A' for Active; 'I' for Inactive)
REMARK    1  A    between atoms: C_1  and  C_2
REMARK    2  A    between atoms: C_2  and  C_3
REMARK    3  A    between atoms: C_3  and  C_4
REMARK    4  A    between atoms: C_4  and  N_5
REMARK    5  A    between atoms: N_5  and  C_6
REMARK    6  A    between atoms: C_6  and  N_8
REMARK    7  A    between atoms: C_9  and  C_11
REMARK                            x       y       z     vdW  Elec       q    Type
REMARK                         _______ _______ _______ _____ _____    ______ ____
ROOT
ATOM      1  N   UNL     1       5.849   5.062  17.462  0.00  0.00    +0.000 N 
ATOM      2  C   UNL     1       4.535   5.480  17.614  0.00  0.00    +0.000 C 
ATOM      3  O   UNL     1       4.035   6.389  16.959  0.00  0.00    +0.000 OA
ATOM      4  H   UNL     1       6.189   4.318  18.058  0.00  0.00    +0.000 HD
ENDROOT
BRANCH   2   5
ATOM      5  C   UNL     1       3.712   4.832  18.678  0.00  0.00    +0.000 A 
ATOM      6  C   UNL     1       3.932   3.453  18.866  0.00  0.00    +0.000 A 
ATOM      7  C   UNL     1       3.259   2.746  19.865  0.00  0.00    +0.000 A 
ATOM      8  C   UNL     1       2.362   3.412  20.692  0.00  0.00    +0.000 A 
ATOM      9 CL   UNL     1       1.547   2.546  21.934  0.00  0.00    +0.000 Cl
ATOM     10  C   UNL     1       2.129   4.775  20.526  0.00  0.00    +0.000 A 
ATOM     11  C   UNL     1       2.802   5.487  19.523  0.00  0.00    +0.000 A 
ATOM     12 CL   UNL     1       2.480   7.184  19.440  0.00  0.00    +0.000 Cl
ENDBRANCH   2   5
BRANCH   1  13
ATOM     13  C   UNL     1       6.732   5.386  16.453  0.00  0.00    +0.000 C 
ATOM     14  S   UNL     1       6.508   4.676  14.957  0.00  0.00    +0.000 S 
BRANCH  13  15
ATOM     15  N   UNL     1       7.706   6.292  16.775  0.00  0.00    +0.000 N 
ATOM     16  H   UNL     1       8.602   6.141  16.309  0.00  0.00    +0.000 HD
BRANCH  15  17
ATOM     17  C   UNL     1       7.721   7.121  17.970  0.00  0.00    +0.000 C 
BRANCH  17  18
ATOM     18  C   UNL     1       7.844   8.612  17.664  0.00  0.00    +0.000 C 
BRANCH  18  20
ATOM     19  C   UNL     1       8.983  10.789  18.227  0.00  0.00    +0.000 C 
ATOM     20  C   UNL     1       8.777   9.338  18.635  0.00  0.00    +0.000 C 
ENDBRANCH  18  20
ENDBRANCH  17  18
ENDBRANCH  15  17
ENDBRANCH  13  15
ENDBRANCH   1  13
TORSDOF 6
ENDMDL
MODEL 9
REMARK VINA RESULT:      -6.3      2.635      4.294
REMARK  Name = 
REMARK  7 active torsions:
REMARK  status: ('A' for Active; 'I' for Inactive)
REMARK    1  A    between atoms: C_1  and  C_2
REMARK    2  A    between atoms: C_2  and  C_3
REMARK    3  A    between atoms: C_3  and  C_4
REMARK    4  A    between atoms: C_4  and  N_5
REMARK    5  A    between atoms: N_5  and  C_6
REMARK    6  A    between atoms: C_6  and  N_8
REMARK    7  A    between atoms: C_9  and  C_11
REMARK                            x       y       z     vdW  Elec       q    Type
REMARK                         _______ _______ _______ _____ _____    ______ ____
ROOT
ATOM      1  N   UNL     1       5.736   5.222  17.495  0.00  0.00    +0.000 N 
ATOM      2  C   UNL     1       4.437   5.599  17.802  0.00  0.00    +0.000 C 
ATOM      3  O   UNL     1       3.905   6.611  17.358  0.00  0.00    +0.000 OA
ATOM      4  H   UNL     1       6.106   4.382  17.921  0.00  0.00    +0.000 HD
ENDROOT
BRANCH   2   5
ATOM      5  C   UNL     1       3.675   4.762  18.776  0.00  0.00    +0.000 A 
ATOM      6  C   UNL     1       3.147   5.447  19.888  0.00  0.00    +0.000 A 
ATOM      7  C   UNL     1       2.373   4.782  20.842  0.00  0.00    +0.000 A 
ATOM      8  C   UNL     1       2.113   3.424  20.691  0.00  0.00    +0.000 A 
ATOM      9 CL   UNL     1       1.144   2.610  21.855  0.00  0.00    +0.000 Cl
ATOM     10  C   UNL     1       2.623   2.727  19.599  0.00  0.00    +0.000 A 
ATOM     11  C   UNL     1       3.402   3.391  18.640  0.00  0.00    +0.000 A 
ATOM     12 CL   UNL     1       3.939   2.442  17.297  0.00  0.00    +0.000 Cl
ENDBRANCH   2   5
BRANCH   1  13
ATOM     13  C   UNL     1       6.558   5.730  16.511  0.00  0.00    +0.000 C 
ATOM     14  S   UNL     1       6.965   4.732  15.235  0.00  0.00    +0.000 S 
BRANCH  13  15
ATOM     15  N   UNL     1       6.945   7.034  16.666  0.00  0.00    +0.000 N 
ATOM     16  H   UNL     1       6.971   7.579  15.803  0.00  0.00    +0.000 HD
BRANCH  15  17
ATOM     17  C   UNL     1       7.698   7.559  17.795  0.00  0.00    +0.000 C 
BRANCH  17  18
ATOM     18  C   UNL     1       8.094   9.024  17.623  0.00  0.00    +0.000 C 
BRANCH  18  20
ATOM     19  C   UNL     1       9.241  11.030  18.629  0.00  0.00    +0.000 C 
ATOM     20  C   UNL     1       8.921   9.552  18.795  0.00  0.00    +0.000 C 
ENDBRANCH  18  20
ENDBRANCH  17  18
ENDBRANCH  15  17
ENDBRANCH  13  15
ENDBRANCH   1  13
TORSDOF 6
ENDMDL
