MODEL 1
REMARK VINA RESULT:      -7.8      0.000      0.000
REMARK  Name = 
REMARK  5 active torsions:
REMARK  status: ('A' for Active; 'I' for Inactive)
REMARK    1  A    between atoms: C_1  and  C_2
REMARK    2  A    between atoms: C_4  and  N_5
REMARK    3  A    between atoms: C_6  and  O_8
REMARK    4  A    between atoms: O_8  and  C_9
REMARK    5  A    between atoms: C_17  and  N_18
REMARK                            x       y       z     vdW  Elec       q    Type
REMARK                         _______ _______ _______ _____ _____    ______ ____
ROOT
ATOM      1  N   UNL     1       4.487   4.566  17.549  0.00  0.00    +0.000 N 
ATOM      2  C   UNL     1       4.908   4.204  18.806  0.00  0.00    +0.000 C 
ATOM      3  O   UNL     1       6.058   4.002  19.171  0.00  0.00    +0.000 OA
ATOM      4  H   UNL     1       3.504   4.792  17.490  0.00  0.00    +0.000 HD
ENDROOT
BRANCH   1   8
ATOM      5  C   UNL     1       5.668   3.389  12.873  0.00  0.00    +0.000 C 
ATOM      6  C   UNL     1       5.955   4.187  14.115  0.00  0.00    +0.000 A 
ATOM      7  C   UNL     1       5.111   4.025  15.227  0.00  0.00    +0.000 A 
ATOM      8  C   UNL     1       5.303   4.748  16.417  0.00  0.00    +0.000 A 
ATOM      9  C   UNL     1       6.341   5.686  16.480  0.00  0.00    +0.000 A 
ATOM     10  C   UNL     1       7.201   5.862  15.388  0.00  0.00    +0.000 A 
ATOM     11  C   UNL     1       7.009   5.103  14.225  0.00  0.00    +0.000 A 
BRANCH  11  12
ATOM     12  N   UNL     1       7.937   5.303  13.122  0.00  0.00    +0.000 N 
ATOM     13  O   UNL     1       7.642   4.805  12.028  0.00  0.00    +0.000 OA
ATOM     14  O   UNL     1       8.971   5.940  13.366  0.00  0.00    +0.000 OA
ENDBRANCH  11  12
ENDBRANCH   1   8
BRANCH   2  15
ATOM     15  O   UNL     1       3.840   4.120  19.644  0.00  0.00    +0.000 OA
BRANCH  15  16
ATOM     16  C   UNL     1       3.537   2.787  20.124  0.00  0.00    +0.000 C 
ATOM     17  C   UNL     1       2.499   2.837  21.253  0.00  0.00    +0.000 C 
ATOM     18  C   UNL     1       1.189   3.458  20.775  0.00  0.00    +0.000 C 
ATOM     19  C   UNL     1       0.625   2.713  19.569  0.00  0.00    +0.000 C 
ATOM     20  C   UNL     1       1.650   2.548  18.447  0.00  0.00    +0.000 C 
ATOM     21  C   UNL     1       2.977   1.978  18.951  0.00  0.00    +0.000 C 
ENDBRANCH  15  16
ENDBRANCH   2  15
TORSDOF 4
ENDMDL
MODEL 2
REMARK VINA RESULT:      -7.6      0.828      1.212
REMARK  Name = 
REMARK  5 active torsions:
REMARK  status: ('A' for Active; 'I' for Inactive)
REMARK    1  A    between atoms: C_1  and  C_2
REMARK    2  A    between atoms: C_4  and  N_5
REMARK    3  A    between atoms: C_6  and  O_8
REMARK    4  A    between atoms: O_8  and  C_9
REMARK    5  A    between atoms: C_17  and  N_18
REMARK                            x       y       z     vdW  Elec       q    Type
REMARK                         _______ _______ _______ _____ _____    ______ ____
ROOT
ATOM      1  N   UNL     1       4.945   4.161  17.648  0.00  0.00    +0.000 N 
ATOM      2  C   UNL     1       4.066   5.004  18.284  0.00  0.00    +0.000 C 
ATOM      3  O   UNL     1       3.706   6.113  17.914  0.00  0.00    +0.000 OA
ATOM      4  H   UNL     1       5.018   3.246  18.067  0.00  0.00    +0.000 HD
ENDROOT
BRANCH   1   8
ATOM      5  C   UNL     1       5.391   3.571  12.739  0.00  0.00    +0.000 C 
ATOM      6  C   UNL     1       5.923   4.144  14.023  0.00  0.00    +0.000 A 
ATOM      7  C   UNL     1       5.209   3.907  15.211  0.00  0.00    +0.000 A 
ATOM      8  C   UNL     1       5.632   4.424  16.447  0.00  0.00    +0.000 A 
ATOM      9  C   UNL     1       6.775   5.232  16.489  0.00  0.00    +0.000 A 
ATOM     10  C   UNL     1       7.509   5.479  15.321  0.00  0.00    +0.000 A 
ATOM     11  C   UNL     1       7.085   4.922  14.106  0.00  0.00    +0.000 A 
BRANCH  11  12
ATOM     12  N   UNL     1       7.887   5.187  12.921  0.00  0.00    +0.000 N 
ATOM     13  O   UNL     1       7.585   4.589  11.880  0.00  0.00    +0.000 OA
ATOM     14  O   UNL     1       8.833   5.977  13.048  0.00  0.00    +0.000 OA
ENDBRANCH  11  12
ENDBRANCH   1   8
BRANCH   2  15
ATOM     15  O   UNL     1       3.602   4.416  19.419  0.00  0.00    +0.000 OA
BRANCH  15  16
ATOM     16  C   UNL     1       3.273   3.011  19.295  0.00  0.00    +0.000 C 
ATOM     17  C   UNL     1       3.447   2.289  20.639  0.00  0.00    +0.000 C 
ATOM     18  C   UNL     1       2.531   2.880  21.708  0.00  0.00    +0.000 C 
ATOM     19  C   UNL     1       1.069   2.844  21.272  0.00  0.00    +0.000 C 
ATOM     20  C   UNL     1       0.851   3.464  19.892  0.00  0.00    +0.000 C 
ATOM     21  C   UNL     1       1.814   2.905  18.844  0.00  0.00    +0.000 C 
ENDBRANCH  15  16
ENDBRANCH   2  15
TORSDOF 4
ENDMDL
MODEL 3
REMARK VINA RESULT:      -7.5      5.180      7.426
REMARK  Name = 
REMARK  5 active torsions:
REMARK  status: ('A' for Active; 'I' for Inactive)
REMARK    1  A    between atoms: C_1  and  C_2
REMARK    2  A    between atoms: C_4  and  N_5
REMARK    3  A    between atoms: C_6  and  O_8
REMARK    4  A    between atoms: O_8  and  C_9
REMARK    5  A    between atoms: C_17  and  N_18
REMARK                            x       y       z     vdW  Elec       q    Type
REMARK                         _______ _______ _______ _____ _____    ______ ____
ROOT
ATOM      1  N   UNL     1       2.091   7.586  20.049  0.00  0.00    +0.000 N 
ATOM      2  C   UNL     1       1.791   8.432  19.009  0.00  0.00    +0.000 C 
ATOM      3  O   UNL     1       1.815   8.171  17.814  0.00  0.00    +0.000 OA
ATOM      4  H   UNL     1       1.898   7.969  20.963  0.00  0.00    +0.000 HD
ENDROOT
BRANCH   1   8
ATOM      5  C   UNL     1       1.504   2.787  21.179  0.00  0.00    +0.000 C 
ATOM      6  C   UNL     1       2.296   3.863  20.490  0.00  0.00    +0.000 A 
ATOM      7  C   UNL     1       1.842   5.190  20.573  0.00  0.00    +0.000 A 
ATOM      8  C   UNL     1       2.517   6.248  19.940  0.00  0.00    +0.000 A 
ATOM      9  C   UNL     1       3.653   5.964  19.172  0.00  0.00    +0.000 A 
ATOM     10  C   UNL     1       4.132   4.652  19.078  0.00  0.00    +0.000 A 
ATOM     11  C   UNL     1       3.459   3.619  19.747  0.00  0.00    +0.000 A 
BRANCH  11  12
ATOM     12  N   UNL     1       4.002   2.273  19.639  0.00  0.00    +0.000 N 
ATOM     13  O   UNL     1       3.545   1.541  18.750  0.00  0.00    +0.000 OA
ATOM     14  O   UNL     1       4.867   1.948  20.463  0.00  0.00    +0.000 OA
ENDBRANCH  11  12
ENDBRANCH   1   8
BRANCH   2  15
ATOM     15  O   UNL     1       1.420   9.647  19.494  0.00  0.00    +0.000 OA
BRANCH  15  16
ATOM     16  C   UNL     1       0.118   9.687  20.127  0.00  0.00    +0.000 C 
ATOM     17  C   UNL     1       0.140  10.597  21.362  0.00  0.00    +0.000 C 
ATOM     18  C   UNL     1       0.509  12.031  20.988  0.00  0.00    +0.000 C 
ATOM     19  C   UNL     1      -0.437  12.593  19.932  0.00  0.00    +0.000 C 
ATOM     20  C   UNL     1      -0.573  11.676  18.716  0.00  0.00    +0.000 C 
ATOM     21  C   UNL     1      -0.887  10.232  19.109  0.00  0.00    +0.000 C 
ENDBRANCH  15  16
ENDBRANCH   2  15
TORSDOF 4
ENDMDL
MODEL 4
REMARK VINA RESULT:      -7.5      5.223      7.500
REMARK  Name = 
REMARK  5 active torsions:
REMARK  status: ('A' for Active; 'I' for Inactive)
REMARK    1  A    between atoms: C_1  and  C_2
REMARK    2  A    between atoms: C_4  and  N_5
REMARK    3  A    between atoms: C_6  and  O_8
REMARK    4  A    between atoms: O_8  and  C_9
REMARK    5  A    between atoms: C_17  and  N_18
REMARK                            x       y       z     vdW  Elec       q    Type
REMARK                         _______ _______ _______ _____ _____    ______ ____
ROOT
ATOM      1  N   UNL     1       2.143   7.385  20.070  0.00  0.00    +0.000 N 
ATOM      2  C   UNL     1       1.838   8.238  19.037  0.00  0.00    +0.000 C 
ATOM      3  O   UNL     1       1.871   7.990  17.839  0.00  0.00    +0.000 OA
ATOM      4  H   UNL     1       1.942   7.757  20.987  0.00  0.00    +0.000 HD
ENDROOT
BRANCH   1   8
ATOM      5  C   UNL     1       1.634   2.576  21.190  0.00  0.00    +0.000 C 
ATOM      6  C   UNL     1       2.402   3.664  20.494  0.00  0.00    +0.000 A 
ATOM      7  C   UNL     1       1.932   4.985  20.588  0.00  0.00    +0.000 A 
ATOM      8  C   UNL     1       2.584   6.054  19.950  0.00  0.00    +0.000 A 
ATOM      9  C   UNL     1       3.712   5.787  19.165  0.00  0.00    +0.000 A 
ATOM     10  C   UNL     1       4.207   4.481  19.059  0.00  0.00    +0.000 A 
ATOM     11  C   UNL     1       3.557   3.437  19.733  0.00  0.00    +0.000 A 
BRANCH  11  12
ATOM     12  N   UNL     1       4.115   2.099  19.612  0.00  0.00    +0.000 N 
ATOM     13  O   UNL     1       4.966   1.755  20.444  0.00  0.00    +0.000 OA
ATOM     14  O   UNL     1       3.714   1.406  18.667  0.00  0.00    +0.000 OA
ENDBRANCH  11  12
ENDBRANCH   1   8
BRANCH   2  15
ATOM     15  O   UNL     1       1.452   9.444  19.532  0.00  0.00    +0.000 OA
BRANCH  15  16
ATOM     16  C   UNL     1       0.827  10.333  18.574  0.00  0.00    +0.000 C 
ATOM     17  C   UNL     1      -0.668  10.500  18.880  0.00  0.00    +0.000 C 
ATOM     18  C   UNL     1      -0.886  11.099  20.267  0.00  0.00    +0.000 C 
ATOM     19  C   UNL     1      -0.161  12.433  20.419  0.00  0.00    +0.000 C 
ATOM     20  C   UNL     1       1.316  12.347  20.033  0.00  0.00    +0.000 C 
ATOM     21  C   UNL     1       1.523  11.693  18.666  0.00  0.00    +0.000 C 
ENDBRANCH  15  16
ENDBRANCH   2  15
TORSDOF 4
ENDMDL
MODEL 5
REMARK VINA RESULT:      -7.5      5.423      8.207
REMARK  Name = 
REMARK  5 active torsions:
REMARK  status: ('A' for Active; 'I' for Inactive)
REMARK    1  A    between atoms: C_1  and  C_2
REMARK    2  A    between atoms: C_4  and  N_5
REMARK    3  A    between atoms: C_6  and  O_8
REMARK    4  A    between atoms: O_8  and  C_9
REMARK    5  A    between atoms: C_17  and  N_18
REMARK                            x       y       z     vdW  Elec       q    Type
REMARK                         _______ _______ _______ _____ _____    ______ ____
ROOT
ATOM      1  N   UNL     1       8.555   8.141  18.767  0.00  0.00    +0.000 N 
ATOM      2  C   UNL     1       8.522   9.460  18.384  0.00  0.00    +0.000 C 
ATOM      3  O   UNL     1       7.812   9.963  17.523  0.00  0.00    +0.000 OA
ATOM      4  H   UNL     1       9.134   7.959  19.574  0.00  0.00    +0.000 HD
ENDROOT
BRANCH   1   8
ATOM      5  C   UNL     1       5.075   6.572  15.593  0.00  0.00    +0.000 C 
ATOM      6  C   UNL     1       6.055   6.262  16.690  0.00  0.00    +0.000 A 
ATOM      7  C   UNL     1       6.840   7.308  17.205  0.00  0.00    +0.000 A 
ATOM      8  C   UNL     1       7.791   7.094  18.218  0.00  0.00    +0.000 A 
ATOM      9  C   UNL     1       7.988   5.794  18.698  0.00  0.00    +0.000 A 
ATOM     10  C   UNL     1       7.214   4.734  18.208  0.00  0.00    +0.000 A 
ATOM     11  C   UNL     1       6.248   4.980  17.222  0.00  0.00    +0.000 A 
BRANCH  11  12
ATOM     12  N   UNL     1       5.453   3.855  16.754  0.00  0.00    +0.000 N 
ATOM     13  O   UNL     1       5.814   3.291  15.713  0.00  0.00    +0.000 OA
ATOM     14  O   UNL     1       4.453   3.558  17.422  0.00  0.00    +0.000 OA
ENDBRANCH  11  12
ENDBRANCH   1   8
BRANCH   2  15
ATOM     15  O   UNL     1       9.399  10.181  19.133  0.00  0.00    +0.000 OA
BRANCH  15  16
ATOM     16  C   UNL     1       9.462  11.594  18.820  0.00  0.00    +0.000 C 
ATOM     17  C   UNL     1       9.656  12.426  20.095  0.00  0.00    +0.000 C 
ATOM     18  C   UNL     1      10.957  12.058  20.805  0.00  0.00    +0.000 C 
ATOM     19  C   UNL     1      12.161  12.215  19.880  0.00  0.00    +0.000 C 
ATOM     20  C   UNL     1      11.980  11.484  18.550  0.00  0.00    +0.000 C 
ATOM     21  C   UNL     1      10.648  11.818  17.878  0.00  0.00    +0.000 C 
ENDBRANCH  15  16
ENDBRANCH   2  15
TORSDOF 4
ENDMDL
MODEL 6
REMARK VINA RESULT:      -7.4      1.093      1.873
REMARK  Name = 
REMARK  5 active torsions:
REMARK  status: ('A' for Active; 'I' for Inactive)
REMARK    1  A    between atoms: C_1  and  C_2
REMARK    2  A    between atoms: C_4  and  N_5
REMARK    3  A    between atoms: C_6  and  O_8
REMARK    4  A    between atoms: O_8  and  C_9
REMARK    5  A    between atoms: C_17  and  N_18
REMARK                            x       y       z     vdW  Elec       q    Type
REMARK                         _______ _______ _______ _____ _____    ______ ____
ROOT
ATOM      1  N   UNL     1       4.928   4.356  17.698  0.00  0.00    +0.000 N 
ATOM      2  C   UNL     1       4.199   5.296  18.386  0.00  0.00    +0.000 C 
ATOM      3  O   UNL     1       3.998   6.459  18.062  0.00  0.00    +0.000 OA
ATOM      4  H   UNL     1       4.874   3.425  18.085  0.00  0.00    +0.000 HD
ENDROOT
BRANCH   1   8
ATOM      5  C   UNL     1       5.331   3.607  12.807  0.00  0.00    +0.000 C 
ATOM      6  C   UNL     1       5.889   4.197  14.073  0.00  0.00    +0.000 A 
ATOM      7  C   UNL     1       5.172   4.021  15.269  0.00  0.00    +0.000 A 
ATOM      8  C   UNL     1       5.619   4.558  16.489  0.00  0.00    +0.000 A 
ATOM      9  C   UNL     1       6.792   5.323  16.503  0.00  0.00    +0.000 A 
ATOM     10  C   UNL     1       7.529   5.508  15.327  0.00  0.00    +0.000 A 
ATOM     11  C   UNL     1       7.079   4.933  14.129  0.00  0.00    +0.000 A 
BRANCH  11  12
ATOM     12  N   UNL     1       7.886   5.133  12.935  0.00  0.00    +0.000 N 
ATOM     13  O   UNL     1       8.844   5.913  13.014  0.00  0.00    +0.000 OA
ATOM     14  O   UNL     1       7.539   4.523  11.913  0.00  0.00    +0.000 OA
ENDBRANCH  11  12
ENDBRANCH   1   8
BRANCH   2  15
ATOM     15  O   UNL     1       3.678   4.742  19.514  0.00  0.00    +0.000 OA
BRANCH  15  16
ATOM     16  C   UNL     1       2.270   5.001  19.735  0.00  0.00    +0.000 C 
ATOM     17  C   UNL     1       1.403   4.063  18.883  0.00  0.00    +0.000 C 
ATOM     18  C   UNL     1       1.659   2.599  19.235  0.00  0.00    +0.000 C 
ATOM     19  C   UNL     1       1.427   2.334  20.720  0.00  0.00    +0.000 C 
ATOM     20  C   UNL     1       2.192   3.305  21.618  0.00  0.00    +0.000 C 
ATOM     21  C   UNL     1       1.972   4.765  21.218  0.00  0.00    +0.000 C 
ENDBRANCH  15  16
ENDBRANCH   2  15
TORSDOF 4
ENDMDL
MODEL 7
REMARK VINA RESULT:      -7.4      0.822      1.422
REMARK  Name = 
REMARK  5 active torsions:
REMARK  status: ('A' for Active; 'I' for Inactive)
REMARK    1  A    between atoms: C_1  and  C_2
REMARK    2  A    between atoms: C_4  and  N_5
REMARK    3  A    between atoms: C_6  and  O_8
REMARK    4  A    between atoms: O_8  and  C_9
REMARK    5  A    between atoms: C_17  and  N_18
REMARK                            x       y       z     vdW  Elec       q    Type
REMARK                         _______ _______ _______ _____ _____    ______ ____
ROOT
ATOM      1  N   UNL     1       4.612   4.116  17.390  0.00  0.00    +0.000 N 
ATOM      2  C   UNL     1       5.030   4.031  18.696  0.00  0.00    +0.000 C 
ATOM      3  O   UNL     1       6.157   4.237  19.127  0.00  0.00    +0.000 OA
ATOM      4  H   UNL     1       3.615   4.016  17.267  0.00  0.00    +0.000 HD
ENDROOT
BRANCH   1   8
ATOM      5  C   UNL     1       5.917   3.304  12.670  0.00  0.00    +0.000 C 
ATOM      6  C   UNL     1       6.125   4.056  13.955  0.00  0.00    +0.000 A 
ATOM      7  C   UNL     1       5.294   3.760  15.049  0.00  0.00    +0.000 A 
ATOM      8  C   UNL     1       5.413   4.432  16.277  0.00  0.00    +0.000 A 
ATOM      9  C   UNL     1       6.362   5.456  16.399  0.00  0.00    +0.000 A 
ATOM     10  C   UNL     1       7.208   5.767  15.327  0.00  0.00    +0.000 A 
ATOM     11  C   UNL     1       7.090   5.057  14.123  0.00  0.00    +0.000 A 
BRANCH  11  12
ATOM     12  N   UNL     1       8.002   5.399  13.041  0.00  0.00    +0.000 N 
ATOM     13  O   UNL     1       7.666   5.090  11.890  0.00  0.00    +0.000 OA
ATOM     14  O   UNL     1       9.063   5.955  13.355  0.00  0.00    +0.000 OA
ENDBRANCH  11  12
ENDBRANCH   1   8
BRANCH   2  15
ATOM     15  O   UNL     1       3.981   3.699  19.496  0.00  0.00    +0.000 OA
BRANCH  15  16
ATOM     16  C   UNL     1       2.948   4.708  19.608  0.00  0.00    +0.000 C 
ATOM     17  C   UNL     1       1.854   4.485  18.555  0.00  0.00    +0.000 C 
ATOM     18  C   UNL     1       1.184   3.124  18.729  0.00  0.00    +0.000 C 
ATOM     19  C   UNL     1       0.609   2.961  20.133  0.00  0.00    +0.000 C 
ATOM     20  C   UNL     1       1.633   3.266  21.227  0.00  0.00    +0.000 C 
ATOM     21  C   UNL     1       2.337   4.606  21.008  0.00  0.00    +0.000 C 
ENDBRANCH  15  16
ENDBRANCH   2  15
TORSDOF 4
ENDMDL
MODEL 8
REMARK VINA RESULT:      -7.4      5.004      8.030
REMARK  Name = 
REMARK  5 active torsions:
REMARK  status: ('A' for Active; 'I' for Inactive)
REMARK    1  A    between atoms: C_1  and  C_2
REMARK    2  A    between atoms: C_4  and  N_5
REMARK    3  A    between atoms: C_6  and  O_8
REMARK    4  A    between atoms: O_8  and  C_9
REMARK    5  A    between atoms: C_17  and  N_18
REMARK                            x       y       z     vdW  Elec       q    Type
REMARK                         _______ _______ _______ _____ _____    ______ ____
ROOT
ATOM      1  N   UNL     1       3.343   7.269  18.306  0.00  0.00    +0.000 N 
ATOM      2  C   UNL     1       3.173   5.954  17.947  0.00  0.00    +0.000 C 
ATOM      3  O   UNL     1       2.120   5.333  17.888  0.00  0.00    +0.000 OA
ATOM      4  H   UNL     1       4.283   7.615  18.179  0.00  0.00    +0.000 HD
ENDROOT
BRANCH   1   8
ATOM      5  C   UNL     1       0.160   8.873  21.762  0.00  0.00    +0.000 C 
ATOM      6  C   UNL     1       0.713   8.979  20.368  0.00  0.00    +0.000 A 
ATOM      7  C   UNL     1       1.750   8.109  19.988  0.00  0.00    +0.000 A 
ATOM      8  C   UNL     1       2.331   8.160  18.710  0.00  0.00    +0.000 A 
ATOM      9  C   UNL     1       1.891   9.133  17.803  0.00  0.00    +0.000 A 
ATOM     10  C   UNL     1       0.854  10.008  18.154  0.00  0.00    +0.000 A 
ATOM     11  C   UNL     1       0.268   9.913  19.424  0.00  0.00    +0.000 A 
BRANCH  11  12
ATOM     12  N   UNL     1      -0.819  10.828  19.741  0.00  0.00    +0.000 N 
ATOM     13  O   UNL     1      -1.889  10.677  19.137  0.00  0.00    +0.000 OA
ATOM     14  O   UNL     1      -0.584  11.712  20.577  0.00  0.00    +0.000 OA
ENDBRANCH  11  12
ENDBRANCH   1   8
BRANCH   2  15
ATOM     15  O   UNL     1       4.374   5.405  17.622  0.00  0.00    +0.000 OA
BRANCH  15  16
ATOM     16  C   UNL     1       5.337   6.323  17.047  0.00  0.00    +0.000 C 
ATOM     17  C   UNL     1       6.762   5.966  17.490  0.00  0.00    +0.000 C 
ATOM     18  C   UNL     1       7.147   4.559  17.038  0.00  0.00    +0.000 C 
ATOM     19  C   UNL     1       7.006   4.400  15.527  0.00  0.00    +0.000 C 
ATOM     20  C   UNL     1       5.632   4.835  15.016  0.00  0.00    +0.000 C 
ATOM     21  C   UNL     1       5.235   6.222  15.523  0.00  0.00    +0.000 C 
ENDBRANCH  15  16
ENDBRANCH   2  15
TORSDOF 4
ENDMDL
MODEL 9
REMARK VINA RESULT:      -7.3      5.220      7.864
REMARK  Name = 
REMARK  5 active torsions:
REMARK  status: ('A' for Active; 'I' for Inactive)
REMARK    1  A    between atoms: C_1  and  C_2
REMARK    2  A    between atoms: C_4  and  N_5
REMARK    3  A    between atoms: C_6  and  O_8
REMARK    4  A    between atoms: O_8  and  C_9
REMARK    5  A    between atoms: C_17  and  N_18
REMARK                            x       y       z     vdW  Elec       q    Type
REMARK                         _______ _______ _______ _____ _____    ______ ____
ROOT
ATOM      1  N   UNL     1       2.454   6.677  20.210  0.00  0.00    +0.000 N 
ATOM      2  C   UNL     1       1.918   5.426  20.397  0.00  0.00    +0.000 C 
ATOM      3  O   UNL     1       0.743   5.145  20.591  0.00  0.00    +0.000 OA
ATOM      4  H   UNL     1       3.430   6.676  19.954  0.00  0.00    +0.000 HD
ENDROOT
BRANCH   1   8
ATOM      5  C   UNL     1      -0.272  10.014  22.675  0.00  0.00    +0.000 C 
ATOM      6  C   UNL     1       0.372   9.569  21.392  0.00  0.00    +0.000 A 
ATOM      7  C   UNL     1       1.104   8.369  21.388  0.00  0.00    +0.000 A 
ATOM      8  C   UNL     1       1.751   7.897  20.234  0.00  0.00    +0.000 A 
ATOM      9  C   UNL     1       1.698   8.666  19.065  0.00  0.00    +0.000 A 
ATOM     10  C   UNL     1       0.970   9.862  19.038  0.00  0.00    +0.000 A 
ATOM     11  C   UNL     1       0.305  10.294  20.195  0.00  0.00    +0.000 A 
BRANCH  11  12
ATOM     12  N   UNL     1      -0.456  11.533  20.119  0.00  0.00    +0.000 N 
ATOM     13  O   UNL     1      -1.650  11.453  19.804  0.00  0.00    +0.000 OA
ATOM     14  O   UNL     1       0.157  12.584  20.352  0.00  0.00    +0.000 OA
ENDBRANCH  11  12
ENDBRANCH   1   8
BRANCH   2  15
ATOM     15  O   UNL     1       2.898   4.486  20.310  0.00  0.00    +0.000 OA
BRANCH  15  16
ATOM     16  C   UNL     1       3.621   4.464  19.054  0.00  0.00    +0.000 C 
ATOM     17  C   UNL     1       4.842   3.538  19.145  0.00  0.00    +0.000 C 
ATOM     18  C   UNL     1       4.427   2.103  19.458  0.00  0.00    +0.000 C 
ATOM     19  C   UNL     1       3.434   1.572  18.429  0.00  0.00    +0.000 C 
ATOM     20  C   UNL     1       2.241   2.506  18.226  0.00  0.00    +0.000 C 
ATOM     21  C   UNL     1       2.670   3.951  17.970  0.00  0.00    +0.000 C 
ENDBRANCH  15  16
ENDBRANCH   2  15
TORSDOF 4
ENDMDL
