MODEL 1
REMARK VINA RESULT:      -6.2      0.000      0.000
REMARK  Name = 
REMARK  3 active torsions:
REMARK  status: ('A' for Active; 'I' for Inactive)
REMARK    1  A    between atoms: C_2  and  C_3
REMARK    2  A    between atoms: C_2  and  C_10
REMARK    3  A    between atoms: C_4  and  C_5
REMARK                            x       y       z     vdW  Elec       q    Type
REMARK                         _______ _______ _______ _____ _____    ______ ____
ROOT
ATOM      1  O   UNL     1       2.195   8.883  17.345  0.00  0.00    +0.000 OA
ATOM      2  C   UNL     1       2.135   8.279  18.408  0.00  0.00    +0.000 C 
ENDROOT
BRANCH   2   3
ATOM      3  C   UNL     1       1.368   8.831  19.555  0.00  0.00    +0.000 A 
ATOM      4  C   UNL     1       0.589   9.976  19.345  0.00  0.00    +0.000 A 
ATOM      5  C   UNL     1      -0.133  10.536  20.404  0.00  0.00    +0.000 A 
ATOM      6  C   UNL     1      -0.066   9.956  21.670  0.00  0.00    +0.000 A 
ATOM      7 CL   UNL     1      -0.941  10.654  22.977  0.00  0.00    +0.000 Cl
ATOM      8  C   UNL     1       0.716   8.822  21.890  0.00  0.00    +0.000 A 
ATOM      9  C   UNL     1       1.435   8.259  20.832  0.00  0.00    +0.000 A 
ENDBRANCH   2   3
BRANCH   2  10
ATOM     10  C   UNL     1       2.768   6.950  18.604  0.00  0.00    +0.000 C 
ATOM     11  C   UNL     1       2.172   5.833  18.158  0.00  0.00    +0.000 C 
BRANCH  11  12
ATOM     12  C   UNL     1       2.692   4.507  18.324  0.00  0.00    +0.000 A 
ATOM     13  C   UNL     1       2.488   3.396  17.446  0.00  0.00    +0.000 A 
ATOM     14  C   UNL     1       3.131   2.257  17.881  0.00  0.00    +0.000 A 
ATOM     15  S   UNL     1       3.975   2.517  19.344  0.00  0.00    +0.000 S 
ATOM     16  C   UNL     1       3.486   4.158  19.397  0.00  0.00    +0.000 A 
ENDBRANCH  11  12
ENDBRANCH   2  10
TORSDOF 3
ENDMDL
MODEL 2
REMARK VINA RESULT:      -6.1      5.141      6.218
REMARK  Name = 
REMARK  3 active torsions:
REMARK  status: ('A' for Active; 'I' for Inactive)
REMARK    1  A    between atoms: C_2  and  C_3
REMARK    2  A    between atoms: C_2  and  C_10
REMARK    3  A    between atoms: C_4  and  C_5
REMARK                            x       y       z     vdW  Elec       q    Type
REMARK                         _______ _______ _______ _____ _____    ______ ____
ROOT
ATOM      1  O   UNL     1       6.163   3.547  15.252  0.00  0.00    +0.000 OA
ATOM      2  C   UNL     1       5.721   4.057  16.273  0.00  0.00    +0.000 C 
ENDROOT
BRANCH   2   3
ATOM      3  C   UNL     1       6.446   5.166  16.945  0.00  0.00    +0.000 A 
ATOM      4  C   UNL     1       6.227   6.474  16.494  0.00  0.00    +0.000 A 
ATOM      5  C   UNL     1       6.903   7.542  17.090  0.00  0.00    +0.000 A 
ATOM      6  C   UNL     1       7.805   7.300  18.126  0.00  0.00    +0.000 A 
ATOM      7 CL   UNL     1       8.650   8.613  18.848  0.00  0.00    +0.000 Cl
ATOM      8  C   UNL     1       8.037   6.000  18.573  0.00  0.00    +0.000 A 
ATOM      9  C   UNL     1       7.358   4.931  17.982  0.00  0.00    +0.000 A 
ENDBRANCH   2   3
BRANCH   2  10
ATOM     10  C   UNL     1       4.424   3.646  16.869  0.00  0.00    +0.000 C 
ATOM     11  C   UNL     1       4.102   4.000  18.122  0.00  0.00    +0.000 C 
BRANCH  11  12
ATOM     12  C   UNL     1       2.888   3.629  18.791  0.00  0.00    +0.000 A 
ATOM     13  C   UNL     1       1.849   2.795  18.268  0.00  0.00    +0.000 A 
ATOM     14  C   UNL     1       0.817   2.620  19.163  0.00  0.00    +0.000 A 
ATOM     15  S   UNL     1       1.088   3.456  20.628  0.00  0.00    +0.000 S 
ATOM     16  C   UNL     1       2.593   4.053  20.070  0.00  0.00    +0.000 A 
ENDBRANCH  11  12
ENDBRANCH   2  10
TORSDOF 3
ENDMDL
MODEL 3
REMARK VINA RESULT:      -6.1      4.962      7.434
REMARK  Name = 
REMARK  3 active torsions:
REMARK  status: ('A' for Active; 'I' for Inactive)
REMARK    1  A    between atoms: C_2  and  C_3
REMARK    2  A    between atoms: C_2  and  C_10
REMARK    3  A    between atoms: C_4  and  C_5
REMARK                            x       y       z     vdW  Elec       q    Type
REMARK                         _______ _______ _______ _____ _____    ______ ____
ROOT
ATOM      1  O   UNL     1       4.978   3.308  19.482  0.00  0.00    +0.000 OA
ATOM      2  C   UNL     1       4.863   4.338  18.831  0.00  0.00    +0.000 C 
ENDROOT
BRANCH   2   3
ATOM      3  C   UNL     1       5.495   4.466  17.492  0.00  0.00    +0.000 A 
ATOM      4  C   UNL     1       6.757   5.066  17.406  0.00  0.00    +0.000 A 
ATOM      5  C   UNL     1       7.376   5.220  16.162  0.00  0.00    +0.000 A 
ATOM      6  C   UNL     1       6.727   4.785  15.006  0.00  0.00    +0.000 A 
ATOM      7 CL   UNL     1       7.481   4.989  13.474  0.00  0.00    +0.000 Cl
ATOM      8  C   UNL     1       5.465   4.196  15.083  0.00  0.00    +0.000 A 
ATOM      9  C   UNL     1       4.846   4.037  16.325  0.00  0.00    +0.000 A 
ENDBRANCH   2   3
BRANCH   2  10
ATOM     10  C   UNL     1       4.052   5.490  19.300  0.00  0.00    +0.000 C 
ATOM     11  C   UNL     1       3.304   6.199  18.442  0.00  0.00    +0.000 C 
BRANCH  11  12
ATOM     12  C   UNL     1       2.511   7.341  18.797  0.00  0.00    +0.000 A 
ATOM     13  C   UNL     1       2.123   8.411  17.930  0.00  0.00    +0.000 A 
ATOM     14  C   UNL     1       1.352   9.354  18.573  0.00  0.00    +0.000 A 
ATOM     15  S   UNL     1       1.097   8.963  20.216  0.00  0.00    +0.000 S 
ATOM     16  C   UNL     1       2.015   7.524  20.071  0.00  0.00    +0.000 A 
ENDBRANCH  11  12
ENDBRANCH   2  10
TORSDOF 3
ENDMDL
MODEL 4
REMARK VINA RESULT:      -6.1      5.974      7.766
REMARK  Name = 
REMARK  3 active torsions:
REMARK  status: ('A' for Active; 'I' for Inactive)
REMARK    1  A    between atoms: C_2  and  C_3
REMARK    2  A    between atoms: C_2  and  C_10
REMARK    3  A    between atoms: C_4  and  C_5
REMARK                            x       y       z     vdW  Elec       q    Type
REMARK                         _______ _______ _______ _____ _____    ______ ____
ROOT
ATOM      1  O   UNL     1       7.796   6.642  16.350  0.00  0.00    +0.000 OA
ATOM      2  C   UNL     1       7.070   7.189  17.169  0.00  0.00    +0.000 C 
ENDROOT
BRANCH   2   3
ATOM      3  C   UNL     1       5.880   6.489  17.719  0.00  0.00    +0.000 A 
ATOM      4  C   UNL     1       6.075   5.534  18.724  0.00  0.00    +0.000 A 
ATOM      5  C   UNL     1       4.982   4.842  19.254  0.00  0.00    +0.000 A 
ATOM      6  C   UNL     1       3.700   5.097  18.770  0.00  0.00    +0.000 A 
ATOM      7 CL   UNL     1       2.357   4.234  19.411  0.00  0.00    +0.000 Cl
ATOM      8  C   UNL     1       3.498   6.039  17.761  0.00  0.00    +0.000 A 
ATOM      9  C   UNL     1       4.589   6.735  17.233  0.00  0.00    +0.000 A 
ENDBRANCH   2   3
BRANCH   2  10
ATOM     10  C   UNL     1       7.354   8.546  17.703  0.00  0.00    +0.000 C 
ATOM     11  C   UNL     1       8.597   8.894  18.067  0.00  0.00    +0.000 C 
BRANCH  11  12
ATOM     12  C   UNL     1       8.961  10.168  18.617  0.00  0.00    +0.000 A 
ATOM     13  C   UNL     1       8.997  11.417  17.920  0.00  0.00    +0.000 A 
ATOM     14  C   UNL     1       9.379  12.462  18.733  0.00  0.00    +0.000 A 
ATOM     15  S   UNL     1       9.699  11.947  20.330  0.00  0.00    +0.000 S 
ATOM     16  C   UNL     1       9.323  10.322  19.939  0.00  0.00    +0.000 A 
ENDBRANCH  11  12
ENDBRANCH   2  10
TORSDOF 3
ENDMDL
MODEL 5
REMARK VINA RESULT:      -6.1      4.888      6.314
REMARK  Name = 
REMARK  3 active torsions:
REMARK  status: ('A' for Active; 'I' for Inactive)
REMARK    1  A    between atoms: C_2  and  C_3
REMARK    2  A    between atoms: C_2  and  C_10
REMARK    3  A    between atoms: C_4  and  C_5
REMARK                            x       y       z     vdW  Elec       q    Type
REMARK                         _______ _______ _______ _____ _____    ______ ____
ROOT
ATOM      1  O   UNL     1       6.185   3.697  15.496  0.00  0.00    +0.000 OA
ATOM      2  C   UNL     1       5.894   4.171  16.586  0.00  0.00    +0.000 C 
ENDROOT
BRANCH   2   3
ATOM      3  C   UNL     1       6.612   5.359  17.116  0.00  0.00    +0.000 A 
ATOM      4  C   UNL     1       7.378   5.210  18.279  0.00  0.00    +0.000 A 
ATOM      5  C   UNL     1       8.055   6.308  18.818  0.00  0.00    +0.000 A 
ATOM      6  C   UNL     1       7.955   7.554  18.200  0.00  0.00    +0.000 A 
ATOM      7 CL   UNL     1       8.775   8.909  18.871  0.00  0.00    +0.000 Cl
ATOM      8  C   UNL     1       7.186   7.713  17.047  0.00  0.00    +0.000 A 
ATOM      9  C   UNL     1       6.512   6.616  16.505  0.00  0.00    +0.000 A 
ENDBRANCH   2   3
BRANCH   2  10
ATOM     10  C   UNL     1       4.784   3.636  17.416  0.00  0.00    +0.000 C 
ATOM     11  C   UNL     1       3.717   4.395  17.707  0.00  0.00    +0.000 C 
BRANCH  11  12
ATOM     12  C   UNL     1       2.612   3.976  18.521  0.00  0.00    +0.000 A 
ATOM     13  C   UNL     1       1.646   2.972  18.194  0.00  0.00    +0.000 A 
ATOM     14  C   UNL     1       0.714   2.794  19.193  0.00  0.00    +0.000 A 
ATOM     15  S   UNL     1       0.993   3.831  20.522  0.00  0.00    +0.000 S 
ATOM     16  C   UNL     1       2.367   4.520  19.765  0.00  0.00    +0.000 A 
ENDBRANCH  11  12
ENDBRANCH   2  10
TORSDOF 3
ENDMDL
MODEL 6
REMARK VINA RESULT:      -6.1      0.744      1.425
REMARK  Name = 
REMARK  3 active torsions:
REMARK  status: ('A' for Active; 'I' for Inactive)
REMARK    1  A    between atoms: C_2  and  C_3
REMARK    2  A    between atoms: C_2  and  C_10
REMARK    3  A    between atoms: C_4  and  C_5
REMARK                            x       y       z     vdW  Elec       q    Type
REMARK                         _______ _______ _______ _____ _____    ______ ____
ROOT
ATOM      1  O   UNL     1       2.202   9.125  17.395  0.00  0.00    +0.000 OA
ATOM      2  C   UNL     1       2.083   8.462  18.417  0.00  0.00    +0.000 C 
ENDROOT
BRANCH   2   3
ATOM      3  C   UNL     1       1.322   8.988  19.580  0.00  0.00    +0.000 A 
ATOM      4  C   UNL     1       1.407   8.300  20.797  0.00  0.00    +0.000 A 
ATOM      5  C   UNL     1       0.692   8.754  21.909  0.00  0.00    +0.000 A 
ATOM      6  C   UNL     1      -0.113   9.887  21.800  0.00  0.00    +0.000 A 
ATOM      7 CL   UNL     1      -1.005  10.437  23.164  0.00  0.00    +0.000 Cl
ATOM      8  C   UNL     1      -0.211  10.572  20.589  0.00  0.00    +0.000 A 
ATOM      9  C   UNL     1       0.505  10.122  19.477  0.00  0.00    +0.000 A 
ENDBRANCH   2   3
BRANCH   2  10
ATOM     10  C   UNL     1       2.632   7.088  18.542  0.00  0.00    +0.000 C 
ATOM     11  C   UNL     1       2.025   6.049  17.950  0.00  0.00    +0.000 C 
BRANCH  11  12
ATOM     12  C   UNL     1       2.465   4.686  18.038  0.00  0.00    +0.000 A 
ATOM     13  C   UNL     1       3.612   4.119  17.398  0.00  0.00    +0.000 A 
ATOM     14  C   UNL     1       3.769   2.782  17.690  0.00  0.00    +0.000 A 
ATOM     15  S   UNL     1       2.541   2.203  18.727  0.00  0.00    +0.000 S 
ATOM     16  C   UNL     1       1.796   3.744  18.792  0.00  0.00    +0.000 A 
ENDBRANCH  11  12
ENDBRANCH   2  10
TORSDOF 3
ENDMDL
MODEL 7
REMARK VINA RESULT:      -6.0      0.557      1.022
REMARK  Name = 
REMARK  3 active torsions:
REMARK  status: ('A' for Active; 'I' for Inactive)
REMARK    1  A    between atoms: C_2  and  C_3
REMARK    2  A    between atoms: C_2  and  C_10
REMARK    3  A    between atoms: C_4  and  C_5
REMARK                            x       y       z     vdW  Elec       q    Type
REMARK                         _______ _______ _______ _____ _____    ______ ____
ROOT
ATOM      1  O   UNL     1       2.258   8.818  17.323  0.00  0.00    +0.000 OA
ATOM      2  C   UNL     1       2.204   8.240  18.401  0.00  0.00    +0.000 C 
ENDROOT
BRANCH   2   3
ATOM      3  C   UNL     1       1.412   8.801  19.526  0.00  0.00    +0.000 A 
ATOM      4  C   UNL     1       0.658   9.959  19.297  0.00  0.00    +0.000 A 
ATOM      5  C   UNL     1      -0.085  10.527  20.336  0.00  0.00    +0.000 A 
ATOM      6  C   UNL     1      -0.064   9.944  21.603  0.00  0.00    +0.000 A 
ATOM      7 CL   UNL     1      -0.967  10.651  22.885  0.00  0.00    +0.000 Cl
ATOM      8  C   UNL     1       0.693   8.797  21.841  0.00  0.00    +0.000 A 
ATOM      9  C   UNL     1       1.434   8.225  20.803  0.00  0.00    +0.000 A 
ENDBRANCH   2   3
BRANCH   2  10
ATOM     10  C   UNL     1       2.868   6.933  18.636  0.00  0.00    +0.000 C 
ATOM     11  C   UNL     1       2.322   5.794  18.185  0.00  0.00    +0.000 C 
BRANCH  11  12
ATOM     12  C   UNL     1       2.875   4.485  18.387  0.00  0.00    +0.000 A 
ATOM     13  C   UNL     1       3.765   4.090  19.434  0.00  0.00    +0.000 A 
ATOM     14  C   UNL     1       4.107   2.757  19.358  0.00  0.00    +0.000 A 
ATOM     15  S   UNL     1       3.366   1.980  18.030  0.00  0.00    +0.000 S 
ATOM     16  C   UNL     1       2.580   3.426  17.554  0.00  0.00    +0.000 A 
ENDBRANCH  11  12
ENDBRANCH   2  10
TORSDOF 3
ENDMDL
MODEL 8
REMARK VINA RESULT:      -6.0      7.145      9.047
REMARK  Name = 
REMARK  3 active torsions:
REMARK  status: ('A' for Active; 'I' for Inactive)
REMARK    1  A    between atoms: C_2  and  C_3
REMARK    2  A    between atoms: C_2  and  C_10
REMARK    3  A    between atoms: C_4  and  C_5
REMARK                            x       y       z     vdW  Elec       q    Type
REMARK                         _______ _______ _______ _____ _____    ______ ____
ROOT
ATOM      1  O   UNL     1       7.830   6.242  19.186  0.00  0.00    +0.000 OA
ATOM      2  C   UNL     1       7.629   6.806  18.119  0.00  0.00    +0.000 C 
ENDROOT
BRANCH   2   3
ATOM      3  C   UNL     1       7.015   6.079  16.978  0.00  0.00    +0.000 A 
ATOM      4  C   UNL     1       5.897   6.644  16.352  0.00  0.00    +0.000 A 
ATOM      5  C   UNL     1       5.281   5.981  15.286  0.00  0.00    +0.000 A 
ATOM      6  C   UNL     1       5.776   4.750  14.857  0.00  0.00    +0.000 A 
ATOM      7 CL   UNL     1       5.008   3.927  13.556  0.00  0.00    +0.000 Cl
ATOM      8  C   UNL     1       6.882   4.175  15.482  0.00  0.00    +0.000 A 
ATOM      9  C   UNL     1       7.502   4.838  16.545  0.00  0.00    +0.000 A 
ENDBRANCH   2   3
BRANCH   2  10
ATOM     10  C   UNL     1       7.927   8.246  17.912  0.00  0.00    +0.000 C 
ATOM     11  C   UNL     1       8.720   8.913  18.764  0.00  0.00    +0.000 C 
BRANCH  11  12
ATOM     12  C   UNL     1       9.042  10.307  18.661  0.00  0.00    +0.000 A 
ATOM     13  C   UNL     1       8.498  11.240  17.722  0.00  0.00    +0.000 A 
ATOM     14  C   UNL     1       9.005  12.510  17.890  0.00  0.00    +0.000 A 
ATOM     15  S   UNL     1      10.136  12.586  19.168  0.00  0.00    +0.000 S 
ATOM     16  C   UNL     1       9.947  10.917  19.505  0.00  0.00    +0.000 A 
ENDBRANCH  11  12
ENDBRANCH   2  10
TORSDOF 3
ENDMDL
MODEL 9
REMARK VINA RESULT:      -6.0      0.790      1.507
REMARK  Name = 
REMARK  3 active torsions:
REMARK  status: ('A' for Active; 'I' for Inactive)
REMARK    1  A    between atoms: C_2  and  C_3
REMARK    2  A    between atoms: C_2  and  C_10
REMARK    3  A    between atoms: C_4  and  C_5
REMARK                            x       y       z     vdW  Elec       q    Type
REMARK                         _______ _______ _______ _____ _____    ______ ____
ROOT
ATOM      1  O   UNL     1       2.508   8.616  17.421  0.00  0.00    +0.000 OA
ATOM      2  C   UNL     1       2.211   8.085  18.483  0.00  0.00    +0.000 C 
ENDROOT
BRANCH   2   3
ATOM      3  C   UNL     1       1.463   8.834  19.525  0.00  0.00    +0.000 A 
ATOM      4  C   UNL     1       1.387   8.287  20.813  0.00  0.00    +0.000 A 
ATOM      5  C   UNL     1       0.677   8.953  21.816  0.00  0.00    +0.000 A 
ATOM      6  C   UNL     1       0.035  10.157  21.527  0.00  0.00    +0.000 A 
ATOM      7 CL   UNL     1      -0.852  10.970  22.757  0.00  0.00    +0.000 Cl
ATOM      8  C   UNL     1       0.097  10.703  20.245  0.00  0.00    +0.000 A 
ATOM      9  C   UNL     1       0.810  10.041  19.242  0.00  0.00    +0.000 A 
ENDBRANCH   2   3
BRANCH   2  10
ATOM     10  C   UNL     1       2.525   6.663  18.776  0.00  0.00    +0.000 C 
ATOM     11  C   UNL     1       2.072   5.682  17.981  0.00  0.00    +0.000 C 
BRANCH  11  12
ATOM     12  C   UNL     1       2.300   4.282  18.199  0.00  0.00    +0.000 A 
ATOM     13  C   UNL     1       1.511   3.407  19.010  0.00  0.00    +0.000 A 
ATOM     14  C   UNL     1       1.987   2.114  19.005  0.00  0.00    +0.000 A 
ATOM     15  S   UNL     1       3.381   1.948  18.032  0.00  0.00    +0.000 S 
ATOM     16  C   UNL     1       3.349   3.608  17.610  0.00  0.00    +0.000 A 
ENDBRANCH  11  12
ENDBRANCH   2  10
TORSDOF 3
ENDMDL
