MODEL 1
REMARK VINA RESULT:      -9.1      0.000      0.000
REMARK  Name = 
REMARK  3 active torsions:
REMARK  status: ('A' for Active; 'I' for Inactive)
REMARK    1  A    between atoms: C_6  and  C_7
REMARK    2  A    between atoms: N_9  and  C_10
REMARK    3  A    between atoms: C_10  and  C_11
REMARK                            x       y       z     vdW  Elec       q    Type
REMARK                         _______ _______ _______ _____ _____    ______ ____
ROOT
ATOM      1  C   UNL     1       3.079   5.811  18.178  0.00  0.00    +0.000 A 
ATOM      2  N   UNL     1       4.123   5.917  17.333  0.00  0.00    +0.000 NA
ATOM      3  N   UNL     1       4.535   4.645  17.137  0.00  0.00    +0.000 N 
ATOM      4  C   UNL     1       3.822   3.731  17.868  0.00  0.00    +0.000 A 
ATOM      5  N   UNL     1       4.061   2.415  17.978  0.00  0.00    +0.000 NA
ATOM      6  C   UNL     1       3.144   1.805  18.741  0.00  0.00    +0.000 A 
ATOM      7  N   UNL     1       2.071   2.352  19.339  0.00  0.00    +0.000 NA
ATOM      8  C   UNL     1       1.868   3.680  19.215  0.00  0.00    +0.000 A 
ATOM      9  N   UNL     1       0.752   4.177  19.851  0.00  0.00    +0.000 N 
ATOM     10  C   UNL     1       2.800   4.438  18.481  0.00  0.00    +0.000 A 
ATOM     11  H   UNL     1       0.151   3.482  20.271  0.00  0.00    +0.000 HD
ATOM     12  H   UNL     1       0.385   5.092  19.638  0.00  0.00    +0.000 HD
ENDROOT
BRANCH   1  18
ATOM     13  N   UNL     1      -0.227  10.481  22.507  0.00  0.00    +0.000 N 
ATOM     14  C   UNL     1       0.438   9.739  21.623  0.00  0.00    +0.000 A 
ATOM     15  N   UNL     1       1.051   8.595  21.813  0.00  0.00    +0.000 NA
ATOM     16  C   UNL     1       1.492   8.259  20.560  0.00  0.00    +0.000 A 
ATOM     17  C   UNL     1       2.175   7.128  20.087  0.00  0.00    +0.000 A 
ATOM     18  C   UNL     1       2.451   7.026  18.708  0.00  0.00    +0.000 A 
ATOM     19  C   UNL     1       2.034   8.056  17.839  0.00  0.00    +0.000 A 
ATOM     20  C   UNL     1       1.409   9.221  18.302  0.00  0.00    +0.000 A 
ATOM     21  C   UNL     1       1.148   9.253  19.662  0.00  0.00    +0.000 A 
ATOM     22  O   UNL     1       0.486  10.226  20.351  0.00  0.00    +0.000 OA
ATOM     23  H   UNL     1      -0.081  10.271  23.485  0.00  0.00    +0.000 HD
ATOM     24  H   UNL     1      -0.384  11.456  22.285  0.00  0.00    +0.000 HD
ENDBRANCH   1  18
BRANCH   3  25
ATOM     25  C   UNL     1       5.704   4.419  16.302  0.00  0.00    +0.000 C 
BRANCH  25  26
ATOM     26  C   UNL     1       7.024   4.998  16.806  0.00  0.00    +0.000 C 
ATOM     27  O   UNL     1       7.014   6.429  16.732  0.00  0.00    +0.000 OA
ATOM     28  C   UNL     1       7.812   6.842  17.836  0.00  0.00    +0.000 C 
ATOM     29  C   UNL     1       7.527   5.806  18.890  0.00  0.00    +0.000 C 
ATOM     30  O   UNL     1       7.241   4.603  18.175  0.00  0.00    +0.000 OA
ENDBRANCH  25  26
ENDBRANCH   3  25
TORSDOF 3
ENDMDL
MODEL 2
REMARK VINA RESULT:      -9.0      1.386      1.864
REMARK  Name = 
REMARK  3 active torsions:
REMARK  status: ('A' for Active; 'I' for Inactive)
REMARK    1  A    between atoms: C_6  and  C_7
REMARK    2  A    between atoms: N_9  and  C_10
REMARK    3  A    between atoms: C_10  and  C_11
REMARK                            x       y       z     vdW  Elec       q    Type
REMARK                         _______ _______ _______ _____ _____    ______ ____
ROOT
ATOM      1  C   UNL     1       3.418   6.198  18.832  0.00  0.00    +0.000 A 
ATOM      2  N   UNL     1       4.577   6.292  18.154  0.00  0.00    +0.000 NA
ATOM      3  N   UNL     1       5.163   5.084  18.309  0.00  0.00    +0.000 N 
ATOM      4  C   UNL     1       4.440   4.235  19.106  0.00  0.00    +0.000 A 
ATOM      5  N   UNL     1       4.807   3.019  19.540  0.00  0.00    +0.000 NA
ATOM      6  C   UNL     1       3.844   2.440  20.270  0.00  0.00    +0.000 A 
ATOM      7  N   UNL     1       2.623   2.925  20.562  0.00  0.00    +0.000 NA
ATOM      8  C   UNL     1       2.294   4.156  20.117  0.00  0.00    +0.000 A 
ATOM      9  N   UNL     1       1.032   4.594  20.451  0.00  0.00    +0.000 N 
ATOM     10  C   UNL     1       3.249   4.885  19.385  0.00  0.00    +0.000 A 
ATOM     11  H   UNL     1       0.449   3.913  20.917  0.00  0.00    +0.000 HD
ATOM     12  H   UNL     1       0.605   5.381  19.987  0.00  0.00    +0.000 HD
ENDROOT
BRANCH   1  18
ATOM     13  N   UNL     1      -1.118  11.089  21.475  0.00  0.00    +0.000 N 
ATOM     14  C   UNL     1      -0.227  10.292  20.886  0.00  0.00    +0.000 A 
ATOM     15  N   UNL     1       0.475   9.320  21.416  0.00  0.00    +0.000 NA
ATOM     16  C   UNL     1       1.162   8.806  20.348  0.00  0.00    +0.000 A 
ATOM     17  C   UNL     1       2.047   7.722  20.245  0.00  0.00    +0.000 A 
ATOM     18  C   UNL     1       2.567   7.384  18.978  0.00  0.00    +0.000 A 
ATOM     19  C   UNL     1       2.186   8.137  17.849  0.00  0.00    +0.000 A 
ATOM     20  C   UNL     1       1.357   9.263  17.941  0.00  0.00    +0.000 A 
ATOM     21  C   UNL     1       0.862   9.532  19.208  0.00  0.00    +0.000 A 
ATOM     22  O   UNL     1      -0.019  10.510  19.557  0.00  0.00    +0.000 OA
ATOM     23  H   UNL     1      -1.120  11.107  22.487  0.00  0.00    +0.000 HD
ATOM     24  H   UNL     1      -1.350  11.961  21.019  0.00  0.00    +0.000 HD
ENDBRANCH   1  18
BRANCH   3  25
ATOM     25  C   UNL     1       6.482   4.876  17.733  0.00  0.00    +0.000 C 
BRANCH  25  26
ATOM     26  C   UNL     1       6.536   4.130  16.402  0.00  0.00    +0.000 C 
ATOM     27  O   UNL     1       5.282   4.224  15.714  0.00  0.00    +0.000 OA
ATOM     28  C   UNL     1       5.639   4.230  14.336  0.00  0.00    +0.000 C 
ATOM     29  C   UNL     1       6.949   4.970  14.311  0.00  0.00    +0.000 C 
ATOM     30  O   UNL     1       7.568   4.694  15.568  0.00  0.00    +0.000 OA
ENDBRANCH  25  26
ENDBRANCH   3  25
TORSDOF 3
ENDMDL
MODEL 3
REMARK VINA RESULT:      -9.0      1.154      1.546
REMARK  Name = 
REMARK  3 active torsions:
REMARK  status: ('A' for Active; 'I' for Inactive)
REMARK    1  A    between atoms: C_6  and  C_7
REMARK    2  A    between atoms: N_9  and  C_10
REMARK    3  A    between atoms: C_10  and  C_11
REMARK                            x       y       z     vdW  Elec       q    Type
REMARK                         _______ _______ _______ _____ _____    ______ ____
ROOT
ATOM      1  C   UNL     1       3.031   5.735  18.226  0.00  0.00    +0.000 A 
ATOM      2  N   UNL     1       4.069   5.932  17.392  0.00  0.00    +0.000 NA
ATOM      3  N   UNL     1       4.522   4.691  17.108  0.00  0.00    +0.000 N 
ATOM      4  C   UNL     1       3.838   3.706  17.773  0.00  0.00    +0.000 A 
ATOM      5  N   UNL     1       4.119   2.394  17.792  0.00  0.00    +0.000 NA
ATOM      6  C   UNL     1       3.223   1.703  18.509  0.00  0.00    +0.000 A 
ATOM      7  N   UNL     1       2.133   2.173  19.143  0.00  0.00    +0.000 NA
ATOM      8  C   UNL     1       1.888   3.500  19.111  0.00  0.00    +0.000 A 
ATOM      9  N   UNL     1       0.758   3.916  19.779  0.00  0.00    +0.000 N 
ATOM     10  C   UNL     1       2.795   4.335  18.433  0.00  0.00    +0.000 A 
ATOM     11  H   UNL     1       0.179   3.175  20.148  0.00  0.00    +0.000 HD
ATOM     12  H   UNL     1       0.362   4.831  19.629  0.00  0.00    +0.000 HD
ENDROOT
BRANCH   1  18
ATOM     13  N   UNL     1       0.416  12.316  19.379  0.00  0.00    +0.000 N 
ATOM     14  C   UNL     1       0.798  11.044  19.271  0.00  0.00    +0.000 A 
ATOM     15  N   UNL     1       1.234  10.409  18.210  0.00  0.00    +0.000 NA
ATOM     16  C   UNL     1       1.543   9.164  18.690  0.00  0.00    +0.000 A 
ATOM     17  C   UNL     1       2.097   8.037  18.064  0.00  0.00    +0.000 A 
ATOM     18  C   UNL     1       2.364   6.889  18.839  0.00  0.00    +0.000 A 
ATOM     19  C   UNL     1       2.072   6.900  20.218  0.00  0.00    +0.000 A 
ATOM     20  C   UNL     1       1.458   7.991  20.847  0.00  0.00    +0.000 A 
ATOM     21  C   UNL     1       1.239   9.095  20.038  0.00  0.00    +0.000 A 
ATOM     22  O   UNL     1       0.734  10.304  20.413  0.00  0.00    +0.000 OA
ATOM     23  H   UNL     1       0.232  12.815  18.518  0.00  0.00    +0.000 HD
ATOM     24  H   UNL     1      -0.161  12.573  20.169  0.00  0.00    +0.000 HD
ENDBRANCH   1  18
BRANCH   3  25
ATOM     25  C   UNL     1       5.696   4.560  16.261  0.00  0.00    +0.000 C 
BRANCH  25  26
ATOM     26  C   UNL     1       7.012   5.080  16.834  0.00  0.00    +0.000 C 
ATOM     27  O   UNL     1       7.041   6.513  16.822  0.00  0.00    +0.000 OA
ATOM     28  C   UNL     1       7.810   6.857  17.969  0.00  0.00    +0.000 C 
ATOM     29  C   UNL     1       7.460   5.786  18.967  0.00  0.00    +0.000 C 
ATOM     30  O   UNL     1       7.169   4.623  18.192  0.00  0.00    +0.000 OA
ENDBRANCH  25  26
ENDBRANCH   3  25
TORSDOF 3
ENDMDL
MODEL 4
REMARK VINA RESULT:      -8.9      2.231      6.759
REMARK  Name = 
REMARK  3 active torsions:
REMARK  status: ('A' for Active; 'I' for Inactive)
REMARK    1  A    between atoms: C_6  and  C_7
REMARK    2  A    between atoms: N_9  and  C_10
REMARK    3  A    between atoms: C_10  and  C_11
REMARK                            x       y       z     vdW  Elec       q    Type
REMARK                         _______ _______ _______ _____ _____    ______ ____
ROOT
ATOM      1  C   UNL     1       3.897   5.383  19.002  0.00  0.00    +0.000 A 
ATOM      2  N   UNL     1       3.117   6.450  19.265  0.00  0.00    +0.000 NA
ATOM      3  N   UNL     1       2.268   6.025  20.227  0.00  0.00    +0.000 N 
ATOM      4  C   UNL     1       2.445   4.706  20.553  0.00  0.00    +0.000 A 
ATOM      5  N   UNL     1       1.690   3.966  21.381  0.00  0.00    +0.000 NA
ATOM      6  C   UNL     1       2.167   2.721  21.510  0.00  0.00    +0.000 A 
ATOM      7  N   UNL     1       3.269   2.196  20.945  0.00  0.00    +0.000 NA
ATOM      8  C   UNL     1       3.998   2.966  20.110  0.00  0.00    +0.000 A 
ATOM      9  N   UNL     1       5.112   2.368  19.564  0.00  0.00    +0.000 N 
ATOM     10  C   UNL     1       3.561   4.279  19.852  0.00  0.00    +0.000 A 
ATOM     11  H   UNL     1       5.320   1.444  19.915  0.00  0.00    +0.000 HD
ATOM     12  H   UNL     1       5.839   2.909  19.121  0.00  0.00    +0.000 HD
ENDROOT
BRANCH   1  18
ATOM     13  N   UNL     1       7.263   4.312  12.757  0.00  0.00    +0.000 N 
ATOM     14  C   UNL     1       6.720   4.645  13.927  0.00  0.00    +0.000 A 
ATOM     15  N   UNL     1       5.507   4.403  14.362  0.00  0.00    +0.000 NA
ATOM     16  C   UNL     1       5.522   4.901  15.638  0.00  0.00    +0.000 A 
ATOM     17  C   UNL     1       4.545   4.909  16.646  0.00  0.00    +0.000 A 
ATOM     18  C   UNL     1       4.870   5.450  17.906  0.00  0.00    +0.000 A 
ATOM     19  C   UNL     1       6.164   5.968  18.127  0.00  0.00    +0.000 A 
ATOM     20  C   UNL     1       7.130   6.028  17.114  0.00  0.00    +0.000 A 
ATOM     21  C   UNL     1       6.758   5.463  15.905  0.00  0.00    +0.000 A 
ATOM     22  O   UNL     1       7.529   5.320  14.791  0.00  0.00    +0.000 OA
ATOM     23  H   UNL     1       6.631   4.027  12.021  0.00  0.00    +0.000 HD
ATOM     24  H   UNL     1       8.089   4.815  12.457  0.00  0.00    +0.000 HD
ENDBRANCH   1  18
BRANCH   3  25
ATOM     25  C   UNL     1       1.242   6.941  20.696  0.00  0.00    +0.000 C 
BRANCH  25  26
ATOM     26  C   UNL     1       1.630   8.416  20.780  0.00  0.00    +0.000 C 
ATOM     27  O   UNL     1       0.984   9.172  19.747  0.00  0.00    +0.000 OA
ATOM     28  C   UNL     1       0.765  10.450  20.334  0.00  0.00    +0.000 C 
ATOM     29  C   UNL     1       0.495  10.136  21.781  0.00  0.00    +0.000 C 
ATOM     30  O   UNL     1       1.242   8.951  22.061  0.00  0.00    +0.000 OA
ENDBRANCH  25  26
ENDBRANCH   3  25
TORSDOF 3
ENDMDL
MODEL 5
REMARK VINA RESULT:      -8.8      1.853      2.466
REMARK  Name = 
REMARK  3 active torsions:
REMARK  status: ('A' for Active; 'I' for Inactive)
REMARK    1  A    between atoms: C_6  and  C_7
REMARK    2  A    between atoms: N_9  and  C_10
REMARK    3  A    between atoms: C_10  and  C_11
REMARK                            x       y       z     vdW  Elec       q    Type
REMARK                         _______ _______ _______ _____ _____    ______ ____
ROOT
ATOM      1  C   UNL     1       3.391   6.058  19.076  0.00  0.00    +0.000 A 
ATOM      2  N   UNL     1       4.516   6.265  18.366  0.00  0.00    +0.000 NA
ATOM      3  N   UNL     1       5.178   5.088  18.422  0.00  0.00    +0.000 N 
ATOM      4  C   UNL     1       4.538   4.149  19.188  0.00  0.00    +0.000 A 
ATOM      5  N   UNL     1       4.993   2.933  19.530  0.00  0.00    +0.000 NA
ATOM      6  C   UNL     1       4.095   2.252  20.254  0.00  0.00    +0.000 A 
ATOM      7  N   UNL     1       2.859   2.642  20.618  0.00  0.00    +0.000 NA
ATOM      8  C   UNL     1       2.440   3.875  20.266  0.00  0.00    +0.000 A 
ATOM      9  N   UNL     1       1.168   4.213  20.670  0.00  0.00    +0.000 N 
ATOM     10  C   UNL     1       3.322   4.706  19.549  0.00  0.00    +0.000 A 
ATOM     11  H   UNL     1       0.645   3.469  21.111  0.00  0.00    +0.000 HD
ATOM     12  H   UNL     1       0.679   5.000  20.273  0.00  0.00    +0.000 HD
ENDROOT
BRANCH   1  18
ATOM     13  N   UNL     1      -0.233  12.217  18.435  0.00  0.00    +0.000 N 
ATOM     14  C   UNL     1       0.326  11.027  18.651  0.00  0.00    +0.000 A 
ATOM     15  N   UNL     1       1.030  10.293  17.823  0.00  0.00    +0.000 NA
ATOM     16  C   UNL     1       1.406   9.222  18.590  0.00  0.00    +0.000 A 
ATOM     17  C   UNL     1       2.209   8.108  18.303  0.00  0.00    +0.000 A 
ATOM     18  C   UNL     1       2.477   7.178  19.328  0.00  0.00    +0.000 A 
ATOM     19  C   UNL     1       1.935   7.387  20.613  0.00  0.00    +0.000 A 
ATOM     20  C   UNL     1       1.078   8.457  20.902  0.00  0.00    +0.000 A 
ATOM     21  C   UNL     1       0.870   9.347  19.860  0.00  0.00    +0.000 A 
ATOM     22  O   UNL     1       0.150  10.503  19.896  0.00  0.00    +0.000 OA
ATOM     23  H   UNL     1      -0.319  12.517  17.472  0.00  0.00    +0.000 HD
ATOM     24  H   UNL     1      -0.975  12.513  19.055  0.00  0.00    +0.000 HD
ENDBRANCH   1  18
BRANCH   3  25
ATOM     25  C   UNL     1       6.484   4.999  17.790  0.00  0.00    +0.000 C 
BRANCH  25  26
ATOM     26  C   UNL     1       6.559   4.201  16.490  0.00  0.00    +0.000 C 
ATOM     27  O   UNL     1       5.314   4.261  15.783  0.00  0.00    +0.000 OA
ATOM     28  C   UNL     1       5.688   4.215  14.410  0.00  0.00    +0.000 C 
ATOM     29  C   UNL     1       6.996   4.960  14.373  0.00  0.00    +0.000 C 
ATOM     30  O   UNL     1       7.599   4.737  15.647  0.00  0.00    +0.000 OA
ENDBRANCH  25  26
ENDBRANCH   3  25
TORSDOF 3
ENDMDL
MODEL 6
REMARK VINA RESULT:      -8.7      1.324      1.877
REMARK  Name = 
REMARK  3 active torsions:
REMARK  status: ('A' for Active; 'I' for Inactive)
REMARK    1  A    between atoms: C_6  and  C_7
REMARK    2  A    between atoms: N_9  and  C_10
REMARK    3  A    between atoms: C_10  and  C_11
REMARK                            x       y       z     vdW  Elec       q    Type
REMARK                         _______ _______ _______ _____ _____    ______ ____
ROOT
ATOM      1  C   UNL     1       3.248   5.803  18.199  0.00  0.00    +0.000 A 
ATOM      2  N   UNL     1       4.360   5.916  17.448  0.00  0.00    +0.000 NA
ATOM      3  N   UNL     1       4.783   4.645  17.268  0.00  0.00    +0.000 N 
ATOM      4  C   UNL     1       4.006   3.725  17.922  0.00  0.00    +0.000 A 
ATOM      5  N   UNL     1       4.230   2.406  18.032  0.00  0.00    +0.000 NA
ATOM      6  C   UNL     1       3.249   1.789  18.704  0.00  0.00    +0.000 A 
ATOM      7  N   UNL     1       2.130   2.333  19.217  0.00  0.00    +0.000 NA
ATOM      8  C   UNL     1       1.944   3.663  19.097  0.00  0.00    +0.000 A 
ATOM      9  N   UNL     1       0.780   4.156  19.644  0.00  0.00    +0.000 N 
ATOM     10  C   UNL     1       2.938   4.427  18.457  0.00  0.00    +0.000 A 
ATOM     11  H   UNL     1       0.143   3.458  19.999  0.00  0.00    +0.000 HD
ATOM     12  H   UNL     1       0.436   5.076  19.413  0.00  0.00    +0.000 HD
ENDROOT
BRANCH   1  18
ATOM     13  N   UNL     1      -0.306  10.458  22.344  0.00  0.00    +0.000 N 
ATOM     14  C   UNL     1       0.407   9.719  21.496  0.00  0.00    +0.000 A 
ATOM     15  N   UNL     1       1.025   8.584  21.721  0.00  0.00    +0.000 NA
ATOM     16  C   UNL     1       1.525   8.245  20.492  0.00  0.00    +0.000 A 
ATOM     17  C   UNL     1       2.243   7.121  20.057  0.00  0.00    +0.000 A 
ATOM     18  C   UNL     1       2.581   7.013  18.693  0.00  0.00    +0.000 A 
ATOM     19  C   UNL     1       2.191   8.032  17.799  0.00  0.00    +0.000 A 
ATOM     20  C   UNL     1       1.531   9.192  18.225  0.00  0.00    +0.000 A 
ATOM     21  C   UNL     1       1.209   9.230  19.572  0.00  0.00    +0.000 A 
ATOM     22  O   UNL     1       0.506  10.198  20.224  0.00  0.00    +0.000 OA
ATOM     23  H   UNL     1      -0.202  10.256  23.330  0.00  0.00    +0.000 HD
ATOM     24  H   UNL     1      -0.465  11.429  22.109  0.00  0.00    +0.000 HD
ENDBRANCH   1  18
BRANCH   3  25
ATOM     25  C   UNL     1       6.017   4.425  16.533  0.00  0.00    +0.000 C 
BRANCH  25  26
ATOM     26  C   UNL     1       6.084   5.004  15.121  0.00  0.00    +0.000 C 
ATOM     27  O   UNL     1       7.444   5.202  14.716  0.00  0.00    +0.000 OA
ATOM     28  C   UNL     1       7.427   4.973  13.311  0.00  0.00    +0.000 C 
ATOM     29  C   UNL     1       6.387   3.898  13.138  0.00  0.00    +0.000 C 
ATOM     30  O   UNL     1       5.447   4.103  14.194  0.00  0.00    +0.000 OA
ENDBRANCH  25  26
ENDBRANCH   3  25
TORSDOF 3
ENDMDL
MODEL 7
REMARK VINA RESULT:      -8.6      2.094      3.955
REMARK  Name = 
REMARK  3 active torsions:
REMARK  status: ('A' for Active; 'I' for Inactive)
REMARK    1  A    between atoms: C_6  and  C_7
REMARK    2  A    between atoms: N_9  and  C_10
REMARK    3  A    between atoms: C_10  and  C_11
REMARK                            x       y       z     vdW  Elec       q    Type
REMARK                         _______ _______ _______ _____ _____    ______ ____
ROOT
ATOM      1  C   UNL     1       3.308   5.946  18.018  0.00  0.00    +0.000 A 
ATOM      2  N   UNL     1       2.663   4.790  18.267  0.00  0.00    +0.000 NA
ATOM      3  N   UNL     1       3.415   3.842  17.666  0.00  0.00    +0.000 N 
ATOM      4  C   UNL     1       4.494   4.358  16.997  0.00  0.00    +0.000 A 
ATOM      5  N   UNL     1       5.357   3.693  16.214  0.00  0.00    +0.000 NA
ATOM      6  C   UNL     1       6.324   4.494  15.746  0.00  0.00    +0.000 A 
ATOM      7  N   UNL     1       6.505   5.804  15.997  0.00  0.00    +0.000 NA
ATOM      8  C   UNL     1       5.611   6.442  16.781  0.00  0.00    +0.000 A 
ATOM      9  N   UNL     1       5.853   7.780  16.998  0.00  0.00    +0.000 N 
ATOM     10  C   UNL     1       4.518   5.713  17.286  0.00  0.00    +0.000 A 
ATOM     11  H   UNL     1       6.724   8.126  16.621  0.00  0.00    +0.000 HD
ATOM     12  H   UNL     1       5.392   8.288  17.737  0.00  0.00    +0.000 HD
ENDROOT
BRANCH   1  18
ATOM     13  N   UNL     1      -0.273  10.948  21.711  0.00  0.00    +0.000 N 
ATOM     14  C   UNL     1       0.465  10.138  20.954  0.00  0.00    +0.000 A 
ATOM     15  N   UNL     1       0.946   8.955  21.251  0.00  0.00    +0.000 NA
ATOM     16  C   UNL     1       1.555   8.559  20.090  0.00  0.00    +0.000 A 
ATOM     17  C   UNL     1       2.215   7.370  19.744  0.00  0.00    +0.000 A 
ATOM     18  C   UNL     1       2.700   7.216  18.429  0.00  0.00    +0.000 A 
ATOM     19  C   UNL     1       2.511   8.256  17.494  0.00  0.00    +0.000 A 
ATOM     20  C   UNL     1       1.915   9.476  17.839  0.00  0.00    +0.000 A 
ATOM     21  C   UNL     1       1.441   9.557  19.139  0.00  0.00    +0.000 A 
ATOM     22  O   UNL     1       0.756  10.592  19.702  0.00  0.00    +0.000 OA
ATOM     23  H   UNL     1      -0.304  10.748  22.702  0.00  0.00    +0.000 HD
ATOM     24  H   UNL     1      -0.315  11.927  21.459  0.00  0.00    +0.000 HD
ENDBRANCH   1  18
BRANCH   3  25
ATOM     25  C   UNL     1       2.950   2.465  17.702  0.00  0.00    +0.000 C 
BRANCH  25  26
ATOM     26  C   UNL     1       2.641   1.884  19.080  0.00  0.00    +0.000 C 
ATOM     27  O   UNL     1       3.508   2.443  20.075  0.00  0.00    +0.000 OA
ATOM     28  C   UNL     1       2.710   2.481  21.253  0.00  0.00    +0.000 C 
ATOM     29  C   UNL     1       1.325   2.764  20.736  0.00  0.00    +0.000 C 
ATOM     30  O   UNL     1       1.274   2.175  19.437  0.00  0.00    +0.000 OA
ENDBRANCH  25  26
ENDBRANCH   3  25
TORSDOF 3
ENDMDL
MODEL 8
REMARK VINA RESULT:      -8.5      1.724      2.402
REMARK  Name = 
REMARK  3 active torsions:
REMARK  status: ('A' for Active; 'I' for Inactive)
REMARK    1  A    between atoms: C_6  and  C_7
REMARK    2  A    between atoms: N_9  and  C_10
REMARK    3  A    between atoms: C_10  and  C_11
REMARK                            x       y       z     vdW  Elec       q    Type
REMARK                         _______ _______ _______ _____ _____    ______ ____
ROOT
ATOM      1  C   UNL     1       3.187   5.707  18.350  0.00  0.00    +0.000 A 
ATOM      2  N   UNL     1       4.320   5.908  17.650  0.00  0.00    +0.000 NA
ATOM      3  N   UNL     1       4.790   4.667  17.395  0.00  0.00    +0.000 N 
ATOM      4  C   UNL     1       4.022   3.678  17.952  0.00  0.00    +0.000 A 
ATOM      5  N   UNL     1       4.285   2.362  17.975  0.00  0.00    +0.000 NA
ATOM      6  C   UNL     1       3.302   1.668  18.565  0.00  0.00    +0.000 A 
ATOM      7  N   UNL     1       2.149   2.139  19.075  0.00  0.00    +0.000 NA
ATOM      8  C   UNL     1       1.923   3.469  19.043  0.00  0.00    +0.000 A 
ATOM      9  N   UNL     1       0.726   3.886  19.581  0.00  0.00    +0.000 N 
ATOM     10  C   UNL     1       2.914   4.307  18.496  0.00  0.00    +0.000 A 
ATOM     11  H   UNL     1       0.100   3.145  19.862  0.00  0.00    +0.000 HD
ATOM     12  H   UNL     1       0.360   4.809  19.405  0.00  0.00    +0.000 HD
ENDROOT
BRANCH   1  18
ATOM     13  N   UNL     1       0.374  12.248  19.235  0.00  0.00    +0.000 N 
ATOM     14  C   UNL     1       0.788  10.983  19.173  0.00  0.00    +0.000 A 
ATOM     15  N   UNL     1       1.293  10.339  18.149  0.00  0.00    +0.000 NA
ATOM     16  C   UNL     1       1.603   9.110  18.668  0.00  0.00    +0.000 A 
ATOM     17  C   UNL     1       2.214   7.984  18.094  0.00  0.00    +0.000 A 
ATOM     18  C   UNL     1       2.464   6.857  18.904  0.00  0.00    +0.000 A 
ATOM     19  C   UNL     1       2.097   6.886  20.265  0.00  0.00    +0.000 A 
ATOM     20  C   UNL     1       1.427   7.974  20.840  0.00  0.00    +0.000 A 
ATOM     21  C   UNL     1       1.229   9.058  19.999  0.00  0.00    +0.000 A 
ATOM     22  O   UNL     1       0.678  10.262  20.324  0.00  0.00    +0.000 OA
ATOM     23  H   UNL     1       0.225  12.727  18.357  0.00  0.00    +0.000 HD
ATOM     24  H   UNL     1      -0.251  12.506  19.988  0.00  0.00    +0.000 HD
ENDBRANCH   1  18
BRANCH   3  25
ATOM     25  C   UNL     1       6.056   4.538  16.692  0.00  0.00    +0.000 C 
BRANCH  25  26
ATOM     26  C   UNL     1       6.101   5.078  15.264  0.00  0.00    +0.000 C 
ATOM     27  O   UNL     1       7.455   5.227  14.818  0.00  0.00    +0.000 OA
ATOM     28  C   UNL     1       7.395   4.961  13.421  0.00  0.00    +0.000 C 
ATOM     29  C   UNL     1       6.322   3.912  13.304  0.00  0.00    +0.000 C 
ATOM     30  O   UNL     1       5.416   4.171  14.377  0.00  0.00    +0.000 OA
ENDBRANCH  25  26
ENDBRANCH   3  25
TORSDOF 3
ENDMDL
MODEL 9
REMARK VINA RESULT:      -8.5      1.394      1.746
REMARK  Name = 
REMARK  3 active torsions:
REMARK  status: ('A' for Active; 'I' for Inactive)
REMARK    1  A    between atoms: C_6  and  C_7
REMARK    2  A    between atoms: N_9  and  C_10
REMARK    3  A    between atoms: C_10  and  C_11
REMARK                            x       y       z     vdW  Elec       q    Type
REMARK                         _______ _______ _______ _____ _____    ______ ____
ROOT
ATOM      1  C   UNL     1       2.882   6.614  18.301  0.00  0.00    +0.000 A 
ATOM      2  N   UNL     1       3.818   7.031  17.428  0.00  0.00    +0.000 NA
ATOM      3  N   UNL     1       4.408   5.897  16.990  0.00  0.00    +0.000 N 
ATOM      4  C   UNL     1       3.914   4.769  17.593  0.00  0.00    +0.000 A 
ATOM      5  N   UNL     1       4.367   3.513  17.459  0.00  0.00    +0.000 NA
ATOM      6  C   UNL     1       3.628   2.640  18.157  0.00  0.00    +0.000 A 
ATOM      7  N   UNL     1       2.537   2.893  18.904  0.00  0.00    +0.000 NA
ATOM      8  C   UNL     1       2.116   4.169  19.023  0.00  0.00    +0.000 A 
ATOM      9  N   UNL     1       0.996   4.360  19.801  0.00  0.00    +0.000 N 
ATOM     10  C   UNL     1       2.850   5.183  18.378  0.00  0.00    +0.000 A 
ATOM     11  H   UNL     1       0.551   3.514  20.128  0.00  0.00    +0.000 HD
ATOM     12  H   UNL     1       0.472   5.221  19.771  0.00  0.00    +0.000 HD
ENDROOT
BRANCH   1  18
ATOM     13  N   UNL     1      -0.439  12.649  20.309  0.00  0.00    +0.000 N 
ATOM     14  C   UNL     1       0.087  11.455  20.040  0.00  0.00    +0.000 A 
ATOM     15  N   UNL     1       0.534  10.998  18.896  0.00  0.00    +0.000 NA
ATOM     16  C   UNL     1       1.019   9.757  19.217  0.00  0.00    +0.000 A 
ATOM     17  C   UNL     1       1.668   8.783  18.444  0.00  0.00    +0.000 A 
ATOM     18  C   UNL     1       2.117   7.603  19.070  0.00  0.00    +0.000 A 
ATOM     19  C   UNL     1       1.906   7.428  20.454  0.00  0.00    +0.000 A 
ATOM     20  C   UNL     1       1.201   8.359  21.229  0.00  0.00    +0.000 A 
ATOM     21  C   UNL     1       0.804   9.507  20.561  0.00  0.00    +0.000 A 
ATOM     22  O   UNL     1       0.179  10.594  21.093  0.00  0.00    +0.000 OA
ATOM     23  H   UNL     1      -0.733  13.210  19.519  0.00  0.00    +0.000 HD
ATOM     24  H   UNL     1      -0.997  12.745  21.147  0.00  0.00    +0.000 HD
ENDBRANCH   1  18
BRANCH   3  25
ATOM     25  C   UNL     1       5.521   6.010  16.062  0.00  0.00    +0.000 C 
BRANCH  25  26
ATOM     26  C   UNL     1       6.918   6.069  16.675  0.00  0.00    +0.000 C 
ATOM     27  O   UNL     1       6.872   6.634  17.992  0.00  0.00    +0.000 OA
ATOM     28  C   UNL     1       7.915   5.968  18.695  0.00  0.00    +0.000 C 
ATOM     29  C   UNL     1       7.913   4.583  18.106  0.00  0.00    +0.000 C 
ATOM     30  O   UNL     1       7.472   4.741  16.757  0.00  0.00    +0.000 OA
ENDBRANCH  25  26
ENDBRANCH   3  25
TORSDOF 3
ENDMDL
