MODEL 1
REMARK VINA RESULT:      -5.8      0.000      0.000
REMARK  Name = 
REMARK  0 active torsions:
REMARK  status: ('A' for Active; 'I' for Inactive)
REMARK                            x       y       z     vdW  Elec       q    Type
REMARK                         _______ _______ _______ _____ _____    ______ ____
ROOT
ATOM      1  C   UNL     1       3.484   4.674  18.284  0.00  0.00    +0.000 C 
ATOM      2  C   UNL     1       4.227   5.484  19.070  0.00  0.00    +0.000 C 
ATOM      3  C   UNL     1       5.627   4.901  19.074  0.00  0.00    +0.000 C 
ATOM      4  N   UNL     1       5.251   3.447  19.035  0.00  0.00    +0.000 NA
ATOM      5  C   UNL     1       4.410   3.570  17.800  0.00  0.00    +0.000 C 
ATOM      6  C   UNL     1       5.438   4.179  16.869  0.00  0.00    +0.000 A 
ATOM      7  C   UNL     1       5.679   4.086  15.521  0.00  0.00    +0.000 A 
ATOM      8  C   UNL     1       6.700   4.900  15.045  0.00  0.00    +0.000 A 
ATOM      9  N   UNL     1       7.436   5.768  15.804  0.00  0.00    +0.000 NA
ATOM     10  C   UNL     1       7.168   5.829  17.130  0.00  0.00    +0.000 A 
ATOM     11  C   UNL     1       6.202   5.043  17.687  0.00  0.00    +0.000 A 
ATOM     12  H   UNL     1       4.657   3.226  19.829  0.00  0.00    +0.000 HD
ENDROOT
TORSDOF 0
ENDMDL
MODEL 2
REMARK VINA RESULT:      -5.6      1.522      1.792
REMARK  Name = 
REMARK  0 active torsions:
REMARK  status: ('A' for Active; 'I' for Inactive)
REMARK                            x       y       z     vdW  Elec       q    Type
REMARK                         _______ _______ _______ _____ _____    ______ ____
ROOT
ATOM      1  C   UNL     1       2.395   3.396  17.357  0.00  0.00    +0.000 C 
ATOM      2  C   UNL     1       2.075   4.603  17.873  0.00  0.00    +0.000 C 
ATOM      3  C   UNL     1       3.364   5.187  18.417  0.00  0.00    +0.000 C 
ATOM      4  N   UNL     1       3.984   3.910  18.908  0.00  0.00    +0.000 NA
ATOM      5  C   UNL     1       3.887   3.209  17.586  0.00  0.00    +0.000 C 
ATOM      6  C   UNL     1       4.633   4.209  16.728  0.00  0.00    +0.000 A 
ATOM      7  C   UNL     1       5.446   4.104  15.627  0.00  0.00    +0.000 A 
ATOM      8  C   UNL     1       5.866   5.313  15.084  0.00  0.00    +0.000 A 
ATOM      9  N   UNL     1       5.518   6.551  15.550  0.00  0.00    +0.000 NA
ATOM     10  C   UNL     1       4.716   6.611  16.640  0.00  0.00    +0.000 A 
ATOM     11  C   UNL     1       4.281   5.473  17.253  0.00  0.00    +0.000 A 
ATOM     12  H   UNL     1       3.362   3.463  19.575  0.00  0.00    +0.000 HD
ENDROOT
TORSDOF 0
ENDMDL
MODEL 3
REMARK VINA RESULT:      -5.6      2.836      4.331
REMARK  Name = 
REMARK  0 active torsions:
REMARK  status: ('A' for Active; 'I' for Inactive)
REMARK                            x       y       z     vdW  Elec       q    Type
REMARK                         _______ _______ _______ _____ _____    ______ ____
ROOT
ATOM      1  C   UNL     1       2.096   3.910  21.554  0.00  0.00    +0.000 C 
ATOM      2  C   UNL     1       2.325   2.601  21.311  0.00  0.00    +0.000 C 
ATOM      3  C   UNL     1       1.691   2.302  19.967  0.00  0.00    +0.000 C 
ATOM      4  N   UNL     1       0.498   3.206  20.090  0.00  0.00    +0.000 NA
ATOM      5  C   UNL     1       1.305   4.439  20.368  0.00  0.00    +0.000 C 
ATOM      6  C   UNL     1       2.201   4.421  19.146  0.00  0.00    +0.000 A 
ATOM      7  C   UNL     1       2.777   5.395  18.370  0.00  0.00    +0.000 A 
ATOM      8  C   UNL     1       3.620   4.931  17.368  0.00  0.00    +0.000 A 
ATOM      9  N   UNL     1       3.913   3.616  17.129  0.00  0.00    +0.000 NA
ATOM     10  C   UNL     1       3.322   2.686  17.916  0.00  0.00    +0.000 A 
ATOM     11  C   UNL     1       2.458   3.052  18.906  0.00  0.00    +0.000 A 
ATOM     12  H   UNL     1      -0.036   2.957  20.918  0.00  0.00    +0.000 HD
ENDROOT
TORSDOF 0
ENDMDL
MODEL 4
REMARK VINA RESULT:      -5.6      1.564      3.343
REMARK  Name = 
REMARK  0 active torsions:
REMARK  status: ('A' for Active; 'I' for Inactive)
REMARK                            x       y       z     vdW  Elec       q    Type
REMARK                         _______ _______ _______ _____ _____    ______ ____
ROOT
ATOM      1  C   UNL     1       7.738   4.713  17.906  0.00  0.00    +0.000 C 
ATOM      2  C   UNL     1       7.567   5.998  18.287  0.00  0.00    +0.000 C 
ATOM      3  C   UNL     1       6.659   6.630  17.249  0.00  0.00    +0.000 C 
ATOM      4  N   UNL     1       7.175   5.899  16.043  0.00  0.00    +0.000 NA
ATOM      5  C   UNL     1       6.948   4.533  16.620  0.00  0.00    +0.000 C 
ATOM      6  C   UNL     1       5.472   4.651  16.941  0.00  0.00    +0.000 A 
ATOM      7  C   UNL     1       4.424   3.766  16.947  0.00  0.00    +0.000 A 
ATOM      8  C   UNL     1       3.216   4.283  17.400  0.00  0.00    +0.000 A 
ATOM      9  N   UNL     1       3.021   5.563  17.841  0.00  0.00    +0.000 NA
ATOM     10  C   UNL     1       4.082   6.405  17.818  0.00  0.00    +0.000 A 
ATOM     11  C   UNL     1       5.298   5.989  17.360  0.00  0.00    +0.000 A 
ATOM     12  H   UNL     1       8.173   6.063  15.945  0.00  0.00    +0.000 HD
ENDROOT
TORSDOF 0
ENDMDL
MODEL 5
REMARK VINA RESULT:      -5.5      2.777      3.821
REMARK  Name = 
REMARK  0 active torsions:
REMARK  status: ('A' for Active; 'I' for Inactive)
REMARK                            x       y       z     vdW  Elec       q    Type
REMARK                         _______ _______ _______ _____ _____    ______ ____
ROOT
ATOM      1  C   UNL     1       1.009   3.218  20.589  0.00  0.00    +0.000 C 
ATOM      2  C   UNL     1       2.149   2.751  21.143  0.00  0.00    +0.000 C 
ATOM      3  C   UNL     1       3.060   2.380  19.988  0.00  0.00    +0.000 C 
ATOM      4  N   UNL     1       2.008   1.875  19.043  0.00  0.00    +0.000 NA
ATOM      5  C   UNL     1       1.192   3.132  19.082  0.00  0.00    +0.000 C 
ATOM      6  C   UNL     1       2.259   4.125  18.670  0.00  0.00    +0.000 A 
ATOM      7  C   UNL     1       2.249   5.294  17.953  0.00  0.00    +0.000 A 
ATOM      8  C   UNL     1       3.470   5.954  17.879  0.00  0.00    +0.000 A 
ATOM      9  N   UNL     1       4.630   5.535  18.471  0.00  0.00    +0.000 NA
ATOM     10  C   UNL     1       4.598   4.375  19.170  0.00  0.00    +0.000 A 
ATOM     11  C   UNL     1       3.448   3.648  19.268  0.00  0.00    +0.000 A 
ATOM     12  H   UNL     1       1.488   1.120  19.482  0.00  0.00    +0.000 HD
ENDROOT
TORSDOF 0
ENDMDL
MODEL 6
REMARK VINA RESULT:      -5.5      2.214      4.799
REMARK  Name = 
REMARK  0 active torsions:
REMARK  status: ('A' for Active; 'I' for Inactive)
REMARK                            x       y       z     vdW  Elec       q    Type
REMARK                         _______ _______ _______ _____ _____    ______ ____
ROOT
ATOM      1  C   UNL     1       4.545   5.386  17.843  0.00  0.00    +0.000 C 
ATOM      2  C   UNL     1       4.286   4.360  17.003  0.00  0.00    +0.000 C 
ATOM      3  C   UNL     1       4.173   3.121  17.870  0.00  0.00    +0.000 C 
ATOM      4  N   UNL     1       5.224   3.475  18.882  0.00  0.00    +0.000 NA
ATOM      5  C   UNL     1       4.610   4.795  19.242  0.00  0.00    +0.000 C 
ATOM      6  C   UNL     1       3.225   4.318  19.627  0.00  0.00    +0.000 A 
ATOM      7  C   UNL     1       2.294   4.733  20.546  0.00  0.00    +0.000 A 
ATOM      8  C   UNL     1       1.084   4.050  20.511  0.00  0.00    +0.000 A 
ATOM      9  N   UNL     1       0.770   3.043  19.640  0.00  0.00    +0.000 NA
ATOM     10  C   UNL     1       1.718   2.662  18.750  0.00  0.00    +0.000 A 
ATOM     11  C   UNL     1       2.944   3.259  18.734  0.00  0.00    +0.000 A 
ATOM     12  H   UNL     1       6.112   3.632  18.413  0.00  0.00    +0.000 HD
ENDROOT
TORSDOF 0
ENDMDL
MODEL 7
REMARK VINA RESULT:      -5.5      1.817      2.813
REMARK  Name = 
REMARK  0 active torsions:
REMARK  status: ('A' for Active; 'I' for Inactive)
REMARK                            x       y       z     vdW  Elec       q    Type
REMARK                         _______ _______ _______ _____ _____    ______ ____
ROOT
ATOM      1  C   UNL     1       1.454   4.111  17.824  0.00  0.00    +0.000 C 
ATOM      2  C   UNL     1       1.629   3.903  19.147  0.00  0.00    +0.000 C 
ATOM      3  C   UNL     1       2.707   2.843  19.269  0.00  0.00    +0.000 C 
ATOM      4  N   UNL     1       2.336   2.024  18.066  0.00  0.00    +0.000 NA
ATOM      5  C   UNL     1       2.412   3.174  17.106  0.00  0.00    +0.000 C 
ATOM      6  C   UNL     1       3.829   3.628  17.387  0.00  0.00    +0.000 A 
ATOM      7  C   UNL     1       4.823   4.185  16.621  0.00  0.00    +0.000 A 
ATOM      8  C   UNL     1       5.975   4.537  17.312  0.00  0.00    +0.000 A 
ATOM      9  N   UNL     1       6.165   4.388  18.659  0.00  0.00    +0.000 NA
ATOM     10  C   UNL     1       5.161   3.833  19.379  0.00  0.00    +0.000 A 
ATOM     11  C   UNL     1       4.005   3.430  18.775  0.00  0.00    +0.000 A 
ATOM     12  H   UNL     1       1.372   1.714  18.147  0.00  0.00    +0.000 HD
ENDROOT
TORSDOF 0
ENDMDL
MODEL 8
REMARK VINA RESULT:      -5.4      2.845      5.148
REMARK  Name = 
REMARK  0 active torsions:
REMARK  status: ('A' for Active; 'I' for Inactive)
REMARK                            x       y       z     vdW  Elec       q    Type
REMARK                         _______ _______ _______ _____ _____    ______ ____
ROOT
ATOM      1  C   UNL     1       2.448   3.561  17.193  0.00  0.00    +0.000 C 
ATOM      2  C   UNL     1       3.701   3.117  17.436  0.00  0.00    +0.000 C 
ATOM      3  C   UNL     1       4.191   3.875  18.654  0.00  0.00    +0.000 C 
ATOM      4  N   UNL     1       3.526   5.191  18.365  0.00  0.00    +0.000 NA
ATOM      5  C   UNL     1       2.148   4.611  18.251  0.00  0.00    +0.000 C 
ATOM      6  C   UNL     1       2.063   3.926  19.599  0.00  0.00    +0.000 A 
ATOM      7  C   UNL     1       1.041   3.678  20.481  0.00  0.00    +0.000 A 
ATOM      8  C   UNL     1       1.391   2.922  21.593  0.00  0.00    +0.000 A 
ATOM      9  N   UNL     1       2.636   2.413  21.843  0.00  0.00    +0.000 NA
ATOM     10  C   UNL     1       3.617   2.682  20.948  0.00  0.00    +0.000 A 
ATOM     11  C   UNL     1       3.368   3.442  19.843  0.00  0.00    +0.000 A 
ATOM     12  H   UNL     1       3.826   5.533  17.457  0.00  0.00    +0.000 HD
ENDROOT
TORSDOF 0
ENDMDL
MODEL 9
REMARK VINA RESULT:      -5.4      1.503      3.593
REMARK  Name = 
REMARK  0 active torsions:
REMARK  status: ('A' for Active; 'I' for Inactive)
REMARK                            x       y       z     vdW  Elec       q    Type
REMARK                         _______ _______ _______ _____ _____    ______ ____
ROOT
ATOM      1  C   UNL     1       7.066   6.596  17.848  0.00  0.00    +0.000 C 
ATOM      2  C   UNL     1       7.090   5.999  16.636  0.00  0.00    +0.000 C 
ATOM      3  C   UNL     1       6.772   4.536  16.878  0.00  0.00    +0.000 C 
ATOM      4  N   UNL     1       7.478   4.382  18.195  0.00  0.00    +0.000 NA
ATOM      5  C   UNL     1       6.746   5.508  18.860  0.00  0.00    +0.000 C 
ATOM      6  C   UNL     1       5.324   5.040  18.630  0.00  0.00    +0.000 A 
ATOM      7  C   UNL     1       4.156   5.147  19.342  0.00  0.00    +0.000 A 
ATOM      8  C   UNL     1       3.028   4.636  18.711  0.00  0.00    +0.000 A 
ATOM      9  N   UNL     1       3.009   4.074  17.464  0.00  0.00    +0.000 NA
ATOM     10  C   UNL     1       4.183   3.986  16.794  0.00  0.00    +0.000 A 
ATOM     11  C   UNL     1       5.344   4.435  17.353  0.00  0.00    +0.000 A 
ATOM     12  H   UNL     1       8.458   4.630  18.089  0.00  0.00    +0.000 HD
ENDROOT
TORSDOF 0
ENDMDL
