MODEL 1
REMARK VINA RESULT:      -8.5      0.000      0.000
REMARK  Name = 
REMARK  10 active torsions:
REMARK  status: ('A' for Active; 'I' for Inactive)
REMARK    1  A    between atoms: C_1  and  O_2
REMARK    2  A    between atoms: O_2  and  C_3
REMARK    3  A    between atoms: C_7  and  N_8
REMARK    4  A    between atoms: C_9  and  C_11
REMARK    5  A    between atoms: C_11  and  C_12
REMARK    6  A    between atoms: C_12  and  C_13
REMARK    7  A    between atoms: C_17  and  C_19
REMARK    8  A    between atoms: C_19  and  O_20
REMARK    9  A    between atoms: C_19  and  C_22
REMARK   10  A    between atoms: O_20  and  C_21
REMARK                            x       y       z     vdW  Elec       q    Type
REMARK                         _______ _______ _______ _____ _____    ______ ____
ROOT
ATOM      1  C   UNL     1       6.483   5.196  16.823  0.00  0.00    +0.000 C 
ATOM      2  C   UNL     1       5.261   5.598  15.966  0.00  0.00    +0.000 C 
ATOM      3  C   UNL     1       4.404   6.693  16.613  0.00  0.00    +0.000 C 
ATOM      4  N   UNL     1       4.049   6.360  18.000  0.00  0.00    +0.000 N 
ATOM      5  C   UNL     1       2.834   6.871  18.495  0.00  0.00    +0.000 C 
ATOM      6  O   UNL     1       2.118   7.580  17.777  0.00  0.00    +0.000 OA
ATOM      7  C   UNL     1       5.169   5.951  18.847  0.00  0.00    +0.000 C 
ATOM      8  C   UNL     1       5.985   4.824  18.220  0.00  0.00    +0.000 C 
ENDROOT
BRANCH   1   9
ATOM      9  C   UNL     1       7.514   6.331  16.917  0.00  0.00    +0.000 C 
BRANCH   9  10
ATOM     10  C   UNL     1       7.865   6.818  18.326  0.00  0.00    +0.000 C 
BRANCH  10  12
ATOM     11  N   UNL     1       8.939   8.825  19.219  0.00  0.00    +0.000 N 
ATOM     12  C   UNL     1       8.063   8.315  18.244  0.00  0.00    +0.000 C 
ATOM     13  O   UNL     1       7.588   8.919  17.276  0.00  0.00    +0.000 OA
ATOM     14  H   UNL     1       9.345   8.188  19.888  0.00  0.00    +0.000 HD
BRANCH  11  19
ATOM     15  C   UNL     1       9.996  12.260  18.191  0.00  0.00    +0.000 A 
ATOM     16  C   UNL     1      10.103  12.879  19.439  0.00  0.00    +0.000 A 
ATOM     17  C   UNL     1       9.795  12.178  20.603  0.00  0.00    +0.000 A 
ATOM     18  C   UNL     1       9.392  10.848  20.519  0.00  0.00    +0.000 A 
ATOM     19  C   UNL     1       9.292  10.187  19.297  0.00  0.00    +0.000 A 
ATOM     20  C   UNL     1       9.592  10.919  18.128  0.00  0.00    +0.000 A 
BRANCH  15  22
ATOM     21  C   UNL     1      11.638  13.624  17.132  0.00  0.00    +0.000 C 
ATOM     22  O   UNL     1      10.339  13.035  17.114  0.00  0.00    +0.000 OA
ENDBRANCH  15  22
ENDBRANCH  11  19
ENDBRANCH  10  12
ENDBRANCH   9  10
ENDBRANCH   1   9
BRANCH   5  23
ATOM     23  C   UNL     1       2.407   6.543  19.972  0.00  0.00    +0.000 C 
BRANCH  23  24
ATOM     24  C   UNL     1       2.075   5.053  20.169  0.00  0.00    +0.000 A 
ATOM     25  C   UNL     1       2.346   4.423  21.397  0.00  0.00    +0.000 A 
ATOM     26  C   UNL     1       1.961   3.097  21.631  0.00  0.00    +0.000 A 
ATOM     27  C   UNL     1       1.294   2.376  20.645  0.00  0.00    +0.000 A 
ATOM     28  C   UNL     1       1.046   2.970  19.409  0.00  0.00    +0.000 A 
ATOM     29  C   UNL     1       1.445   4.290  19.168  0.00  0.00    +0.000 A 
ENDBRANCH  23  24
BRANCH  23  30
ATOM     30  O   UNL     1       1.270   7.272  20.448  0.00  0.00    +0.000 OA
ATOM     31  C   UNL     1       1.547   8.436  21.206  0.00  0.00    +0.000 C 
ENDBRANCH  23  30
ENDBRANCH   5  23
TORSDOF 8
ENDMDL
MODEL 2
REMARK VINA RESULT:      -8.1      3.369      8.112
REMARK  Name = 
REMARK  10 active torsions:
REMARK  status: ('A' for Active; 'I' for Inactive)
REMARK    1  A    between atoms: C_1  and  O_2
REMARK    2  A    between atoms: O_2  and  C_3
REMARK    3  A    between atoms: C_7  and  N_8
REMARK    4  A    between atoms: C_9  and  C_11
REMARK    5  A    between atoms: C_11  and  C_12
REMARK    6  A    between atoms: C_12  and  C_13
REMARK    7  A    between atoms: C_17  and  C_19
REMARK    8  A    between atoms: C_19  and  O_20
REMARK    9  A    between atoms: C_19  and  C_22
REMARK   10  A    between atoms: O_20  and  C_21
REMARK                            x       y       z     vdW  Elec       q    Type
REMARK                         _______ _______ _______ _____ _____    ______ ____
ROOT
ATOM      1  C   UNL     1       2.521   4.180  19.251  0.00  0.00    +0.000 C 
ATOM      2  C   UNL     1       3.653   3.128  19.251  0.00  0.00    +0.000 C 
ATOM      3  C   UNL     1       5.051   3.745  19.135  0.00  0.00    +0.000 C 
ATOM      4  N   UNL     1       5.141   4.686  18.010  0.00  0.00    +0.000 N 
ATOM      5  C   UNL     1       6.397   4.834  17.392  0.00  0.00    +0.000 C 
ATOM      6  O   UNL     1       7.375   4.198  17.807  0.00  0.00    +0.000 OA
ATOM      7  C   UNL     1       4.078   5.689  17.952  0.00  0.00    +0.000 C 
ATOM      8  C   UNL     1       2.689   5.062  18.013  0.00  0.00    +0.000 C 
ENDROOT
BRANCH   1   9
ATOM      9  C   UNL     1       2.544   5.045  20.520  0.00  0.00    +0.000 C 
BRANCH   9  10
ATOM     10  C   UNL     1       1.204   5.637  20.966  0.00  0.00    +0.000 C 
BRANCH  10  12
ATOM     11  N   UNL     1       0.303   7.860  21.444  0.00  0.00    +0.000 N 
ATOM     12  C   UNL     1       1.281   7.131  20.743  0.00  0.00    +0.000 C 
ATOM     13  O   UNL     1       2.246   7.584  20.119  0.00  0.00    +0.000 OA
ATOM     14  H   UNL     1      -0.363   7.357  22.011  0.00  0.00    +0.000 HD
BRANCH  11  19
ATOM     15  C   UNL     1      -0.567  11.369  22.397  0.00  0.00    +0.000 A 
ATOM     16  C   UNL     1      -0.052  12.066  21.301  0.00  0.00    +0.000 A 
ATOM     17  C   UNL     1       0.606  11.387  20.278  0.00  0.00    +0.000 A 
ATOM     18  C   UNL     1       0.736  10.003  20.344  0.00  0.00    +0.000 A 
ATOM     19  C   UNL     1       0.219   9.266  21.407  0.00  0.00    +0.000 A 
ATOM     20  C   UNL     1      -0.429   9.974  22.442  0.00  0.00    +0.000 A 
BRANCH  15  22
ATOM     21  C   UNL     1      -1.067  13.546  23.225  0.00  0.00    +0.000 C 
ATOM     22  O   UNL     1      -1.210  12.131  23.336  0.00  0.00    +0.000 OA
ENDBRANCH  15  22
ENDBRANCH  11  19
ENDBRANCH  10  12
ENDBRANCH   9  10
ENDBRANCH   1   9
BRANCH   5  23
ATOM     23  C   UNL     1       6.547   5.827  16.182  0.00  0.00    +0.000 C 
BRANCH  23  24
ATOM     24  C   UNL     1       6.660   5.094  14.834  0.00  0.00    +0.000 A 
ATOM     25  C   UNL     1       5.717   4.112  14.480  0.00  0.00    +0.000 A 
ATOM     26  C   UNL     1       5.743   3.504  13.219  0.00  0.00    +0.000 A 
ATOM     27  C   UNL     1       6.708   3.868  12.284  0.00  0.00    +0.000 A 
ATOM     28  C   UNL     1       7.672   4.815  12.627  0.00  0.00    +0.000 A 
ATOM     29  C   UNL     1       7.658   5.411  13.893  0.00  0.00    +0.000 A 
ENDBRANCH  23  24
BRANCH  23  30
ATOM     30  O   UNL     1       7.678   6.703  16.256  0.00  0.00    +0.000 OA
ATOM     31  C   UNL     1       7.660   7.658  17.303  0.00  0.00    +0.000 C 
ENDBRANCH  23  30
ENDBRANCH   5  23
TORSDOF 8
ENDMDL
MODEL 3
REMARK VINA RESULT:      -7.9      3.142     10.524
REMARK  Name = 
REMARK  10 active torsions:
REMARK  status: ('A' for Active; 'I' for Inactive)
REMARK    1  A    between atoms: C_1  and  O_2
REMARK    2  A    between atoms: O_2  and  C_3
REMARK    3  A    between atoms: C_7  and  N_8
REMARK    4  A    between atoms: C_9  and  C_11
REMARK    5  A    between atoms: C_11  and  C_12
REMARK    6  A    between atoms: C_12  and  C_13
REMARK    7  A    between atoms: C_17  and  C_19
REMARK    8  A    between atoms: C_19  and  O_20
REMARK    9  A    between atoms: C_19  and  C_22
REMARK   10  A    between atoms: O_20  and  C_21
REMARK                            x       y       z     vdW  Elec       q    Type
REMARK                         _______ _______ _______ _____ _____    ______ ____
ROOT
ATOM      1  C   UNL     1      10.137  10.931  19.200  0.00  0.00    +0.000 C 
ATOM      2  C   UNL     1      10.200  11.735  20.519  0.00  0.00    +0.000 C 
ATOM      3  C   UNL     1       9.015  12.691  20.702  0.00  0.00    +0.000 C 
ATOM      4  N   UNL     1       8.812  13.540  19.520  0.00  0.00    +0.000 N 
ATOM      5  C   UNL     1       8.251  14.814  19.730  0.00  0.00    +0.000 C 
ATOM      6  O   UNL     1       7.937  15.176  20.871  0.00  0.00    +0.000 OA
ATOM      7  C   UNL     1       8.767  12.828  18.243  0.00  0.00    +0.000 C 
ATOM      8  C   UNL     1       9.978  11.921  18.046  0.00  0.00    +0.000 C 
ENDROOT
BRANCH   1   9
ATOM      9  C   UNL     1       8.973   9.928  19.197  0.00  0.00    +0.000 C 
BRANCH   9  10
ATOM     10  C   UNL     1       8.477   9.464  17.825  0.00  0.00    +0.000 C 
BRANCH  10  12
ATOM     11  N   UNL     1       6.834   7.778  17.164  0.00  0.00    +0.000 N 
ATOM     12  C   UNL     1       7.928   8.066  17.999  0.00  0.00    +0.000 C 
ATOM     13  O   UNL     1       8.552   7.273  18.713  0.00  0.00    +0.000 OA
ATOM     14  H   UNL     1       6.495   8.498  16.543  0.00  0.00    +0.000 HD
BRANCH  11  19
ATOM     15  C   UNL     1       5.538   4.455  18.285  0.00  0.00    +0.000 A 
ATOM     16  C   UNL     1       5.023   3.963  17.083  0.00  0.00    +0.000 A 
ATOM     17  C   UNL     1       5.072   4.736  15.925  0.00  0.00    +0.000 A 
ATOM     18  C   UNL     1       5.652   6.000  15.966  0.00  0.00    +0.000 A 
ATOM     19  C   UNL     1       6.197   6.521  17.138  0.00  0.00    +0.000 A 
ATOM     20  C   UNL     1       6.122   5.730  18.304  0.00  0.00    +0.000 A 
BRANCH  15  22
ATOM     21  C   UNL     1       4.151   3.159  19.724  0.00  0.00    +0.000 C 
ATOM     22  O   UNL     1       5.454   3.607  19.358  0.00  0.00    +0.000 OA
ENDBRANCH  15  22
ENDBRANCH  11  19
ENDBRANCH  10  12
ENDBRANCH   9  10
ENDBRANCH   1   9
BRANCH   5  23
ATOM     23  C   UNL     1       8.015  15.763  18.499  0.00  0.00    +0.000 C 
BRANCH  23  24
ATOM     24  C   UNL     1       9.280  16.550  18.115  0.00  0.00    +0.000 A 
ATOM     25  C   UNL     1       9.387  17.917  18.430  0.00  0.00    +0.000 A 
ATOM     26  C   UNL     1      10.567  18.627  18.179  0.00  0.00    +0.000 A 
ATOM     27  C   UNL     1      11.665  17.986  17.613  0.00  0.00    +0.000 A 
ATOM     28  C   UNL     1      11.569  16.641  17.263  0.00  0.00    +0.000 A 
ATOM     29  C   UNL     1      10.385  15.934  17.497  0.00  0.00    +0.000 A 
ENDBRANCH  23  24
BRANCH  23  30
ATOM     30  O   UNL     1       6.978  16.736  18.677  0.00  0.00    +0.000 OA
ATOM     31  C   UNL     1       5.648  16.255  18.584  0.00  0.00    +0.000 C 
ENDBRANCH  23  30
ENDBRANCH   5  23
TORSDOF 8
ENDMDL
MODEL 4
REMARK VINA RESULT:      -7.9      3.386      7.933
REMARK  Name = 
REMARK  10 active torsions:
REMARK  status: ('A' for Active; 'I' for Inactive)
REMARK    1  A    between atoms: C_1  and  O_2
REMARK    2  A    between atoms: O_2  and  C_3
REMARK    3  A    between atoms: C_7  and  N_8
REMARK    4  A    between atoms: C_9  and  C_11
REMARK    5  A    between atoms: C_11  and  C_12
REMARK    6  A    between atoms: C_12  and  C_13
REMARK    7  A    between atoms: C_17  and  C_19
REMARK    8  A    between atoms: C_19  and  O_20
REMARK    9  A    between atoms: C_19  and  C_22
REMARK   10  A    between atoms: O_20  and  C_21
REMARK                            x       y       z     vdW  Elec       q    Type
REMARK                         _______ _______ _______ _____ _____    ______ ____
ROOT
ATOM      1  C   UNL     1       1.907   4.398  18.963  0.00  0.00    +0.000 C 
ATOM      2  C   UNL     1       3.005   3.322  19.125  0.00  0.00    +0.000 C 
ATOM      3  C   UNL     1       4.420   3.908  19.192  0.00  0.00    +0.000 C 
ATOM      4  N   UNL     1       4.682   4.833  18.080  0.00  0.00    +0.000 N 
ATOM      5  C   UNL     1       6.012   4.947  17.635  0.00  0.00    +0.000 C 
ATOM      6  O   UNL     1       6.910   4.295  18.184  0.00  0.00    +0.000 OA
ATOM      7  C   UNL     1       3.659   5.858  17.871  0.00  0.00    +0.000 C 
ATOM      8  C   UNL     1       2.260   5.261  17.751  0.00  0.00    +0.000 C 
ENDROOT
BRANCH   1   9
ATOM      9  C   UNL     1       1.780   5.278  20.216  0.00  0.00    +0.000 C 
BRANCH   9  10
ATOM     10  C   UNL     1       2.512   6.623  20.181  0.00  0.00    +0.000 C 
BRANCH  10  12
ATOM     11  N   UNL     1       1.521   8.808  19.709  0.00  0.00    +0.000 N 
ATOM     12  C   UNL     1       1.506   7.688  20.558  0.00  0.00    +0.000 C 
ATOM     13  O   UNL     1       0.683   7.432  21.444  0.00  0.00    +0.000 OA
ATOM     14  H   UNL     1       2.184   8.832  18.948  0.00  0.00    +0.000 HD
BRANCH  11  19
ATOM     15  C   UNL     1      -0.127  11.842  21.142  0.00  0.00    +0.000 A 
ATOM     16  C   UNL     1      -1.174  12.017  20.234  0.00  0.00    +0.000 A 
ATOM     17  C   UNL     1      -1.312  11.163  19.142  0.00  0.00    +0.000 A 
ATOM     18  C   UNL     1      -0.407  10.120  18.966  0.00  0.00    +0.000 A 
ATOM     19  C   UNL     1       0.640   9.897  19.858  0.00  0.00    +0.000 A 
ATOM     20  C   UNL     1       0.772  10.784  20.948  0.00  0.00    +0.000 A 
BRANCH  15  22
ATOM     21  C   UNL     1      -1.238  12.758  23.040  0.00  0.00    +0.000 C 
ATOM     22  O   UNL     1      -0.095  12.727  22.188  0.00  0.00    +0.000 OA
ENDBRANCH  15  22
ENDBRANCH  11  19
ENDBRANCH  10  12
ENDBRANCH   9  10
ENDBRANCH   1   9
BRANCH   5  23
ATOM     23  C   UNL     1       6.345   5.922  16.448  0.00  0.00    +0.000 C 
BRANCH  23  24
ATOM     24  C   UNL     1       6.337   5.207  15.084  0.00  0.00    +0.000 A 
ATOM     25  C   UNL     1       7.424   5.351  14.203  0.00  0.00    +0.000 A 
ATOM     26  C   UNL     1       7.482   4.633  13.003  0.00  0.00    +0.000 A 
ATOM     27  C   UNL     1       6.460   3.753  12.660  0.00  0.00    +0.000 A 
ATOM     28  C   UNL     1       5.358   3.621  13.504  0.00  0.00    +0.000 A 
ATOM     29  C   UNL     1       5.290   4.351  14.696  0.00  0.00    +0.000 A 
ENDBRANCH  23  24
BRANCH  23  30
ATOM     30  O   UNL     1       7.613   6.581  16.545  0.00  0.00    +0.000 OA
ATOM     31  C   UNL     1       7.653   7.739  17.361  0.00  0.00    +0.000 C 
ENDBRANCH  23  30
ENDBRANCH   5  23
TORSDOF 8
ENDMDL
MODEL 5
REMARK VINA RESULT:      -7.8      3.409      7.985
REMARK  Name = 
REMARK  10 active torsions:
REMARK  status: ('A' for Active; 'I' for Inactive)
REMARK    1  A    between atoms: C_1  and  O_2
REMARK    2  A    between atoms: O_2  and  C_3
REMARK    3  A    between atoms: C_7  and  N_8
REMARK    4  A    between atoms: C_9  and  C_11
REMARK    5  A    between atoms: C_11  and  C_12
REMARK    6  A    between atoms: C_12  and  C_13
REMARK    7  A    between atoms: C_17  and  C_19
REMARK    8  A    between atoms: C_19  and  O_20
REMARK    9  A    between atoms: C_19  and  C_22
REMARK   10  A    between atoms: O_20  and  C_21
REMARK                            x       y       z     vdW  Elec       q    Type
REMARK                         _______ _______ _______ _____ _____    ______ ____
ROOT
ATOM      1  C   UNL     1       2.327   3.546  18.845  0.00  0.00    +0.000 C 
ATOM      2  C   UNL     1       3.577   2.644  18.966  0.00  0.00    +0.000 C 
ATOM      3  C   UNL     1       4.887   3.435  19.054  0.00  0.00    +0.000 C 
ATOM      4  N   UNL     1       4.997   4.429  17.976  0.00  0.00    +0.000 N 
ATOM      5  C   UNL     1       6.292   4.760  17.534  0.00  0.00    +0.000 C 
ATOM      6  O   UNL     1       7.282   4.233  18.058  0.00  0.00    +0.000 OA
ATOM      7  C   UNL     1       3.830   5.293  17.805  0.00  0.00    +0.000 C 
ATOM      8  C   UNL     1       2.537   4.494  17.665  0.00  0.00    +0.000 C 
ENDROOT
BRANCH   1   9
ATOM      9  C   UNL     1       2.076   4.350  20.129  0.00  0.00    +0.000 C 
BRANCH   9  10
ATOM     10  C   UNL     1       2.573   5.798  20.134  0.00  0.00    +0.000 C 
BRANCH  10  12
ATOM     11  N   UNL     1       1.798   8.007  20.841  0.00  0.00    +0.000 N 
ATOM     12  C   UNL     1       1.454   6.653  20.686  0.00  0.00    +0.000 C 
ATOM     13  O   UNL     1       0.332   6.148  20.803  0.00  0.00    +0.000 OA
ATOM     14  H   UNL     1       2.732   8.301  20.599  0.00  0.00    +0.000 HD
BRANCH  11  19
ATOM     15  C   UNL     1      -0.500  10.956  20.872  0.00  0.00    +0.000 A 
ATOM     16  C   UNL     1      -0.837  11.002  22.227  0.00  0.00    +0.000 A 
ATOM     17  C   UNL     1      -0.339  10.048  23.111  0.00  0.00    +0.000 A 
ATOM     18  C   UNL     1       0.512   9.053  22.642  0.00  0.00    +0.000 A 
ATOM     19  C   UNL     1       0.891   8.982  21.303  0.00  0.00    +0.000 A 
ATOM     20  C   UNL     1       0.362   9.947  20.420  0.00  0.00    +0.000 A 
BRANCH  15  22
ATOM     21  C   UNL     1      -1.966  11.556  19.093  0.00  0.00    +0.000 C 
ATOM     22  O   UNL     1      -1.030  11.951  20.094  0.00  0.00    +0.000 OA
ENDBRANCH  15  22
ENDBRANCH  11  19
ENDBRANCH  10  12
ENDBRANCH   9  10
ENDBRANCH   1   9
BRANCH   5  23
ATOM     23  C   UNL     1       6.465   5.815  16.383  0.00  0.00    +0.000 C 
BRANCH  23  24
ATOM     24  C   UNL     1       6.473   5.165  14.988  0.00  0.00    +0.000 A 
ATOM     25  C   UNL     1       7.535   5.408  14.099  0.00  0.00    +0.000 A 
ATOM     26  C   UNL     1       7.613   4.749  12.866  0.00  0.00    +0.000 A 
ATOM     27  C   UNL     1       6.633   3.831  12.498  0.00  0.00    +0.000 A 
ATOM     28  C   UNL     1       5.555   3.601  13.350  0.00  0.00    +0.000 A 
ATOM     29  C   UNL     1       5.467   4.271  14.575  0.00  0.00    +0.000 A 
ENDBRANCH  23  24
BRANCH  23  30
ATOM     30  O   UNL     1       7.658   6.605  16.461  0.00  0.00    +0.000 OA
ATOM     31  C   UNL     1       7.580   7.777  17.254  0.00  0.00    +0.000 C 
ENDBRANCH  23  30
ENDBRANCH   5  23
TORSDOF 8
ENDMDL
MODEL 6
REMARK VINA RESULT:      -7.7      3.385      9.632
REMARK  Name = 
REMARK  10 active torsions:
REMARK  status: ('A' for Active; 'I' for Inactive)
REMARK    1  A    between atoms: C_1  and  O_2
REMARK    2  A    between atoms: O_2  and  C_3
REMARK    3  A    between atoms: C_7  and  N_8
REMARK    4  A    between atoms: C_9  and  C_11
REMARK    5  A    between atoms: C_11  and  C_12
REMARK    6  A    between atoms: C_12  and  C_13
REMARK    7  A    between atoms: C_17  and  C_19
REMARK    8  A    between atoms: C_19  and  O_20
REMARK    9  A    between atoms: C_19  and  C_22
REMARK   10  A    between atoms: O_20  and  C_21
REMARK                            x       y       z     vdW  Elec       q    Type
REMARK                         _______ _______ _______ _____ _____    ______ ____
ROOT
ATOM      1  C   UNL     1      10.066  10.702  19.005  0.00  0.00    +0.000 C 
ATOM      2  C   UNL     1      10.292  11.334  20.398  0.00  0.00    +0.000 C 
ATOM      3  C   UNL     1       9.178  12.303  20.810  0.00  0.00    +0.000 C 
ATOM      4  N   UNL     1       8.908  13.300  19.764  0.00  0.00    +0.000 N 
ATOM      5  C   UNL     1       8.433  14.558  20.179  0.00  0.00    +0.000 C 
ATOM      6  O   UNL     1       8.246  14.787  21.381  0.00  0.00    +0.000 OA
ATOM      7  C   UNL     1       8.709  12.754  18.421  0.00  0.00    +0.000 C 
ATOM      8  C   UNL     1       9.850  11.833  17.998  0.00  0.00    +0.000 C 
ENDROOT
BRANCH   1   9
ATOM      9  C   UNL     1       8.859   9.752  18.997  0.00  0.00    +0.000 C 
BRANCH   9  10
ATOM     10  C   UNL     1       8.309   9.360  17.623  0.00  0.00    +0.000 C 
BRANCH  10  12
ATOM     11  N   UNL     1       6.755   7.672  16.778  0.00  0.00    +0.000 N 
ATOM     12  C   UNL     1       7.718   7.975  17.758  0.00  0.00    +0.000 C 
ATOM     13  O   UNL     1       8.216   7.200  18.581  0.00  0.00    +0.000 OA
ATOM     14  H   UNL     1       6.523   8.374  16.092  0.00  0.00    +0.000 HD
BRANCH  11  19
ATOM     15  C   UNL     1       4.190   4.991  17.237  0.00  0.00    +0.000 A 
ATOM     16  C   UNL     1       4.843   3.908  16.643  0.00  0.00    +0.000 A 
ATOM     17  C   UNL     1       6.101   4.072  16.066  0.00  0.00    +0.000 A 
ATOM     18  C   UNL     1       6.714   5.321  16.097  0.00  0.00    +0.000 A 
ATOM     19  C   UNL     1       6.108   6.422  16.698  0.00  0.00    +0.000 A 
ATOM     20  C   UNL     1       4.827   6.239  17.261  0.00  0.00    +0.000 A 
BRANCH  15  22
ATOM     21  C   UNL     1       2.592   3.342  17.872  0.00  0.00    +0.000 C 
ATOM     22  O   UNL     1       2.966   4.715  17.788  0.00  0.00    +0.000 OA
ENDBRANCH  15  22
ENDBRANCH  11  19
ENDBRANCH  10  12
ENDBRANCH   9  10
ENDBRANCH   1   9
BRANCH   5  23
ATOM     23  C   UNL     1       8.130  15.661  19.100  0.00  0.00    +0.000 C 
BRANCH  23  24
ATOM     24  C   UNL     1       6.625  15.804  18.816  0.00  0.00    +0.000 A 
ATOM     25  C   UNL     1       5.961  14.852  18.021  0.00  0.00    +0.000 A 
ATOM     26  C   UNL     1       4.575  14.908  17.831  0.00  0.00    +0.000 A 
ATOM     27  C   UNL     1       3.823  15.911  18.435  0.00  0.00    +0.000 A 
ATOM     28  C   UNL     1       4.466  16.883  19.200  0.00  0.00    +0.000 A 
ATOM     29  C   UNL     1       5.854  16.839  19.376  0.00  0.00    +0.000 A 
ENDBRANCH  23  24
BRANCH  23  30
ATOM     30  O   UNL     1       8.759  15.451  17.830  0.00  0.00    +0.000 OA
ATOM     31  C   UNL     1       9.649  16.466  17.399  0.00  0.00    +0.000 C 
ENDBRANCH  23  30
ENDBRANCH   5  23
TORSDOF 8
ENDMDL
MODEL 7
REMARK VINA RESULT:      -7.7      3.376      7.662
REMARK  Name = 
REMARK  10 active torsions:
REMARK  status: ('A' for Active; 'I' for Inactive)
REMARK    1  A    between atoms: C_1  and  O_2
REMARK    2  A    between atoms: O_2  and  C_3
REMARK    3  A    between atoms: C_7  and  N_8
REMARK    4  A    between atoms: C_9  and  C_11
REMARK    5  A    between atoms: C_11  and  C_12
REMARK    6  A    between atoms: C_12  and  C_13
REMARK    7  A    between atoms: C_17  and  C_19
REMARK    8  A    between atoms: C_19  and  O_20
REMARK    9  A    between atoms: C_19  and  C_22
REMARK   10  A    between atoms: O_20  and  C_21
REMARK                            x       y       z     vdW  Elec       q    Type
REMARK                         _______ _______ _______ _____ _____    ______ ____
ROOT
ATOM      1  C   UNL     1       1.960   5.159  19.344  0.00  0.00    +0.000 C 
ATOM      2  C   UNL     1       2.905   3.942  19.463  0.00  0.00    +0.000 C 
ATOM      3  C   UNL     1       4.389   4.322  19.415  0.00  0.00    +0.000 C 
ATOM      4  N   UNL     1       4.696   5.177  18.259  0.00  0.00    +0.000 N 
ATOM      5  C   UNL     1       5.994   5.092  17.720  0.00  0.00    +0.000 C 
ATOM      6  O   UNL     1       6.829   4.331  18.226  0.00  0.00    +0.000 OA
ATOM      7  C   UNL     1       3.814   6.331  18.088  0.00  0.00    +0.000 C 
ATOM      8  C   UNL     1       2.340   5.936  18.083  0.00  0.00    +0.000 C 
ENDROOT
BRANCH   1   9
ATOM      9  C   UNL     1       2.048   6.075  20.574  0.00  0.00    +0.000 C 
BRANCH   9  10
ATOM     10  C   UNL     1       0.791   6.880  20.915  0.00  0.00    +0.000 C 
BRANCH  10  12
ATOM     11  N   UNL     1       0.564   9.168  20.081  0.00  0.00    +0.000 N 
ATOM     12  C   UNL     1       1.205   8.332  21.012  0.00  0.00    +0.000 C 
ATOM     13  O   UNL     1       1.920   8.677  21.959  0.00  0.00    +0.000 OA
ATOM     14  H   UNL     1      -0.088   8.758  19.429  0.00  0.00    +0.000 HD
BRANCH  11  19
ATOM     15  C   UNL     1       0.472  12.790  21.000  0.00  0.00    +0.000 A 
ATOM     16  C   UNL     1       1.093  13.353  19.883  0.00  0.00    +0.000 A 
ATOM     17  C   UNL     1       1.568  12.541  18.855  0.00  0.00    +0.000 A 
ATOM     18  C   UNL     1       1.408  11.161  18.939  0.00  0.00    +0.000 A 
ATOM     19  C   UNL     1       0.775  10.560  20.025  0.00  0.00    +0.000 A 
ATOM     20  C   UNL     1       0.317  11.399  21.063  0.00  0.00    +0.000 A 
BRANCH  15  22
ATOM     21  C   UNL     1      -1.046  13.250  22.778  0.00  0.00    +0.000 C 
ATOM     22  O   UNL     1       0.028  13.680  21.943  0.00  0.00    +0.000 OA
ENDBRANCH  15  22
ENDBRANCH  11  19
ENDBRANCH  10  12
ENDBRANCH   9  10
ENDBRANCH   1   9
BRANCH   5  23
ATOM     23  C   UNL     1       6.373   5.983  16.482  0.00  0.00    +0.000 C 
BRANCH  23  24
ATOM     24  C   UNL     1       6.434   5.174  15.175  0.00  0.00    +0.000 A 
ATOM     25  C   UNL     1       5.396   4.285  14.842  0.00  0.00    +0.000 A 
ATOM     26  C   UNL     1       5.382   3.614  13.613  0.00  0.00    +0.000 A 
ATOM     27  C   UNL     1       6.403   3.820  12.690  0.00  0.00    +0.000 A 
ATOM     28  C   UNL     1       7.459   4.671  13.014  0.00  0.00    +0.000 A 
ATOM     29  C   UNL     1       7.483   5.329  14.249  0.00  0.00    +0.000 A 
ENDBRANCH  23  24
BRANCH  23  30
ATOM     30  O   UNL     1       7.628   6.664  16.590  0.00  0.00    +0.000 OA
ATOM     31  C   UNL     1       7.677   7.743  17.507  0.00  0.00    +0.000 C 
ENDBRANCH  23  30
ENDBRANCH   5  23
TORSDOF 8
ENDMDL
MODEL 8
REMARK VINA RESULT:      -7.7      3.515      8.158
REMARK  Name = 
REMARK  10 active torsions:
REMARK  status: ('A' for Active; 'I' for Inactive)
REMARK    1  A    between atoms: C_1  and  O_2
REMARK    2  A    between atoms: O_2  and  C_3
REMARK    3  A    between atoms: C_7  and  N_8
REMARK    4  A    between atoms: C_9  and  C_11
REMARK    5  A    between atoms: C_11  and  C_12
REMARK    6  A    between atoms: C_12  and  C_13
REMARK    7  A    between atoms: C_17  and  C_19
REMARK    8  A    between atoms: C_19  and  O_20
REMARK    9  A    between atoms: C_19  and  C_22
REMARK   10  A    between atoms: O_20  and  C_21
REMARK                            x       y       z     vdW  Elec       q    Type
REMARK                         _______ _______ _______ _____ _____    ______ ____
ROOT
ATOM      1  C   UNL     1       1.907   6.190  19.094  0.00  0.00    +0.000 C 
ATOM      2  C   UNL     1       2.572   4.799  19.198  0.00  0.00    +0.000 C 
ATOM      3  C   UNL     1       4.102   4.853  19.112  0.00  0.00    +0.000 C 
ATOM      4  N   UNL     1       4.556   5.621  17.944  0.00  0.00    +0.000 N 
ATOM      5  C   UNL     1       5.792   5.259  17.374  0.00  0.00    +0.000 C 
ATOM      6  O   UNL     1       6.457   4.337  17.864  0.00  0.00    +0.000 OA
ATOM      7  C   UNL     1       3.938   6.937  17.787  0.00  0.00    +0.000 C 
ATOM      8  C   UNL     1       2.414   6.867  17.820  0.00  0.00    +0.000 C 
ENDROOT
BRANCH   1   9
ATOM      9  C   UNL     1       2.220   7.067  20.316  0.00  0.00    +0.000 C 
BRANCH   9  10
ATOM     10  C   UNL     1       1.113   7.192  21.366  0.00  0.00    +0.000 C 
BRANCH  10  12
ATOM     11  N   UNL     1       0.895   9.209  20.002  0.00  0.00    +0.000 N 
ATOM     12  C   UNL     1       0.418   8.514  21.127  0.00  0.00    +0.000 C 
ATOM     13  O   UNL     1      -0.572   8.791  21.813  0.00  0.00    +0.000 OA
ATOM     14  H   UNL     1       1.646   8.805  19.463  0.00  0.00    +0.000 HD
BRANCH  11  19
ATOM     15  C   UNL     1      -1.321  11.698  18.306  0.00  0.00    +0.000 A 
ATOM     16  C   UNL     1      -0.664  12.888  18.631  0.00  0.00    +0.000 A 
ATOM     17  C   UNL     1       0.477  12.869  19.430  0.00  0.00    +0.000 A 
ATOM     18  C   UNL     1       0.971  11.654  19.894  0.00  0.00    +0.000 A 
ATOM     19  C   UNL     1       0.360  10.442  19.577  0.00  0.00    +0.000 A 
ATOM     20  C   UNL     1      -0.804  10.484  18.781  0.00  0.00    +0.000 A 
BRANCH  15  22
ATOM     21  C   UNL     1      -3.300  10.707  17.423  0.00  0.00    +0.000 C 
ATOM     22  O   UNL     1      -2.422  11.829  17.501  0.00  0.00    +0.000 OA
ENDBRANCH  15  22
ENDBRANCH  11  19
ENDBRANCH  10  12
ENDBRANCH   9  10
ENDBRANCH   1   9
BRANCH   5  23
ATOM     23  C   UNL     1       6.322   6.048  16.122  0.00  0.00    +0.000 C 
BRANCH  23  24
ATOM     24  C   UNL     1       6.412   5.161  14.867  0.00  0.00    +0.000 A 
ATOM     25  C   UNL     1       5.369   4.272  14.551  0.00  0.00    +0.000 A 
ATOM     26  C   UNL     1       5.385   3.530  13.364  0.00  0.00    +0.000 A 
ATOM     27  C   UNL     1       6.440   3.665  12.467  0.00  0.00    +0.000 A 
ATOM     28  C   UNL     1       7.500   4.515  12.776  0.00  0.00    +0.000 A 
ATOM     29  C   UNL     1       7.494   5.245  13.970  0.00  0.00    +0.000 A 
ENDBRANCH  23  24
BRANCH  23  30
ATOM     30  O   UNL     1       7.615   6.642  16.286  0.00  0.00    +0.000 OA
ATOM     31  C   UNL     1       7.729   7.617  17.307  0.00  0.00    +0.000 C 
ENDBRANCH  23  30
ENDBRANCH   5  23
TORSDOF 8
ENDMDL
MODEL 9
REMARK VINA RESULT:      -7.7      4.257      7.874
REMARK  Name = 
REMARK  10 active torsions:
REMARK  status: ('A' for Active; 'I' for Inactive)
REMARK    1  A    between atoms: C_1  and  O_2
REMARK    2  A    between atoms: O_2  and  C_3
REMARK    3  A    between atoms: C_7  and  N_8
REMARK    4  A    between atoms: C_9  and  C_11
REMARK    5  A    between atoms: C_11  and  C_12
REMARK    6  A    between atoms: C_12  and  C_13
REMARK    7  A    between atoms: C_17  and  C_19
REMARK    8  A    between atoms: C_19  and  O_20
REMARK    9  A    between atoms: C_19  and  C_22
REMARK   10  A    between atoms: O_20  and  C_21
REMARK                            x       y       z     vdW  Elec       q    Type
REMARK                         _______ _______ _______ _____ _____    ______ ____
ROOT
ATOM      1  C   UNL     1       2.226   2.415  19.021  0.00  0.00    +0.000 C 
ATOM      2  C   UNL     1       3.658   1.839  18.934  0.00  0.00    +0.000 C 
ATOM      3  C   UNL     1       4.730   2.915  18.725  0.00  0.00    +0.000 C 
ATOM      4  N   UNL     1       4.399   3.803  17.602  0.00  0.00    +0.000 N 
ATOM      5  C   UNL     1       5.473   4.381  16.898  0.00  0.00    +0.000 C 
ATOM      6  O   UNL     1       6.639   4.145  17.239  0.00  0.00    +0.000 OA
ATOM      7  C   UNL     1       3.045   4.357  17.625  0.00  0.00    +0.000 C 
ATOM      8  C   UNL     1       1.982   3.274  17.780  0.00  0.00    +0.000 C 
ENDROOT
BRANCH   1   9
ATOM      9  C   UNL     1       2.023   3.255  20.291  0.00  0.00    +0.000 C 
BRANCH   9  10
ATOM     10  C   UNL     1       2.840   4.547  20.391  0.00  0.00    +0.000 C 
BRANCH  10  12
ATOM     11  N   UNL     1       2.445   6.959  20.436  0.00  0.00    +0.000 N 
ATOM     12  C   UNL     1       1.856   5.686  20.535  0.00  0.00    +0.000 C 
ATOM     13  O   UNL     1       0.649   5.421  20.569  0.00  0.00    +0.000 OA
ATOM     14  H   UNL     1       3.442   7.024  20.298  0.00  0.00    +0.000 HD
BRANCH  11  19
ATOM     15  C   UNL     1       0.578   9.879  21.840  0.00  0.00    +0.000 A 
ATOM     16  C   UNL     1       0.133  10.487  20.663  0.00  0.00    +0.000 A 
ATOM     17  C   UNL     1       0.477   9.958  19.422  0.00  0.00    +0.000 A 
ATOM     18  C   UNL     1       1.256   8.807  19.356  0.00  0.00    +0.000 A 
ATOM     19  C   UNL     1       1.703   8.156  20.504  0.00  0.00    +0.000 A 
ATOM     20  C   UNL     1       1.359   8.718  21.752  0.00  0.00    +0.000 A 
BRANCH  15  22
ATOM     21  C   UNL     1      -1.209  10.831  23.096  0.00  0.00    +0.000 C 
ATOM     22  O   UNL     1       0.168  10.471  23.005  0.00  0.00    +0.000 OA
ENDBRANCH  15  22
ENDBRANCH  11  19
ENDBRANCH  10  12
ENDBRANCH   9  10
ENDBRANCH   1   9
BRANCH   5  23
ATOM     23  C   UNL     1       5.173   5.337  15.687  0.00  0.00    +0.000 C 
BRANCH  23  24
ATOM     24  C   UNL     1       5.838   4.859  14.385  0.00  0.00    +0.000 A 
ATOM     25  C   UNL     1       7.113   5.333  14.024  0.00  0.00    +0.000 A 
ATOM     26  C   UNL     1       7.778   4.837  12.897  0.00  0.00    +0.000 A 
ATOM     27  C   UNL     1       7.186   3.854  12.109  0.00  0.00    +0.000 A 
ATOM     28  C   UNL     1       5.910   3.395  12.429  0.00  0.00    +0.000 A 
ATOM     29  C   UNL     1       5.236   3.902  13.546  0.00  0.00    +0.000 A 
ENDBRANCH  23  24
BRANCH  23  30
ATOM     30  O   UNL     1       5.590   6.695  15.873  0.00  0.00    +0.000 OA
ATOM     31  C   UNL     1       5.351   7.252  17.154  0.00  0.00    +0.000 C 
ENDBRANCH  23  30
ENDBRANCH   5  23
TORSDOF 8
ENDMDL
