MODEL 1
REMARK VINA RESULT:      -7.1      0.000      0.000
REMARK  Name = 
REMARK  8 active torsions:
REMARK  status: ('A' for Active; 'I' for Inactive)
REMARK    1  A    between atoms: C_1  and  C_2
REMARK    2  A    between atoms: C_7  and  C_8
REMARK    3  A    between atoms: C_8  and  C_9
REMARK    4  A    between atoms: C_12  and  S_13
REMARK    5  A    between atoms: S_13  and  C_14
REMARK    6  A    between atoms: C_14  and  C_15
REMARK    7  A    between atoms: N_17  and  N_18
REMARK    8  A    between atoms: C_19  and  C_20
REMARK                            x       y       z     vdW  Elec       q    Type
REMARK                         _______ _______ _______ _____ _____    ______ ____
ROOT
ATOM      1  C   UNL     1       3.012   5.549  18.578  0.00  0.00    +0.000 A 
ATOM      2  N   UNL     1       2.946   6.661  17.866  0.00  0.00    +0.000 NA
ATOM      3  N   UNL     1       2.382   7.643  18.643  0.00  0.00    +0.000 NA
ATOM      4  C   UNL     1       2.114   7.127  19.826  0.00  0.00    +0.000 A 
ATOM      5  N   UNL     1       2.473   5.799  19.821  0.00  0.00    +0.000 N 
ENDROOT
BRANCH   5   6
ATOM      6  N   UNL     1       2.442   4.900  20.856  0.00  0.00    +0.000 N 
ATOM      7  C   UNL     1       1.479   3.919  20.852  0.00  0.00    +0.000 C 
ATOM      8  C   UNL     1       1.658   2.867  21.915  0.00  0.00    +0.000 C 
ATOM      9  O   UNL     1       0.534   3.872  20.066  0.00  0.00    +0.000 OA
ATOM     10  H   UNL     1       3.345   4.698  21.284  0.00  0.00    +0.000 HD
ENDBRANCH   5   6
BRANCH   1  11
ATOM     11  C   UNL     1       3.550   4.248  18.094  0.00  0.00    +0.000 C 
BRANCH  11  18
ATOM     12  C   UNL     1       6.989   3.837  12.231  0.00  0.00    +0.000 C 
ATOM     13  C   UNL     1       6.161   3.991  13.483  0.00  0.00    +0.000 C 
ATOM     14  O   UNL     1       4.937   3.933  13.430  0.00  0.00    +0.000 OA
ATOM     15  N   UNL     1       6.931   4.158  14.610  0.00  0.00    +0.000 N 
ATOM     16  C   UNL     1       6.357   4.263  15.848  0.00  0.00    +0.000 A 
ATOM     17  N   UNL     1       5.120   4.013  16.200  0.00  0.00    +0.000 NA
ATOM     18  C   UNL     1       4.934   4.362  17.532  0.00  0.00    +0.000 A 
ATOM     19  C   UNL     1       6.079   4.795  18.176  0.00  0.00    +0.000 A 
ATOM     20  S   UNL     1       7.408   4.776  17.087  0.00  0.00    +0.000 S 
ATOM     21  H   UNL     1       7.924   4.327  14.550  0.00  0.00    +0.000 HD
ENDBRANCH  11  18
ENDBRANCH   1  11
BRANCH   4  22
ATOM     22  S   UNL     1       1.420   8.028  21.142  0.00  0.00    +0.000 S 
BRANCH  22  23
ATOM     23  C   UNL     1       0.951   9.556  20.245  0.00  0.00    +0.000 C 
BRANCH  23  24
ATOM     24  C   UNL     1       0.584  10.718  21.155  0.00  0.00    +0.000 C 
ATOM     25  N   UNL     1       0.280  11.681  21.910  0.00  0.00    +0.000 NA
ENDBRANCH  23  24
ENDBRANCH  22  23
ENDBRANCH   4  22
TORSDOF 6
ENDMDL
MODEL 2
REMARK VINA RESULT:      -6.8      2.965      7.467
REMARK  Name = 
REMARK  8 active torsions:
REMARK  status: ('A' for Active; 'I' for Inactive)
REMARK    1  A    between atoms: C_1  and  C_2
REMARK    2  A    between atoms: C_7  and  C_8
REMARK    3  A    between atoms: C_8  and  C_9
REMARK    4  A    between atoms: C_12  and  S_13
REMARK    5  A    between atoms: S_13  and  C_14
REMARK    6  A    between atoms: C_14  and  C_15
REMARK    7  A    between atoms: N_17  and  N_18
REMARK    8  A    between atoms: C_19  and  C_20
REMARK                            x       y       z     vdW  Elec       q    Type
REMARK                         _______ _______ _______ _____ _____    ______ ____
ROOT
ATOM      1  C   UNL     1       3.011   5.959  18.192  0.00  0.00    +0.000 A 
ATOM      2  N   UNL     1       1.810   5.480  17.921  0.00  0.00    +0.000 NA
ATOM      3  N   UNL     1       1.857   4.111  18.012  0.00  0.00    +0.000 NA
ATOM      4  C   UNL     1       3.084   3.763  18.344  0.00  0.00    +0.000 A 
ATOM      5  N   UNL     1       3.854   4.898  18.444  0.00  0.00    +0.000 N 
ENDROOT
BRANCH   5   6
ATOM      6  N   UNL     1       5.163   5.015  18.837  0.00  0.00    +0.000 N 
ATOM      7  C   UNL     1       6.150   4.944  17.884  0.00  0.00    +0.000 C 
ATOM      8  C   UNL     1       7.527   5.286  18.387  0.00  0.00    +0.000 C 
ATOM      9  O   UNL     1       5.964   4.626  16.710  0.00  0.00    +0.000 OA
ATOM     10  H   UNL     1       5.319   5.595  19.661  0.00  0.00    +0.000 HD
ENDBRANCH   5   6
BRANCH   1  11
ATOM     11  C   UNL     1       3.383   7.401  18.189  0.00  0.00    +0.000 C 
BRANCH  11  18
ATOM     12  C   UNL     1      -0.430   9.976  23.209  0.00  0.00    +0.000 C 
ATOM     13  C   UNL     1       0.498   9.435  22.150  0.00  0.00    +0.000 C 
ATOM     14  O   UNL     1       1.487   8.782  22.464  0.00  0.00    +0.000 OA
ATOM     15  N   UNL     1       0.077   9.733  20.874  0.00  0.00    +0.000 N 
ATOM     16  C   UNL     1       0.764   9.281  19.780  0.00  0.00    +0.000 A 
ATOM     17  N   UNL     1       1.712   8.377  19.725  0.00  0.00    +0.000 NA
ATOM     18  C   UNL     1       2.214   8.306  18.432  0.00  0.00    +0.000 A 
ATOM     19  C   UNL     1       1.562   9.115  17.519  0.00  0.00    +0.000 A 
ATOM     20  S   UNL     1       0.305   9.988  18.300  0.00  0.00    +0.000 S 
ATOM     21  H   UNL     1      -0.674  10.386  20.705  0.00  0.00    +0.000 HD
ENDBRANCH  11  18
ENDBRANCH   1  11
BRANCH   4  22
ATOM     22  S   UNL     1       3.591   2.120  18.602  0.00  0.00    +0.000 S 
BRANCH  22  23
ATOM     23  C   UNL     1       4.013   2.211  20.384  0.00  0.00    +0.000 C 
BRANCH  23  24
ATOM     24  C   UNL     1       2.853   2.632  21.272  0.00  0.00    +0.000 C 
ATOM     25  N   UNL     1       1.891   2.981  22.008  0.00  0.00    +0.000 NA
ENDBRANCH  23  24
ENDBRANCH  22  23
ENDBRANCH   4  22
TORSDOF 6
ENDMDL
MODEL 3
REMARK VINA RESULT:      -6.7      2.557      7.748
REMARK  Name = 
REMARK  8 active torsions:
REMARK  status: ('A' for Active; 'I' for Inactive)
REMARK    1  A    between atoms: C_1  and  C_2
REMARK    2  A    between atoms: C_7  and  C_8
REMARK    3  A    between atoms: C_8  and  C_9
REMARK    4  A    between atoms: C_12  and  S_13
REMARK    5  A    between atoms: S_13  and  C_14
REMARK    6  A    between atoms: C_14  and  C_15
REMARK    7  A    between atoms: N_17  and  N_18
REMARK    8  A    between atoms: C_19  and  C_20
REMARK                            x       y       z     vdW  Elec       q    Type
REMARK                         _______ _______ _______ _____ _____    ______ ____
ROOT
ATOM      1  C   UNL     1       3.451   6.460  18.392  0.00  0.00    +0.000 A 
ATOM      2  N   UNL     1       4.033   7.334  17.589  0.00  0.00    +0.000 NA
ATOM      3  N   UNL     1       4.717   6.645  16.618  0.00  0.00    +0.000 NA
ATOM      4  C   UNL     1       4.541   5.356  16.829  0.00  0.00    +0.000 A 
ATOM      5  N   UNL     1       3.769   5.193  17.954  0.00  0.00    +0.000 N 
ENDROOT
BRANCH   5   6
ATOM      6  N   UNL     1       3.278   4.032  18.497  0.00  0.00    +0.000 N 
ATOM      7  C   UNL     1       2.069   3.553  18.052  0.00  0.00    +0.000 C 
ATOM      8  C   UNL     1       1.721   2.178  18.558  0.00  0.00    +0.000 C 
ATOM      9  O   UNL     1       1.306   4.168  17.309  0.00  0.00    +0.000 OA
ATOM     10  H   UNL     1       3.984   3.366  18.809  0.00  0.00    +0.000 HD
ENDBRANCH   5   6
BRANCH   1  11
ATOM     11  C   UNL     1       2.624   6.803  19.581  0.00  0.00    +0.000 C 
BRANCH  11  18
ATOM     12  C   UNL     1      -1.200  11.255  23.034  0.00  0.00    +0.000 C 
ATOM     13  C   UNL     1      -0.283  10.277  22.343  0.00  0.00    +0.000 C 
ATOM     14  O   UNL     1       0.285   9.398  22.983  0.00  0.00    +0.000 OA
ATOM     15  N   UNL     1      -0.213  10.485  20.985  0.00  0.00    +0.000 N 
ATOM     16  C   UNL     1       0.532   9.664  20.183  0.00  0.00    +0.000 A 
ATOM     17  N   UNL     1       1.069   8.505  20.473  0.00  0.00    +0.000 NA
ATOM     18  C   UNL     1       1.838   8.065  19.402  0.00  0.00    +0.000 A 
ATOM     19  C   UNL     1       1.788   8.883  18.287  0.00  0.00    +0.000 A 
ATOM     20  S   UNL     1       0.769  10.232  18.594  0.00  0.00    +0.000 S 
ATOM     21  H   UNL     1      -0.605  11.311  20.557  0.00  0.00    +0.000 HD
ENDBRANCH  11  18
ENDBRANCH   1  11
BRANCH   4  22
ATOM     22  S   UNL     1       5.203   4.108  15.814  0.00  0.00    +0.000 S 
BRANCH  22  23
ATOM     23  C   UNL     1       6.988   4.483  16.003  0.00  0.00    +0.000 C 
BRANCH  23  24
ATOM     24  C   UNL     1       7.438   4.629  17.447  0.00  0.00    +0.000 C 
ATOM     25  N   UNL     1       7.812   4.749  18.645  0.00  0.00    +0.000 NA
ENDBRANCH  23  24
ENDBRANCH  22  23
ENDBRANCH   4  22
TORSDOF 6
ENDMDL
MODEL 4
REMARK VINA RESULT:      -6.6      3.406      5.360
REMARK  Name = 
REMARK  8 active torsions:
REMARK  status: ('A' for Active; 'I' for Inactive)
REMARK    1  A    between atoms: C_1  and  C_2
REMARK    2  A    between atoms: C_7  and  C_8
REMARK    3  A    between atoms: C_8  and  C_9
REMARK    4  A    between atoms: C_12  and  S_13
REMARK    5  A    between atoms: S_13  and  C_14
REMARK    6  A    between atoms: C_14  and  C_15
REMARK    7  A    between atoms: N_17  and  N_18
REMARK    8  A    between atoms: C_19  and  C_20
REMARK                            x       y       z     vdW  Elec       q    Type
REMARK                         _______ _______ _______ _____ _____    ______ ____
ROOT
ATOM      1  C   UNL     1       4.225   4.589  16.997  0.00  0.00    +0.000 A 
ATOM      2  N   UNL     1       4.405   3.290  16.842  0.00  0.00    +0.000 NA
ATOM      3  N   UNL     1       3.322   2.633  17.372  0.00  0.00    +0.000 NA
ATOM      4  C   UNL     1       2.484   3.536  17.840  0.00  0.00    +0.000 A 
ATOM      5  N   UNL     1       3.025   4.785  17.647  0.00  0.00    +0.000 N 
ENDROOT
BRANCH   5   6
ATOM      6  N   UNL     1       2.469   6.011  17.911  0.00  0.00    +0.000 N 
ATOM      7  C   UNL     1       2.582   6.530  19.178  0.00  0.00    +0.000 C 
ATOM      8  C   UNL     1       2.121   7.958  19.309  0.00  0.00    +0.000 C 
ATOM      9  O   UNL     1       3.013   5.911  20.150  0.00  0.00    +0.000 OA
ATOM     10  H   UNL     1       2.437   6.652  17.119  0.00  0.00    +0.000 HD
ENDBRANCH   5   6
BRANCH   1  11
ATOM     11  C   UNL     1       5.179   5.648  16.566  0.00  0.00    +0.000 C 
BRANCH  11  18
ATOM     12  C   UNL     1       9.509  10.397  18.817  0.00  0.00    +0.000 C 
ATOM     13  C   UNL     1       8.473   9.413  18.332  0.00  0.00    +0.000 C 
ATOM     14  O   UNL     1       7.590   9.768  17.559  0.00  0.00    +0.000 OA
ATOM     15  N   UNL     1       8.677   8.144  18.825  0.00  0.00    +0.000 N 
ATOM     16  C   UNL     1       7.867   7.105  18.456  0.00  0.00    +0.000 A 
ATOM     17  N   UNL     1       6.988   7.057  17.486  0.00  0.00    +0.000 NA
ATOM     18  C   UNL     1       6.304   5.849  17.533  0.00  0.00    +0.000 A 
ATOM     19  C   UNL     1       6.754   4.975  18.506  0.00  0.00    +0.000 A 
ATOM     20  S   UNL     1       8.050   5.687  19.383  0.00  0.00    +0.000 S 
ATOM     21  H   UNL     1       9.346   7.965  19.559  0.00  0.00    +0.000 HD
ENDBRANCH  11  18
ENDBRANCH   1  11
BRANCH   4  22
ATOM     22  S   UNL     1       0.954   3.152  18.573  0.00  0.00    +0.000 S 
BRANCH  22  23
ATOM     23  C   UNL     1       1.526   1.984  19.866  0.00  0.00    +0.000 C 
BRANCH  23  24
ATOM     24  C   UNL     1       1.948   2.657  21.162  0.00  0.00    +0.000 C 
ATOM     25  N   UNL     1       2.297   3.216  22.237  0.00  0.00    +0.000 NA
ENDBRANCH  23  24
ENDBRANCH  22  23
ENDBRANCH   4  22
TORSDOF 6
ENDMDL
MODEL 5
REMARK VINA RESULT:      -6.6      3.048      7.329
REMARK  Name = 
REMARK  8 active torsions:
REMARK  status: ('A' for Active; 'I' for Inactive)
REMARK    1  A    between atoms: C_1  and  C_2
REMARK    2  A    between atoms: C_7  and  C_8
REMARK    3  A    between atoms: C_8  and  C_9
REMARK    4  A    between atoms: C_12  and  S_13
REMARK    5  A    between atoms: S_13  and  C_14
REMARK    6  A    between atoms: C_14  and  C_15
REMARK    7  A    between atoms: N_17  and  N_18
REMARK    8  A    between atoms: C_19  and  C_20
REMARK                            x       y       z     vdW  Elec       q    Type
REMARK                         _______ _______ _______ _____ _____    ______ ____
ROOT
ATOM      1  C   UNL     1       2.548   5.753  18.093  0.00  0.00    +0.000 A 
ATOM      2  N   UNL     1       1.467   5.113  17.684  0.00  0.00    +0.000 NA
ATOM      3  N   UNL     1       1.690   3.763  17.798  0.00  0.00    +0.000 NA
ATOM      4  C   UNL     1       2.903   3.587  18.284  0.00  0.00    +0.000 A 
ATOM      5  N   UNL     1       3.491   4.817  18.461  0.00  0.00    +0.000 N 
ENDROOT
BRANCH   5   6
ATOM      6  N   UNL     1       4.712   5.112  19.011  0.00  0.00    +0.000 N 
ATOM      7  C   UNL     1       5.817   5.140  18.194  0.00  0.00    +0.000 C 
ATOM      8  C   UNL     1       7.064   5.670  18.851  0.00  0.00    +0.000 C 
ATOM      9  O   UNL     1       5.827   4.766  17.022  0.00  0.00    +0.000 OA
ATOM     10  H   UNL     1       4.686   5.731  19.821  0.00  0.00    +0.000 HD
ENDBRANCH   5   6
BRANCH   1  11
ATOM     11  C   UNL     1       2.716   7.232  18.115  0.00  0.00    +0.000 C 
BRANCH  11  18
ATOM     12  C   UNL     1      -1.691  12.214  19.577  0.00  0.00    +0.000 C 
ATOM     13  C   UNL     1      -0.780  11.078  19.181  0.00  0.00    +0.000 C 
ATOM     14  O   UNL     1      -0.577  10.826  17.998  0.00  0.00    +0.000 OA
ATOM     15  N   UNL     1      -0.227  10.439  20.267  0.00  0.00    +0.000 N 
ATOM     16  C   UNL     1       0.666   9.414  20.104  0.00  0.00    +0.000 A 
ATOM     17  N   UNL     1       1.289   9.037  19.015  0.00  0.00    +0.000 NA
ATOM     18  C   UNL     1       2.016   7.881  19.269  0.00  0.00    +0.000 A 
ATOM     19  C   UNL     1       1.982   7.462  20.587  0.00  0.00    +0.000 A 
ATOM     20  S   UNL     1       1.012   8.531  21.519  0.00  0.00    +0.000 S 
ATOM     21  H   UNL     1      -0.548  10.621  21.207  0.00  0.00    +0.000 HD
ENDBRANCH  11  18
ENDBRANCH   1  11
BRANCH   4  22
ATOM     22  S   UNL     1       3.594   2.029  18.626  0.00  0.00    +0.000 S 
BRANCH  22  23
ATOM     23  C   UNL     1       3.996   2.260  20.399  0.00  0.00    +0.000 C 
BRANCH  23  24
ATOM     24  C   UNL     1       2.795   2.612  21.263  0.00  0.00    +0.000 C 
ATOM     25  N   UNL     1       1.799   2.903  21.979  0.00  0.00    +0.000 NA
ENDBRANCH  23  24
ENDBRANCH  22  23
ENDBRANCH   4  22
TORSDOF 6
ENDMDL
MODEL 6
REMARK VINA RESULT:      -6.6      2.943      7.908
REMARK  Name = 
REMARK  8 active torsions:
REMARK  status: ('A' for Active; 'I' for Inactive)
REMARK    1  A    between atoms: C_1  and  C_2
REMARK    2  A    between atoms: C_7  and  C_8
REMARK    3  A    between atoms: C_8  and  C_9
REMARK    4  A    between atoms: C_12  and  S_13
REMARK    5  A    between atoms: S_13  and  C_14
REMARK    6  A    between atoms: C_14  and  C_15
REMARK    7  A    between atoms: N_17  and  N_18
REMARK    8  A    between atoms: C_19  and  C_20
REMARK                            x       y       z     vdW  Elec       q    Type
REMARK                         _______ _______ _______ _____ _____    ______ ____
ROOT
ATOM      1  C   UNL     1       2.413   5.926  19.554  0.00  0.00    +0.000 A 
ATOM      2  N   UNL     1       1.788   5.506  20.639  0.00  0.00    +0.000 NA
ATOM      3  N   UNL     1       1.437   4.190  20.458  0.00  0.00    +0.000 NA
ATOM      4  C   UNL     1       1.859   3.814  19.267  0.00  0.00    +0.000 A 
ATOM      5  N   UNL     1       2.459   4.887  18.651  0.00  0.00    +0.000 N 
ENDROOT
BRANCH   5   6
ATOM      6  N   UNL     1       3.102   4.930  17.440  0.00  0.00    +0.000 N 
ATOM      7  C   UNL     1       4.469   4.797  17.412  0.00  0.00    +0.000 C 
ATOM      8  C   UNL     1       5.052   4.653  16.030  0.00  0.00    +0.000 C 
ATOM      9  O   UNL     1       5.191   4.796  18.408  0.00  0.00    +0.000 OA
ATOM     10  H   UNL     1       2.560   4.587  16.648  0.00  0.00    +0.000 HD
ENDBRANCH   5   6
BRANCH   1  11
ATOM     11  C   UNL     1       2.945   7.301  19.346  0.00  0.00    +0.000 C 
BRANCH  11  18
ATOM     12  C   UNL     1      -1.225  11.224  23.033  0.00  0.00    +0.000 C 
ATOM     13  C   UNL     1      -0.224  10.388  22.275  0.00  0.00    +0.000 C 
ATOM     14  O   UNL     1       0.629   9.742  22.875  0.00  0.00    +0.000 OA
ATOM     15  N   UNL     1      -0.421  10.429  20.914  0.00  0.00    +0.000 N 
ATOM     16  C   UNL     1       0.359   9.693  20.065  0.00  0.00    +0.000 A 
ATOM     17  N   UNL     1       1.194   8.726  20.353  0.00  0.00    +0.000 NA
ATOM     18  C   UNL     1       1.865   8.329  19.203  0.00  0.00    +0.000 A 
ATOM     19  C   UNL     1       1.447   8.967  18.048  0.00  0.00    +0.000 A 
ATOM     20  S   UNL     1       0.200  10.090  18.416  0.00  0.00    +0.000 S 
ATOM     21  H   UNL     1      -1.060  11.088  20.494  0.00  0.00    +0.000 HD
ENDBRANCH  11  18
ENDBRANCH   1  11
BRANCH   4  22
ATOM     22  S   UNL     1       1.660   2.208  18.631  0.00  0.00    +0.000 S 
BRANCH  22  23
ATOM     23  C   UNL     1       3.419   1.703  18.534  0.00  0.00    +0.000 C 
BRANCH  23  24
ATOM     24  C   UNL     1       4.188   1.891  19.833  0.00  0.00    +0.000 C 
ATOM     25  N   UNL     1       4.825   2.047  20.909  0.00  0.00    +0.000 NA
ENDBRANCH  23  24
ENDBRANCH  22  23
ENDBRANCH   4  22
TORSDOF 6
ENDMDL
MODEL 7
REMARK VINA RESULT:      -6.6      2.416      8.044
REMARK  Name = 
REMARK  8 active torsions:
REMARK  status: ('A' for Active; 'I' for Inactive)
REMARK    1  A    between atoms: C_1  and  C_2
REMARK    2  A    between atoms: C_7  and  C_8
REMARK    3  A    between atoms: C_8  and  C_9
REMARK    4  A    between atoms: C_12  and  S_13
REMARK    5  A    between atoms: S_13  and  C_14
REMARK    6  A    between atoms: C_14  and  C_15
REMARK    7  A    between atoms: N_17  and  N_18
REMARK    8  A    between atoms: C_19  and  C_20
REMARK                            x       y       z     vdW  Elec       q    Type
REMARK                         _______ _______ _______ _____ _____    ______ ____
ROOT
ATOM      1  C   UNL     1       2.988   6.677  18.837  0.00  0.00    +0.000 A 
ATOM      2  N   UNL     1       3.700   7.455  18.041  0.00  0.00    +0.000 NA
ATOM      3  N   UNL     1       4.370   6.662  17.143  0.00  0.00    +0.000 NA
ATOM      4  C   UNL     1       4.057   5.406  17.391  0.00  0.00    +0.000 A 
ATOM      5  N   UNL     1       3.206   5.366  18.470  0.00  0.00    +0.000 N 
ENDROOT
BRANCH   5   6
ATOM      6  N   UNL     1       2.573   4.283  19.023  0.00  0.00    +0.000 N 
ATOM      7  C   UNL     1       1.526   3.710  18.343  0.00  0.00    +0.000 C 
ATOM      8  C   UNL     1       1.037   2.412  18.931  0.00  0.00    +0.000 C 
ATOM      9  O   UNL     1       1.002   4.187  17.338  0.00  0.00    +0.000 OA
ATOM     10  H   UNL     1       3.160   3.690  19.610  0.00  0.00    +0.000 HD
ENDBRANCH   5   6
BRANCH   1  11
ATOM     11  C   UNL     1       2.127   7.148  19.956  0.00  0.00    +0.000 C 
BRANCH  11  18
ATOM     12  C   UNL     1      -1.276  12.198  23.004  0.00  0.00    +0.000 C 
ATOM     13  C   UNL     1      -0.452  11.087  22.403  0.00  0.00    +0.000 C 
ATOM     14  O   UNL     1       0.032  10.215  23.116  0.00  0.00    +0.000 OA
ATOM     15  N   UNL     1      -0.361  11.177  21.032  0.00  0.00    +0.000 N 
ATOM     16  C   UNL     1       0.305  10.228  20.306  0.00  0.00    +0.000 A 
ATOM     17  N   UNL     1       0.734   9.052  20.693  0.00  0.00    +0.000 NA
ATOM     18  C   UNL     1       1.461   8.459  19.668  0.00  0.00    +0.000 A 
ATOM     19  C   UNL     1       1.487   9.184  18.491  0.00  0.00    +0.000 A 
ATOM     20  S   UNL     1       0.596  10.641  18.678  0.00  0.00    +0.000 S 
ATOM     21  H   UNL     1      -0.675  11.997  20.535  0.00  0.00    +0.000 HD
ENDBRANCH  11  18
ENDBRANCH   1  11
BRANCH   4  22
ATOM     22  S   UNL     1       4.655   4.057  16.469  0.00  0.00    +0.000 S 
BRANCH  22  23
ATOM     23  C   UNL     1       6.456   4.379  16.600  0.00  0.00    +0.000 C 
BRANCH  23  24
ATOM     24  C   UNL     1       7.077   4.936  15.330  0.00  0.00    +0.000 C 
ATOM     25  N   UNL     1       7.592   5.399  14.276  0.00  0.00    +0.000 NA
ENDBRANCH  23  24
ENDBRANCH  22  23
ENDBRANCH   4  22
TORSDOF 6
ENDMDL
MODEL 8
REMARK VINA RESULT:      -6.5      2.578      8.176
REMARK  Name = 
REMARK  8 active torsions:
REMARK  status: ('A' for Active; 'I' for Inactive)
REMARK    1  A    between atoms: C_1  and  C_2
REMARK    2  A    between atoms: C_7  and  C_8
REMARK    3  A    between atoms: C_8  and  C_9
REMARK    4  A    between atoms: C_12  and  S_13
REMARK    5  A    between atoms: S_13  and  C_14
REMARK    6  A    between atoms: C_14  and  C_15
REMARK    7  A    between atoms: N_17  and  N_18
REMARK    8  A    between atoms: C_19  and  C_20
REMARK                            x       y       z     vdW  Elec       q    Type
REMARK                         _______ _______ _______ _____ _____    ______ ____
ROOT
ATOM      1  C   UNL     1       3.936   5.056  18.329  0.00  0.00    +0.000 A 
ATOM      2  N   UNL     1       3.141   4.192  17.723  0.00  0.00    +0.000 NA
ATOM      3  N   UNL     1       3.834   3.615  16.687  0.00  0.00    +0.000 NA
ATOM      4  C   UNL     1       5.048   4.126  16.671  0.00  0.00    +0.000 A 
ATOM      5  N   UNL     1       5.150   5.059  17.676  0.00  0.00    +0.000 N 
ENDROOT
BRANCH   5   6
ATOM      6  N   UNL     1       6.249   5.778  18.071  0.00  0.00    +0.000 N 
ATOM      7  C   UNL     1       6.636   6.862  17.320  0.00  0.00    +0.000 C 
ATOM      8  C   UNL     1       7.721   7.698  17.947  0.00  0.00    +0.000 C 
ATOM      9  O   UNL     1       6.164   7.155  16.223  0.00  0.00    +0.000 OA
ATOM     10  H   UNL     1       6.421   5.791  19.075  0.00  0.00    +0.000 HD
ENDBRANCH   5   6
BRANCH   1  11
ATOM     11  C   UNL     1       3.559   5.900  19.497  0.00  0.00    +0.000 C 
BRANCH  11  18
ATOM     12  C   UNL     1      -0.390  10.784  22.126  0.00  0.00    +0.000 C 
ATOM     13  C   UNL     1       0.552   9.721  21.618  0.00  0.00    +0.000 C 
ATOM     14  O   UNL     1       1.089   8.942  22.398  0.00  0.00    +0.000 OA
ATOM     15  N   UNL     1       0.680   9.736  20.248  0.00  0.00    +0.000 N 
ATOM     16  C   UNL     1       1.454   8.812  19.601  0.00  0.00    +0.000 A 
ATOM     17  N   UNL     1       1.975   7.707  20.074  0.00  0.00    +0.000 NA
ATOM     18  C   UNL     1       2.787   7.123  19.109  0.00  0.00    +0.000 A 
ATOM     19  C   UNL     1       2.786   7.776  17.889  0.00  0.00    +0.000 A 
ATOM     20  S   UNL     1       1.760   9.153  17.960  0.00  0.00    +0.000 S 
ATOM     21  H   UNL     1       0.309  10.493  19.692  0.00  0.00    +0.000 HD
ENDBRANCH  11  18
ENDBRANCH   1  11
BRANCH   4  22
ATOM     22  S   UNL     1       6.283   3.656  15.540  0.00  0.00    +0.000 S 
BRANCH  22  23
ATOM     23  C   UNL     1       5.574   4.371  14.008  0.00  0.00    +0.000 C 
BRANCH  23  24
ATOM     24  C   UNL     1       5.669   3.456  12.798  0.00  0.00    +0.000 C 
ATOM     25  N   UNL     1       5.748   2.697  11.795  0.00  0.00    +0.000 NA
ENDBRANCH  23  24
ENDBRANCH  22  23
ENDBRANCH   4  22
TORSDOF 6
ENDMDL
MODEL 9
REMARK VINA RESULT:      -6.5      3.224      6.923
REMARK  Name = 
REMARK  8 active torsions:
REMARK  status: ('A' for Active; 'I' for Inactive)
REMARK    1  A    between atoms: C_1  and  C_2
REMARK    2  A    between atoms: C_7  and  C_8
REMARK    3  A    between atoms: C_8  and  C_9
REMARK    4  A    between atoms: C_12  and  S_13
REMARK    5  A    between atoms: S_13  and  C_14
REMARK    6  A    between atoms: C_14  and  C_15
REMARK    7  A    between atoms: N_17  and  N_18
REMARK    8  A    between atoms: C_19  and  C_20
REMARK                            x       y       z     vdW  Elec       q    Type
REMARK                         _______ _______ _______ _____ _____    ______ ____
ROOT
ATOM      1  C   UNL     1       5.887   4.613  18.762  0.00  0.00    +0.000 A 
ATOM      2  N   UNL     1       6.606   5.014  19.796  0.00  0.00    +0.000 NA
ATOM      3  N   UNL     1       7.351   6.102  19.414  0.00  0.00    +0.000 NA
ATOM      4  C   UNL     1       7.077   6.363  18.151  0.00  0.00    +0.000 A 
ATOM      5  N   UNL     1       6.176   5.432  17.692  0.00  0.00    +0.000 N 
ENDROOT
BRANCH   5   6
ATOM      6  N   UNL     1       5.560   5.367  16.468  0.00  0.00    +0.000 N 
ATOM      7  C   UNL     1       6.239   4.801  15.415  0.00  0.00    +0.000 C 
ATOM      8  C   UNL     1       5.406   4.592  14.178  0.00  0.00    +0.000 C 
ATOM      9  O   UNL     1       7.427   4.482  15.441  0.00  0.00    +0.000 OA
ATOM     10  H   UNL     1       4.544   5.286  16.496  0.00  0.00    +0.000 HD
ENDBRANCH   5   6
BRANCH   1  11
ATOM     11  C   UNL     1       4.954   3.454  18.760  0.00  0.00    +0.000 C 
BRANCH  11  18
ATOM     12  C   UNL     1       0.771   8.275  21.133  0.00  0.00    +0.000 C 
ATOM     13  C   UNL     1       1.680   7.243  20.513  0.00  0.00    +0.000 C 
ATOM     14  O   UNL     1       2.478   7.561  19.638  0.00  0.00    +0.000 OA
ATOM     15  N   UNL     1       1.514   5.992  21.062  0.00  0.00    +0.000 N 
ATOM     16  C   UNL     1       2.288   4.937  20.662  0.00  0.00    +0.000 A 
ATOM     17  N   UNL     1       3.379   4.951  19.936  0.00  0.00    +0.000 NA
ATOM     18  C   UNL     1       3.779   3.648  19.670  0.00  0.00    +0.000 A 
ATOM     19  C   UNL     1       3.009   2.676  20.282  0.00  0.00    +0.000 A 
ATOM     20  S   UNL     1       1.755   3.410  21.198  0.00  0.00    +0.000 S 
ATOM     21  H   UNL     1       0.745   5.786  21.683  0.00  0.00    +0.000 HD
ENDBRANCH  11  18
ENDBRANCH   1  11
BRANCH   4  22
ATOM     22  S   UNL     1       7.774   7.686  17.262  0.00  0.00    +0.000 S 
BRANCH  22  23
ATOM     23  C   UNL     1       8.575   8.587  18.643  0.00  0.00    +0.000 C 
BRANCH  23  24
ATOM     24  C   UNL     1       8.827  10.059  18.355  0.00  0.00    +0.000 C 
ATOM     25  N   UNL     1       9.037  11.279  18.117  0.00  0.00    +0.000 NA
ENDBRANCH  23  24
ENDBRANCH  22  23
ENDBRANCH   4  22
TORSDOF 6
ENDMDL
