MODEL 1
REMARK VINA RESULT:      -7.5      0.000      0.000
REMARK  Name = 
REMARK  3 active torsions:
REMARK  status: ('A' for Active; 'I' for Inactive)
REMARK    1  A    between atoms: C_2  and  C_12
REMARK    2  A    between atoms: C_6  and  O_7
REMARK    3  A    between atoms: C_9  and  O_10
REMARK                            x       y       z     vdW  Elec       q    Type
REMARK                         _______ _______ _______ _____ _____    ______ ____
ROOT
ATOM      1  O   UNL     1       5.913   7.010  16.314  0.00  0.00    +0.000 OA
ATOM      2  C   UNL     1       5.152   6.063  16.478  0.00  0.00    +0.000 C 
ATOM      3  N   UNL     1       5.060   4.934  15.687  0.00  0.00    +0.000 N 
ATOM      4  C   UNL     1       5.909   4.701  14.586  0.00  0.00    +0.000 A 
ATOM      5  C   UNL     1       5.565   3.710  13.689  0.00  0.00    +0.000 A 
ATOM      6  C   UNL     1       6.393   3.590  12.593  0.00  0.00    +0.000 A 
ATOM      7  N   UNL     1       7.494   4.318  12.390  0.00  0.00    +0.000 NA
ATOM      8  C   UNL     1       7.735   5.210  13.340  0.00  0.00    +0.000 A 
ATOM      9  N   UNL     1       7.006   5.449  14.423  0.00  0.00    +0.000 NA
ATOM     10  H   UNL     1       4.322   4.269  15.868  0.00  0.00    +0.000 HD
ENDROOT
BRANCH   2  11
ATOM     11  C   UNL     1       4.175   6.215  17.584  0.00  0.00    +0.000 A 
ATOM     12  C   UNL     1       3.331   7.340  17.493  0.00  0.00    +0.000 A 
ATOM     13  C   UNL     1       2.477   7.669  18.539  0.00  0.00    +0.000 A 
ATOM     14 CL   UNL     1       1.473   9.059  18.419  0.00  0.00    +0.000 Cl
ATOM     15  C   UNL     1       2.449   6.888  19.690  0.00  0.00    +0.000 A 
ATOM     16  C   UNL     1       3.267   5.757  19.781  0.00  0.00    +0.000 A 
ATOM     17  C   UNL     1       4.129   5.412  18.729  0.00  0.00    +0.000 A 
ATOM     18 CL   UNL     1       5.117   4.014  18.945  0.00  0.00    +0.000 Cl
ENDBRANCH   2  11
BRANCH   6  19
ATOM     19  O   UNL     1       6.118   2.702  11.593  0.00  0.00    +0.000 OA
ATOM     20  H   UNL     1       5.165   2.700  11.426  0.00  0.00    +0.000 HD
ENDBRANCH   6  19
BRANCH   8  21
ATOM     21  O   UNL     1       8.853   5.960  13.154  0.00  0.00    +0.000 OA
ATOM     22  H   UNL     1       9.254   5.854  14.030  0.00  0.00    +0.000 HD
ENDBRANCH   8  21
TORSDOF 3
ENDMDL
MODEL 2
REMARK VINA RESULT:      -7.2      4.842      8.190
REMARK  Name = 
REMARK  3 active torsions:
REMARK  status: ('A' for Active; 'I' for Inactive)
REMARK    1  A    between atoms: C_2  and  C_12
REMARK    2  A    between atoms: C_6  and  O_7
REMARK    3  A    between atoms: C_9  and  O_10
REMARK                            x       y       z     vdW  Elec       q    Type
REMARK                         _______ _______ _______ _____ _____    ______ ____
ROOT
ATOM      1  O   UNL     1       2.398   8.253  17.689  0.00  0.00    +0.000 OA
ATOM      2  C   UNL     1       2.613   7.368  18.511  0.00  0.00    +0.000 C 
ATOM      3  N   UNL     1       2.214   7.359  19.834  0.00  0.00    +0.000 N 
ATOM      4  C   UNL     1       1.426   8.382  20.402  0.00  0.00    +0.000 A 
ATOM      5  C   UNL     1       1.321   8.443  21.776  0.00  0.00    +0.000 A 
ATOM      6  C   UNL     1       0.605   9.513  22.269  0.00  0.00    +0.000 A 
ATOM      7  N   UNL     1      -0.009  10.426  21.513  0.00  0.00    +0.000 NA
ATOM      8  C   UNL     1       0.137  10.237  20.210  0.00  0.00    +0.000 A 
ATOM      9  N   UNL     1       0.823   9.273  19.608  0.00  0.00    +0.000 NA
ATOM     10  H   UNL     1       2.540   6.619  20.438  0.00  0.00    +0.000 HD
ENDROOT
BRANCH   2  11
ATOM     11  C   UNL     1       3.474   6.256  18.039  0.00  0.00    +0.000 A 
ATOM     12  C   UNL     1       4.813   6.603  17.771  0.00  0.00    +0.000 A 
ATOM     13  C   UNL     1       5.677   5.684  17.187  0.00  0.00    +0.000 A 
ATOM     14 CL   UNL     1       7.301   6.133  16.845  0.00  0.00    +0.000 Cl
ATOM     15  C   UNL     1       5.225   4.410  16.861  0.00  0.00    +0.000 A 
ATOM     16  C   UNL     1       3.903   4.049  17.144  0.00  0.00    +0.000 A 
ATOM     17  C   UNL     1       3.024   4.966  17.738  0.00  0.00    +0.000 A 
ATOM     18 CL   UNL     1       1.407   4.436  18.024  0.00  0.00    +0.000 Cl
ENDBRANCH   2  11
BRANCH   6  19
ATOM     19  O   UNL     1       0.494   9.732  23.611  0.00  0.00    +0.000 OA
ATOM     20  H   UNL     1      -0.385  10.090  23.801  0.00  0.00    +0.000 HD
ENDBRANCH   6  19
BRANCH   8  21
ATOM     21  O   UNL     1      -0.484  11.156  19.423  0.00  0.00    +0.000 OA
ATOM     22  H   UNL     1      -0.821  10.561  18.735  0.00  0.00    +0.000 HD
ENDBRANCH   8  21
TORSDOF 3
ENDMDL
MODEL 3
REMARK VINA RESULT:      -7.1      1.101      2.384
REMARK  Name = 
REMARK  3 active torsions:
REMARK  status: ('A' for Active; 'I' for Inactive)
REMARK    1  A    between atoms: C_2  and  C_12
REMARK    2  A    between atoms: C_6  and  O_7
REMARK    3  A    between atoms: C_9  and  O_10
REMARK                            x       y       z     vdW  Elec       q    Type
REMARK                         _______ _______ _______ _____ _____    ______ ____
ROOT
ATOM      1  O   UNL     1       5.884   6.500  16.833  0.00  0.00    +0.000 OA
ATOM      2  C   UNL     1       5.162   5.513  16.918  0.00  0.00    +0.000 C 
ATOM      3  N   UNL     1       5.055   4.489  15.996  0.00  0.00    +0.000 N 
ATOM      4  C   UNL     1       5.841   4.427  14.827  0.00  0.00    +0.000 A 
ATOM      5  C   UNL     1       5.471   3.545  13.833  0.00  0.00    +0.000 A 
ATOM      6  C   UNL     1       6.233   3.593  12.685  0.00  0.00    +0.000 A 
ATOM      7  N   UNL     1       7.297   4.380  12.514  0.00  0.00    +0.000 NA
ATOM      8  C   UNL     1       7.570   5.154  13.554  0.00  0.00    +0.000 A 
ATOM      9  N   UNL     1       6.903   5.229  14.699  0.00  0.00    +0.000 NA
ATOM     10  H   UNL     1       4.349   3.780  16.133  0.00  0.00    +0.000 HD
ENDROOT
BRANCH   2  11
ATOM     11  C   UNL     1       4.252   5.489  18.089  0.00  0.00    +0.000 A 
ATOM     12  C   UNL     1       4.245   4.286  18.823  0.00  0.00    +0.000 A 
ATOM     13  C   UNL     1       3.330   4.091  19.851  0.00  0.00    +0.000 A 
ATOM     14 CL   UNL     1       3.320   2.606  20.719  0.00  0.00    +0.000 Cl
ATOM     15  C   UNL     1       2.410   5.085  20.165  0.00  0.00    +0.000 A 
ATOM     16  C   UNL     1       2.424   6.292  19.457  0.00  0.00    +0.000 A 
ATOM     17  C   UNL     1       3.347   6.502  18.422  0.00  0.00    +0.000 A 
ATOM     18 CL   UNL     1       3.269   8.013  17.591  0.00  0.00    +0.000 Cl
ENDBRANCH   2  11
BRANCH   6  19
ATOM     19  O   UNL     1       5.923   2.828  11.598  0.00  0.00    +0.000 OA
ATOM     20  H   UNL     1       5.808   3.405  10.829  0.00  0.00    +0.000 HD
ENDBRANCH   6  19
BRANCH   8  21
ATOM     21  O   UNL     1       8.653   5.962  13.401  0.00  0.00    +0.000 OA
ATOM     22  H   UNL     1       9.026   5.564  12.599  0.00  0.00    +0.000 HD
ENDBRANCH   8  21
TORSDOF 3
ENDMDL
MODEL 4
REMARK VINA RESULT:      -7.0      4.907      8.133
REMARK  Name = 
REMARK  3 active torsions:
REMARK  status: ('A' for Active; 'I' for Inactive)
REMARK    1  A    between atoms: C_2  and  C_12
REMARK    2  A    between atoms: C_6  and  O_7
REMARK    3  A    between atoms: C_9  and  O_10
REMARK                            x       y       z     vdW  Elec       q    Type
REMARK                         _______ _______ _______ _____ _____    ______ ____
ROOT
ATOM      1  O   UNL     1       2.667   8.216  17.787  0.00  0.00    +0.000 OA
ATOM      2  C   UNL     1       2.503   7.249  18.523  0.00  0.00    +0.000 C 
ATOM      3  N   UNL     1       1.954   7.263  19.791  0.00  0.00    +0.000 N 
ATOM      4  C   UNL     1       1.442   8.433  20.389  0.00  0.00    +0.000 A 
ATOM      5  C   UNL     1       1.185   8.419  21.744  0.00  0.00    +0.000 A 
ATOM      6  C   UNL     1       0.764   9.617  22.280  0.00  0.00    +0.000 A 
ATOM      7  N   UNL     1       0.550  10.730  21.574  0.00  0.00    +0.000 NA
ATOM      8  C   UNL     1       0.798  10.604  20.278  0.00  0.00    +0.000 A 
ATOM      9  N   UNL     1       1.236   9.524  19.644  0.00  0.00    +0.000 NA
ATOM     10  H   UNL     1       1.966   6.415  20.338  0.00  0.00    +0.000 HD
ENDROOT
BRANCH   2  11
ATOM     11  C   UNL     1       3.047   5.965  18.017  0.00  0.00    +0.000 A 
ATOM     12  C   UNL     1       2.219   4.842  18.212  0.00  0.00    +0.000 A 
ATOM     13  C   UNL     1       2.679   3.564  17.914  0.00  0.00    +0.000 A 
ATOM     14 CL   UNL     1       1.664   2.204  18.183  0.00  0.00    +0.000 Cl
ATOM     15  C   UNL     1       3.966   3.384  17.418  0.00  0.00    +0.000 A 
ATOM     16  C   UNL     1       4.788   4.495  17.199  0.00  0.00    +0.000 A 
ATOM     17  C   UNL     1       4.331   5.789  17.491  0.00  0.00    +0.000 A 
ATOM     18 CL   UNL     1       5.426   7.093  17.212  0.00  0.00    +0.000 Cl
ENDBRANCH   2  11
BRANCH   6  19
ATOM     19  O   UNL     1       0.553   9.758  23.621  0.00  0.00    +0.000 OA
ATOM     20  H   UNL     1       0.707   8.907  24.056  0.00  0.00    +0.000 HD
ENDBRANCH   6  19
BRANCH   8  21
ATOM     21  O   UNL     1       0.584  11.726  19.541  0.00  0.00    +0.000 OA
ATOM     22  H   UNL     1       0.701  11.349  18.655  0.00  0.00    +0.000 HD
ENDBRANCH   8  21
TORSDOF 3
ENDMDL
MODEL 5
REMARK VINA RESULT:      -7.0      4.446      6.032
REMARK  Name = 
REMARK  3 active torsions:
REMARK  status: ('A' for Active; 'I' for Inactive)
REMARK    1  A    between atoms: C_2  and  C_12
REMARK    2  A    between atoms: C_6  and  O_7
REMARK    3  A    between atoms: C_9  and  O_10
REMARK                            x       y       z     vdW  Elec       q    Type
REMARK                         _______ _______ _______ _____ _____    ______ ____
ROOT
ATOM      1  O   UNL     1       1.365   6.120  20.871  0.00  0.00    +0.000 OA
ATOM      2  C   UNL     1       1.941   6.983  20.218  0.00  0.00    +0.000 C 
ATOM      3  N   UNL     1       3.103   6.824  19.486  0.00  0.00    +0.000 N 
ATOM      4  C   UNL     1       3.757   5.582  19.350  0.00  0.00    +0.000 A 
ATOM      5  C   UNL     1       5.045   5.569  18.857  0.00  0.00    +0.000 A 
ATOM      6  C   UNL     1       5.655   4.334  18.826  0.00  0.00    +0.000 A 
ATOM      7  N   UNL     1       5.069   3.190  19.187  0.00  0.00    +0.000 NA
ATOM      8  C   UNL     1       3.821   3.331  19.609  0.00  0.00    +0.000 A 
ATOM      9  N   UNL     1       3.131   4.459  19.718  0.00  0.00    +0.000 NA
ATOM     10  H   UNL     1       3.535   7.637  19.072  0.00  0.00    +0.000 HD
ENDROOT
BRANCH   2  11
ATOM     11  C   UNL     1       1.368   8.348  20.320  0.00  0.00    +0.000 A 
ATOM     12  C   UNL     1       0.780   8.663  21.561  0.00  0.00    +0.000 A 
ATOM     13  C   UNL     1       0.083   9.853  21.732  0.00  0.00    +0.000 A 
ATOM     14 CL   UNL     1      -0.648  10.208  23.246  0.00  0.00    +0.000 Cl
ATOM     15  C   UNL     1      -0.040  10.747  20.673  0.00  0.00    +0.000 A 
ATOM     16  C   UNL     1       0.559  10.454  19.444  0.00  0.00    +0.000 A 
ATOM     17  C   UNL     1       1.270   9.258  19.263  0.00  0.00    +0.000 A 
ATOM     18 CL   UNL     1       1.951   8.974  17.703  0.00  0.00    +0.000 Cl
ENDBRANCH   2  11
BRANCH   6  19
ATOM     19  O   UNL     1       6.956   4.196  18.435  0.00  0.00    +0.000 OA
ATOM     20  H   UNL     1       6.983   3.720  17.593  0.00  0.00    +0.000 HD
ENDBRANCH   6  19
BRANCH   8  21
ATOM     21  O   UNL     1       3.206   2.176  19.979  0.00  0.00    +0.000 OA
ATOM     22  H   UNL     1       2.475   2.553  20.493  0.00  0.00    +0.000 HD
ENDBRANCH   8  21
TORSDOF 3
ENDMDL
MODEL 6
REMARK VINA RESULT:      -7.0      5.492      8.431
REMARK  Name = 
REMARK  3 active torsions:
REMARK  status: ('A' for Active; 'I' for Inactive)
REMARK    1  A    between atoms: C_2  and  C_12
REMARK    2  A    between atoms: C_6  and  O_7
REMARK    3  A    between atoms: C_9  and  O_10
REMARK                            x       y       z     vdW  Elec       q    Type
REMARK                         _______ _______ _______ _____ _____    ______ ____
ROOT
ATOM      1  O   UNL     1       2.571   7.639  18.570  0.00  0.00    +0.000 OA
ATOM      2  C   UNL     1       2.438   6.956  19.579  0.00  0.00    +0.000 C 
ATOM      3  N   UNL     1       1.761   7.312  20.731  0.00  0.00    +0.000 N 
ATOM      4  C   UNL     1       1.064   8.531  20.861  0.00  0.00    +0.000 A 
ATOM      5  C   UNL     1       0.670   8.930  22.122  0.00  0.00    +0.000 A 
ATOM      6  C   UNL     1       0.066  10.168  22.190  0.00  0.00    +0.000 A 
ATOM      7  N   UNL     1      -0.193  10.944  21.135  0.00  0.00    +0.000 NA
ATOM      8  C   UNL     1       0.202  10.433  19.978  0.00  0.00    +0.000 A 
ATOM      9  N   UNL     1       0.819   9.276  19.778  0.00  0.00    +0.000 NA
ATOM     10  H   UNL     1       1.808   6.702  21.534  0.00  0.00    +0.000 HD
ENDROOT
BRANCH   2  11
ATOM     11  C   UNL     1       3.169   5.665  19.576  0.00  0.00    +0.000 A 
ATOM     12  C   UNL     1       4.485   5.719  19.077  0.00  0.00    +0.000 A 
ATOM     13  C   UNL     1       5.218   4.553  18.889  0.00  0.00    +0.000 A 
ATOM     14 CL   UNL     1       6.814   4.637  18.255  0.00  0.00    +0.000 Cl
ATOM     15  C   UNL     1       4.654   3.318  19.192  0.00  0.00    +0.000 A 
ATOM     16  C   UNL     1       3.356   3.256  19.709  0.00  0.00    +0.000 A 
ATOM     17  C   UNL     1       2.610   4.427  19.909  0.00  0.00    +0.000 A 
ATOM     18 CL   UNL     1       1.009   4.246  20.527  0.00  0.00    +0.000 Cl
ENDBRANCH   2  11
BRANCH   6  19
ATOM     19  O   UNL     1      -0.298  10.712  23.387  0.00  0.00    +0.000 OA
ATOM     20  H   UNL     1       0.408  11.299  23.695  0.00  0.00    +0.000 HD
ENDBRANCH   6  19
BRANCH   8  21
ATOM     21  O   UNL     1      -0.055  11.207  18.890  0.00  0.00    +0.000 OA
ATOM     22  H   UNL     1       0.846  11.282  18.542  0.00  0.00    +0.000 HD
ENDBRANCH   8  21
TORSDOF 3
ENDMDL
MODEL 7
REMARK VINA RESULT:      -6.9      3.788      6.987
REMARK  Name = 
REMARK  3 active torsions:
REMARK  status: ('A' for Active; 'I' for Inactive)
REMARK    1  A    between atoms: C_2  and  C_12
REMARK    2  A    between atoms: C_6  and  O_7
REMARK    3  A    between atoms: C_9  and  O_10
REMARK                            x       y       z     vdW  Elec       q    Type
REMARK                         _______ _______ _______ _____ _____    ______ ____
ROOT
ATOM      1  O   UNL     1       4.099   6.378  17.479  0.00  0.00    +0.000 OA
ATOM      2  C   UNL     1       4.504   5.245  17.241  0.00  0.00    +0.000 C 
ATOM      3  N   UNL     1       4.270   4.112  17.997  0.00  0.00    +0.000 N 
ATOM      4  C   UNL     1       3.454   4.115  19.147  0.00  0.00    +0.000 A 
ATOM      5  C   UNL     1       3.509   3.027  19.994  0.00  0.00    +0.000 A 
ATOM      6  C   UNL     1       2.749   3.129  21.140  0.00  0.00    +0.000 A 
ATOM      7  N   UNL     1       1.956   4.162  21.433  0.00  0.00    +0.000 NA
ATOM      8  C   UNL     1       1.963   5.125  20.524  0.00  0.00    +0.000 A 
ATOM      9  N   UNL     1       2.668   5.167  19.401  0.00  0.00    +0.000 NA
ATOM     10  H   UNL     1       4.743   3.254  17.751  0.00  0.00    +0.000 HD
ENDROOT
BRANCH   2  11
ATOM     11  C   UNL     1       5.413   5.125  16.076  0.00  0.00    +0.000 A 
ATOM     12  C   UNL     1       4.861   4.499  14.941  0.00  0.00    +0.000 A 
ATOM     13  C   UNL     1       5.656   4.199  13.842  0.00  0.00    +0.000 A 
ATOM     14 CL   UNL     1       4.969   3.411  12.477  0.00  0.00    +0.000 Cl
ATOM     15  C   UNL     1       7.010   4.515  13.853  0.00  0.00    +0.000 A 
ATOM     16  C   UNL     1       7.564   5.158  14.965  0.00  0.00    +0.000 A 
ATOM     17  C   UNL     1       6.769   5.471  16.078  0.00  0.00    +0.000 A 
ATOM     18 CL   UNL     1       7.548   6.240  17.412  0.00  0.00    +0.000 Cl
ENDBRANCH   2  11
BRANCH   6  19
ATOM     19  O   UNL     1       2.778   2.157  22.097  0.00  0.00    +0.000 OA
ATOM     20  H   UNL     1       3.069   2.546  22.934  0.00  0.00    +0.000 HD
ENDBRANCH   6  19
BRANCH   8  21
ATOM     21  O   UNL     1       1.159   6.185  20.803  0.00  0.00    +0.000 OA
ATOM     22  H   UNL     1       0.423   5.711  21.220  0.00  0.00    +0.000 HD
ENDBRANCH   8  21
TORSDOF 3
ENDMDL
MODEL 8
REMARK VINA RESULT:      -6.8      4.113      7.143
REMARK  Name = 
REMARK  3 active torsions:
REMARK  status: ('A' for Active; 'I' for Inactive)
REMARK    1  A    between atoms: C_2  and  C_12
REMARK    2  A    between atoms: C_6  and  O_7
REMARK    3  A    between atoms: C_9  and  O_10
REMARK                            x       y       z     vdW  Elec       q    Type
REMARK                         _______ _______ _______ _____ _____    ______ ____
ROOT
ATOM      1  O   UNL     1       3.822   5.645  19.177  0.00  0.00    +0.000 OA
ATOM      2  C   UNL     1       4.191   6.279  18.194  0.00  0.00    +0.000 C 
ATOM      3  N   UNL     1       3.648   7.460  17.724  0.00  0.00    +0.000 N 
ATOM      4  C   UNL     1       2.601   8.135  18.384  0.00  0.00    +0.000 A 
ATOM      5  C   UNL     1       1.932   9.133  17.705  0.00  0.00    +0.000 A 
ATOM      6  C   UNL     1       0.868   9.696  18.376  0.00  0.00    +0.000 A 
ATOM      7  N   UNL     1       0.499   9.374  19.618  0.00  0.00    +0.000 NA
ATOM      8  C   UNL     1       1.242   8.429  20.175  0.00  0.00    +0.000 A 
ATOM      9  N   UNL     1       2.267   7.786  19.631  0.00  0.00    +0.000 NA
ATOM     10  H   UNL     1       3.975   7.833  16.845  0.00  0.00    +0.000 HD
ENDROOT
BRANCH   2  11
ATOM     11  C   UNL     1       5.262   5.641  17.391  0.00  0.00    +0.000 A 
ATOM     12  C   UNL     1       4.898   5.282  16.078  0.00  0.00    +0.000 A 
ATOM     13  C   UNL     1       5.768   4.548  15.279  0.00  0.00    +0.000 A 
ATOM     14 CL   UNL     1       5.296   4.098  13.688  0.00  0.00    +0.000 Cl
ATOM     15  C   UNL     1       7.009   4.160  15.772  0.00  0.00    +0.000 A 
ATOM     16  C   UNL     1       7.389   4.531  17.066  0.00  0.00    +0.000 A 
ATOM     17  C   UNL     1       6.522   5.277  17.879  0.00  0.00    +0.000 A 
ATOM     18 CL   UNL     1       7.069   5.664  19.469  0.00  0.00    +0.000 Cl
ENDBRANCH   2  11
BRANCH   6  19
ATOM     19  O   UNL     1       0.075  10.636  17.783  0.00  0.00    +0.000 OA
ATOM     20  H   UNL     1      -0.816  10.579  18.157  0.00  0.00    +0.000 HD
ENDBRANCH   6  19
BRANCH   8  21
ATOM     21  O   UNL     1       0.884   8.089  21.442  0.00  0.00    +0.000 OA
ATOM     22  H   UNL     1       1.502   7.355  21.582  0.00  0.00    +0.000 HD
ENDBRANCH   8  21
TORSDOF 3
ENDMDL
MODEL 9
REMARK VINA RESULT:      -6.8      5.357      8.273
REMARK  Name = 
REMARK  3 active torsions:
REMARK  status: ('A' for Active; 'I' for Inactive)
REMARK    1  A    between atoms: C_2  and  C_12
REMARK    2  A    between atoms: C_6  and  O_7
REMARK    3  A    between atoms: C_9  and  O_10
REMARK                            x       y       z     vdW  Elec       q    Type
REMARK                         _______ _______ _______ _____ _____    ______ ____
ROOT
ATOM      1  O   UNL     1       1.801   5.801  20.694  0.00  0.00    +0.000 OA
ATOM      2  C   UNL     1       2.399   6.369  19.787  0.00  0.00    +0.000 C 
ATOM      3  N   UNL     1       2.219   7.676  19.374  0.00  0.00    +0.000 N 
ATOM      4  C   UNL     1       1.330   8.564  20.015  0.00  0.00    +0.000 A 
ATOM      5  C   UNL     1       0.998   9.738  19.371  0.00  0.00    +0.000 A 
ATOM      6  C   UNL     1       0.064  10.522  20.014  0.00  0.00    +0.000 A 
ATOM      7  N   UNL     1      -0.475  10.240  21.202  0.00  0.00    +0.000 NA
ATOM      8  C   UNL     1      -0.048   9.103  21.733  0.00  0.00    +0.000 A 
ATOM      9  N   UNL     1       0.818   8.245  21.208  0.00  0.00    +0.000 NA
ATOM     10  H   UNL     1       2.701   7.998  18.548  0.00  0.00    +0.000 HD
ENDROOT
BRANCH   2  11
ATOM     11  C   UNL     1       3.331   5.519  19.007  0.00  0.00    +0.000 A 
ATOM     12  C   UNL     1       4.700   5.728  19.269  0.00  0.00    +0.000 A 
ATOM     13  C   UNL     1       5.671   5.097  18.500  0.00  0.00    +0.000 A 
ATOM     14 CL   UNL     1       7.336   5.385  18.819  0.00  0.00    +0.000 Cl
ATOM     15  C   UNL     1       5.298   4.252  17.461  0.00  0.00    +0.000 A 
ATOM     16  C   UNL     1       3.942   4.019  17.208  0.00  0.00    +0.000 A 
ATOM     17  C   UNL     1       2.954   4.646  17.981  0.00  0.00    +0.000 A 
ATOM     18 CL   UNL     1       1.309   4.317  17.576  0.00  0.00    +0.000 Cl
ENDBRANCH   2  11
BRANCH   6  19
ATOM     19  O   UNL     1      -0.410  11.669  19.444  0.00  0.00    +0.000 OA
ATOM     20  H   UNL     1      -1.355  11.750  19.635  0.00  0.00    +0.000 HD
ENDBRANCH   6  19
BRANCH   8  21
ATOM     21  O   UNL     1      -0.582   8.798  22.945  0.00  0.00    +0.000 OA
ATOM     22  H   UNL     1       0.142   9.107  23.511  0.00  0.00    +0.000 HD
ENDBRANCH   8  21
TORSDOF 3
ENDMDL
