MODEL 1
REMARK VINA RESULT:      -7.6      0.000      0.000
REMARK  Name = 
REMARK  9 active torsions:
REMARK  status: ('A' for Active; 'I' for Inactive)
REMARK    1  A    between atoms: C_1  and  O_2
REMARK    2  A    between atoms: O_2  and  C_3
REMARK    3  A    between atoms: C_7  and  C_8
REMARK    4  A    between atoms: C_8  and  N_9
REMARK    5  A    between atoms: C_13  and  C_15
REMARK    6  A    between atoms: C_17  and  S_18
REMARK    7  A    between atoms: S_18  and  N_19
REMARK    8  A    between atoms: C_24  and  O_25
REMARK    9  A    between atoms: O_25  and  C_26
REMARK                            x       y       z     vdW  Elec       q    Type
REMARK                         _______ _______ _______ _____ _____    ______ ____
ROOT
ATOM      1  N   UNL     1       0.972  10.281  18.648  0.00  0.00    +0.000 NA
ATOM      2  C   UNL     1       1.281   9.285  17.608  0.00  0.00    +0.000 C 
ATOM      3  C   UNL     1       2.205   8.141  18.052  0.00  0.00    +0.000 C 
ATOM      4  N   UNL     1       1.880   7.497  19.334  0.00  0.00    +0.000 N 
ATOM      5  C   UNL     1       2.454   6.277  19.794  0.00  0.00    +0.000 C 
ATOM      6  O   UNL     1       2.328   5.909  20.961  0.00  0.00    +0.000 OA
ATOM      7  C   UNL     1       1.331   8.389  20.364  0.00  0.00    +0.000 C 
ATOM      8  C   UNL     1       0.454   9.545  19.825  0.00  0.00    +0.000 C 
ENDROOT
BRANCH   5   9
ATOM      9  C   UNL     1       3.265   5.416  18.873  0.00  0.00    +0.000 A 
ATOM     10  C   UNL     1       4.663   5.496  19.006  0.00  0.00    +0.000 A 
ATOM     11  C   UNL     1       5.522   4.876  18.101  0.00  0.00    +0.000 A 
ATOM     12  C   UNL     1       5.028   3.986  17.163  0.00  0.00    +0.000 A 
ATOM     13  C   UNL     1       3.654   3.751  17.135  0.00  0.00    +0.000 A 
ATOM     14  C   UNL     1       2.758   4.480  17.954  0.00  0.00    +0.000 A 
BRANCH  11  15
ATOM     15  S   UNL     1       7.206   5.414  18.074  0.00  0.00    +0.000 S 
ATOM     16  O   UNL     1       7.307   6.621  17.290  0.00  0.00    +0.000 OA
ATOM     17  O   UNL     1       7.733   5.312  19.413  0.00  0.00    +0.000 OA
BRANCH  15  18
ATOM     18  N   UNL     1       7.951   4.209  17.182  0.00  0.00    +0.000 NA
ATOM     19  H   UNL     1       7.329   3.907  16.430  0.00  0.00    +0.000 HD
ATOM     20  H   UNL     1       8.860   4.535  16.851  0.00  0.00    +0.000 HD
ENDBRANCH  15  18
ENDBRANCH  11  15
BRANCH  14  21
ATOM     21  O   UNL     1       1.466   4.074  17.757  0.00  0.00    +0.000 OA
ATOM     22  C   UNL     1       0.988   2.968  18.506  0.00  0.00    +0.000 C 
ENDBRANCH  14  21
ENDBRANCH   5   9
BRANCH   1  23
ATOM     23  C   UNL     1       2.105  11.162  19.002  0.00  0.00    +0.000 C 
BRANCH  23  28
ATOM     24  C   UNL     1       2.807  14.846  18.162  0.00  0.00    +0.000 A 
ATOM     25  C   UNL     1       1.666  15.481  18.646  0.00  0.00    +0.000 A 
ATOM     26  C   UNL     1       0.641  14.723  19.217  0.00  0.00    +0.000 A 
ATOM     27  C   UNL     1       0.754  13.332  19.320  0.00  0.00    +0.000 A 
ATOM     28  C   UNL     1       1.888  12.665  18.838  0.00  0.00    +0.000 A 
ATOM     29  C   UNL     1       2.915  13.451  18.273  0.00  0.00    +0.000 A 
BRANCH  24  31
ATOM     30  C   UNL     1       5.166  14.907  17.840  0.00  0.00    +0.000 C 
ATOM     31  O   UNL     1       3.881  15.468  17.584  0.00  0.00    +0.000 OA
ENDBRANCH  24  31
ENDBRANCH  23  28
ENDBRANCH   1  23
TORSDOF 7
ENDMDL
MODEL 2
REMARK VINA RESULT:      -7.4      1.212      1.979
REMARK  Name = 
REMARK  9 active torsions:
REMARK  status: ('A' for Active; 'I' for Inactive)
REMARK    1  A    between atoms: C_1  and  O_2
REMARK    2  A    between atoms: O_2  and  C_3
REMARK    3  A    between atoms: C_7  and  C_8
REMARK    4  A    between atoms: C_8  and  N_9
REMARK    5  A    between atoms: C_13  and  C_15
REMARK    6  A    between atoms: C_17  and  S_18
REMARK    7  A    between atoms: S_18  and  N_19
REMARK    8  A    between atoms: C_24  and  O_25
REMARK    9  A    between atoms: O_25  and  C_26
REMARK                            x       y       z     vdW  Elec       q    Type
REMARK                         _______ _______ _______ _____ _____    ______ ____
ROOT
ATOM      1  N   UNL     1       0.974  10.272  18.701  0.00  0.00    +0.000 NA
ATOM      2  C   UNL     1       1.225   9.304  17.620  0.00  0.00    +0.000 C 
ATOM      3  C   UNL     1       2.190   8.164  17.974  0.00  0.00    +0.000 C 
ATOM      4  N   UNL     1       1.961   7.487  19.260  0.00  0.00    +0.000 N 
ATOM      5  C   UNL     1       2.580   6.265  19.653  0.00  0.00    +0.000 C 
ATOM      6  O   UNL     1       2.538   5.871  20.817  0.00  0.00    +0.000 OA
ATOM      7  C   UNL     1       1.472   8.349  20.345  0.00  0.00    +0.000 C 
ATOM      8  C   UNL     1       0.546   9.504  19.893  0.00  0.00    +0.000 C 
ENDROOT
BRANCH   5   9
ATOM      9  C   UNL     1       3.338   5.436  18.660  0.00  0.00    +0.000 A 
ATOM     10  C   UNL     1       4.739   5.559  18.677  0.00  0.00    +0.000 A 
ATOM     11  C   UNL     1       5.538   4.972  17.699  0.00  0.00    +0.000 A 
ATOM     12  C   UNL     1       4.995   4.073  16.797  0.00  0.00    +0.000 A 
ATOM     13  C   UNL     1       3.631   3.796  16.880  0.00  0.00    +0.000 A 
ATOM     14  C   UNL     1       2.785   4.491  17.777  0.00  0.00    +0.000 A 
BRANCH  11  15
ATOM     15  S   UNL     1       7.197   5.562  17.538  0.00  0.00    +0.000 S 
ATOM     16  O   UNL     1       7.391   6.078  16.205  0.00  0.00    +0.000 OA
ATOM     17  O   UNL     1       7.522   6.322  18.719  0.00  0.00    +0.000 OA
BRANCH  15  18
ATOM     18  N   UNL     1       8.088   4.148  17.628  0.00  0.00    +0.000 NA
ATOM     19  H   UNL     1       9.073   4.352  17.449  0.00  0.00    +0.000 HD
ATOM     20  H   UNL     1       7.924   3.691  18.526  0.00  0.00    +0.000 HD
ENDBRANCH  15  18
ENDBRANCH  11  15
BRANCH  14  21
ATOM     21  O   UNL     1       1.493   4.047  17.684  0.00  0.00    +0.000 OA
ATOM     22  C   UNL     1       1.094   2.969  18.514  0.00  0.00    +0.000 C 
ENDBRANCH  14  21
ENDBRANCH   5   9
BRANCH   1  23
ATOM     23  C   UNL     1       2.117  11.162  18.998  0.00  0.00    +0.000 C 
BRANCH  23  28
ATOM     24  C   UNL     1       0.247  14.498  19.370  0.00  0.00    +0.000 A 
ATOM     25  C   UNL     1       1.164  15.409  18.852  0.00  0.00    +0.000 A 
ATOM     26  C   UNL     1       2.411  14.962  18.408  0.00  0.00    +0.000 A 
ATOM     27  C   UNL     1       2.744  13.603  18.468  0.00  0.00    +0.000 A 
ATOM     28  C   UNL     1       1.844  12.665  18.989  0.00  0.00    +0.000 A 
ATOM     29  C   UNL     1       0.587  13.137  19.422  0.00  0.00    +0.000 A 
BRANCH  24  31
ATOM     30  C   UNL     1      -1.792  13.720  20.324  0.00  0.00    +0.000 C 
ATOM     31  O   UNL     1      -1.004  14.802  19.834  0.00  0.00    +0.000 OA
ENDBRANCH  24  31
ENDBRANCH  23  28
ENDBRANCH   1  23
TORSDOF 7
ENDMDL
MODEL 3
REMARK VINA RESULT:      -7.2      1.515      2.052
REMARK  Name = 
REMARK  9 active torsions:
REMARK  status: ('A' for Active; 'I' for Inactive)
REMARK    1  A    between atoms: C_1  and  O_2
REMARK    2  A    between atoms: O_2  and  C_3
REMARK    3  A    between atoms: C_7  and  C_8
REMARK    4  A    between atoms: C_8  and  N_9
REMARK    5  A    between atoms: C_13  and  C_15
REMARK    6  A    between atoms: C_17  and  S_18
REMARK    7  A    between atoms: S_18  and  N_19
REMARK    8  A    between atoms: C_24  and  O_25
REMARK    9  A    between atoms: O_25  and  C_26
REMARK                            x       y       z     vdW  Elec       q    Type
REMARK                         _______ _______ _______ _____ _____    ______ ____
ROOT
ATOM      1  N   UNL     1       0.941  10.195  18.747  0.00  0.00    +0.000 NA
ATOM      2  C   UNL     1       1.178   9.230  17.661  0.00  0.00    +0.000 C 
ATOM      3  C   UNL     1       2.158   8.096  17.997  0.00  0.00    +0.000 C 
ATOM      4  N   UNL     1       1.957   7.416  19.286  0.00  0.00    +0.000 N 
ATOM      5  C   UNL     1       2.591   6.198  19.666  0.00  0.00    +0.000 C 
ATOM      6  O   UNL     1       2.573   5.803  20.830  0.00  0.00    +0.000 OA
ATOM      7  C   UNL     1       1.482   8.274  20.381  0.00  0.00    +0.000 C 
ATOM      8  C   UNL     1       0.540   9.423  19.946  0.00  0.00    +0.000 C 
ENDROOT
BRANCH   5   9
ATOM      9  C   UNL     1       3.337   5.375  18.659  0.00  0.00    +0.000 A 
ATOM     10  C   UNL     1       4.739   5.486  18.670  0.00  0.00    +0.000 A 
ATOM     11  C   UNL     1       5.528   4.904  17.680  0.00  0.00    +0.000 A 
ATOM     12  C   UNL     1       4.972   4.022  16.770  0.00  0.00    +0.000 A 
ATOM     13  C   UNL     1       3.606   3.756  16.857  0.00  0.00    +0.000 A 
ATOM     14  C   UNL     1       2.771   4.447  17.767  0.00  0.00    +0.000 A 
BRANCH  11  15
ATOM     15  S   UNL     1       7.191   5.481  17.519  0.00  0.00    +0.000 S 
ATOM     16  O   UNL     1       7.299   6.794  18.109  0.00  0.00    +0.000 OA
ATOM     17  O   UNL     1       8.079   4.399  17.866  0.00  0.00    +0.000 OA
BRANCH  15  18
ATOM     18  N   UNL     1       7.335   5.696  15.865  0.00  0.00    +0.000 NA
ATOM     19  H   UNL     1       8.237   5.336  15.550  0.00  0.00    +0.000 HD
ATOM     20  H   UNL     1       6.538   5.270  15.390  0.00  0.00    +0.000 HD
ENDBRANCH  15  18
ENDBRANCH  11  15
BRANCH  14  21
ATOM     21  O   UNL     1       1.475   4.015  17.675  0.00  0.00    +0.000 OA
ATOM     22  C   UNL     1       1.060   2.954  18.519  0.00  0.00    +0.000 C 
ENDBRANCH  14  21
ENDBRANCH   5   9
BRANCH   1  23
ATOM     23  C   UNL     1       2.083  11.092  19.024  0.00  0.00    +0.000 C 
BRANCH  23  28
ATOM     24  C   UNL     1       1.083  14.181  21.080  0.00  0.00    +0.000 A 
ATOM     25  C   UNL     1       0.960  15.161  20.098  0.00  0.00    +0.000 A 
ATOM     26  C   UNL     1       1.234  14.845  18.765  0.00  0.00    +0.000 A 
ATOM     27  C   UNL     1       1.618  13.548  18.404  0.00  0.00    +0.000 A 
ATOM     28  C   UNL     1       1.754  12.543  19.370  0.00  0.00    +0.000 A 
ATOM     29  C   UNL     1       1.464  12.882  20.708  0.00  0.00    +0.000 A 
BRANCH  24  31
ATOM     30  C   UNL     1      -0.193  15.269  22.771  0.00  0.00    +0.000 C 
ATOM     31  O   UNL     1       0.843  14.357  22.416  0.00  0.00    +0.000 OA
ENDBRANCH  24  31
ENDBRANCH  23  28
ENDBRANCH   1  23
TORSDOF 7
ENDMDL
MODEL 4
REMARK VINA RESULT:      -7.0      1.516      1.871
REMARK  Name = 
REMARK  9 active torsions:
REMARK  status: ('A' for Active; 'I' for Inactive)
REMARK    1  A    between atoms: C_1  and  O_2
REMARK    2  A    between atoms: O_2  and  C_3
REMARK    3  A    between atoms: C_7  and  C_8
REMARK    4  A    between atoms: C_8  and  N_9
REMARK    5  A    between atoms: C_13  and  C_15
REMARK    6  A    between atoms: C_17  and  S_18
REMARK    7  A    between atoms: S_18  and  N_19
REMARK    8  A    between atoms: C_24  and  O_25
REMARK    9  A    between atoms: O_25  and  C_26
REMARK                            x       y       z     vdW  Elec       q    Type
REMARK                         _______ _______ _______ _____ _____    ______ ____
ROOT
ATOM      1  N   UNL     1       0.958  10.423  18.819  0.00  0.00    +0.000 NA
ATOM      2  C   UNL     1       1.277   9.443  17.767  0.00  0.00    +0.000 C 
ATOM      3  C   UNL     1       2.193   8.290  18.205  0.00  0.00    +0.000 C 
ATOM      4  N   UNL     1       1.852   7.627  19.473  0.00  0.00    +0.000 N 
ATOM      5  C   UNL     1       2.418   6.399  19.922  0.00  0.00    +0.000 C 
ATOM      6  O   UNL     1       2.277   6.014  21.081  0.00  0.00    +0.000 OA
ATOM      7  C   UNL     1       1.292   8.505  20.510  0.00  0.00    +0.000 C 
ATOM      8  C   UNL     1       0.424   9.671  19.978  0.00  0.00    +0.000 C 
ENDROOT
BRANCH   5   9
ATOM      9  C   UNL     1       3.239   5.550  18.997  0.00  0.00    +0.000 A 
ATOM     10  C   UNL     1       4.634   5.610  19.162  0.00  0.00    +0.000 A 
ATOM     11  C   UNL     1       5.505   5.001  18.261  0.00  0.00    +0.000 A 
ATOM     12  C   UNL     1       5.020   4.139  17.291  0.00  0.00    +0.000 A 
ATOM     13  C   UNL     1       3.644   3.923  17.228  0.00  0.00    +0.000 A 
ATOM     14  C   UNL     1       2.740   4.644  18.045  0.00  0.00    +0.000 A 
BRANCH  11  15
ATOM     15  S   UNL     1       7.195   5.517  18.284  0.00  0.00    +0.000 S 
ATOM     16  O   UNL     1       8.015   4.487  17.692  0.00  0.00    +0.000 OA
ATOM     17  O   UNL     1       7.252   6.894  17.858  0.00  0.00    +0.000 OA
BRANCH  15  18
ATOM     18  N   UNL     1       7.547   5.515  19.920  0.00  0.00    +0.000 NA
ATOM     19  H   UNL     1       7.260   6.403  20.333  0.00  0.00    +0.000 HD
ATOM     20  H   UNL     1       7.119   4.702  20.365  0.00  0.00    +0.000 HD
ENDBRANCH  15  18
ENDBRANCH  11  15
BRANCH  14  21
ATOM     21  O   UNL     1       1.447   4.259  17.810  0.00  0.00    +0.000 OA
ATOM     22  C   UNL     1       0.949   3.125  18.500  0.00  0.00    +0.000 C 
ENDBRANCH  14  21
ENDBRANCH   5   9
BRANCH   1  23
ATOM     23  C   UNL     1       2.088  11.297  19.200  0.00  0.00    +0.000 C 
BRANCH  23  28
ATOM     24  C   UNL     1       0.452  14.772  19.307  0.00  0.00    +0.000 A 
ATOM     25  C   UNL     1       1.145  15.392  20.344  0.00  0.00    +0.000 A 
ATOM     26  C   UNL     1       2.125  14.683  21.044  0.00  0.00    +0.000 A 
ATOM     27  C   UNL     1       2.426  13.358  20.705  0.00  0.00    +0.000 A 
ATOM     28  C   UNL     1       1.742  12.708  19.670  0.00  0.00    +0.000 A 
ATOM     29  C   UNL     1       0.764  13.445  18.971  0.00  0.00    +0.000 A 
BRANCH  24  31
ATOM     30  C   UNL     1      -0.404  16.749  18.293  0.00  0.00    +0.000 C 
ATOM     31  O   UNL     1      -0.525  15.351  18.543  0.00  0.00    +0.000 OA
ENDBRANCH  24  31
ENDBRANCH  23  28
ENDBRANCH   1  23
TORSDOF 7
ENDMDL
MODEL 5
REMARK VINA RESULT:      -7.0      3.875      9.425
REMARK  Name = 
REMARK  9 active torsions:
REMARK  status: ('A' for Active; 'I' for Inactive)
REMARK    1  A    between atoms: C_1  and  O_2
REMARK    2  A    between atoms: O_2  and  C_3
REMARK    3  A    between atoms: C_7  and  C_8
REMARK    4  A    between atoms: C_8  and  N_9
REMARK    5  A    between atoms: C_13  and  C_15
REMARK    6  A    between atoms: C_17  and  S_18
REMARK    7  A    between atoms: S_18  and  N_19
REMARK    8  A    between atoms: C_24  and  O_25
REMARK    9  A    between atoms: O_25  and  C_26
REMARK                            x       y       z     vdW  Elec       q    Type
REMARK                         _______ _______ _______ _____ _____    ______ ____
ROOT
ATOM      1  N   UNL     1       3.273   6.684  18.150  0.00  0.00    +0.000 NA
ATOM      2  C   UNL     1       3.117   8.065  17.665  0.00  0.00    +0.000 C 
ATOM      3  C   UNL     1       1.870   8.801  18.177  0.00  0.00    +0.000 C 
ATOM      4  N   UNL     1       1.597   8.703  19.619  0.00  0.00    +0.000 N 
ATOM      5  C   UNL     1       0.648   9.503  20.320  0.00  0.00    +0.000 C 
ATOM      6  O   UNL     1       0.293   9.222  21.463  0.00  0.00    +0.000 OA
ATOM      7  C   UNL     1       1.953   7.419  20.240  0.00  0.00    +0.000 C 
ATOM      8  C   UNL     1       3.192   6.721  19.629  0.00  0.00    +0.000 C 
ENDROOT
BRANCH   5   9
ATOM      9  C   UNL     1       0.022  10.698  19.665  0.00  0.00    +0.000 A 
ATOM     10  C   UNL     1      -1.247  10.508  19.092  0.00  0.00    +0.000 A 
ATOM     11  C   UNL     1      -1.855  11.491  18.314  0.00  0.00    +0.000 A 
ATOM     12  C   UNL     1      -1.321  12.768  18.255  0.00  0.00    +0.000 A 
ATOM     13  C   UNL     1      -0.153  13.028  18.970  0.00  0.00    +0.000 A 
ATOM     14  C   UNL     1       0.549  12.002  19.648  0.00  0.00    +0.000 A 
BRANCH  11  15
ATOM     15  S   UNL     1      -3.196  10.997  17.273  0.00  0.00    +0.000 S 
ATOM     16  O   UNL     1      -3.293   9.557  17.275  0.00  0.00    +0.000 OA
ATOM     17  O   UNL     1      -4.323  11.851  17.554  0.00  0.00    +0.000 OA
BRANCH  15  18
ATOM     18  N   UNL     1      -2.645  11.428  15.753  0.00  0.00    +0.000 NA
ATOM     19  H   UNL     1      -3.192  10.943  15.040  0.00  0.00    +0.000 HD
ATOM     20  H   UNL     1      -2.659  12.444  15.655  0.00  0.00    +0.000 HD
ENDBRANCH  15  18
ENDBRANCH  11  15
BRANCH  14  21
ATOM     21  O   UNL     1       1.658  12.495  20.280  0.00  0.00    +0.000 OA
ATOM     22  C   UNL     1       1.517  13.666  21.068  0.00  0.00    +0.000 C 
ENDBRANCH  14  21
ENDBRANCH   5   9
BRANCH   1  23
ATOM     23  C   UNL     1       2.311   5.723  17.568  0.00  0.00    +0.000 C 
BRANCH  23  28
ATOM     24  C   UNL     1       1.953   2.460  19.566  0.00  0.00    +0.000 A 
ATOM     25  C   UNL     1       2.832   1.609  18.900  0.00  0.00    +0.000 A 
ATOM     26  C   UNL     1       3.524   2.068  17.777  0.00  0.00    +0.000 A 
ATOM     27  C   UNL     1       3.352   3.381  17.320  0.00  0.00    +0.000 A 
ATOM     28  C   UNL     1       2.472   4.257  17.967  0.00  0.00    +0.000 A 
ATOM     29  C   UNL     1       1.790   3.775  19.104  0.00  0.00    +0.000 A 
BRANCH  24  31
ATOM     30  C   UNL     1       1.681   2.644  21.924  0.00  0.00    +0.000 C 
ATOM     31  O   UNL     1       1.218   2.138  20.675  0.00  0.00    +0.000 OA
ENDBRANCH  24  31
ENDBRANCH  23  28
ENDBRANCH   1  23
TORSDOF 7
ENDMDL
MODEL 6
REMARK VINA RESULT:      -6.9      1.065      1.119
REMARK  Name = 
REMARK  9 active torsions:
REMARK  status: ('A' for Active; 'I' for Inactive)
REMARK    1  A    between atoms: C_1  and  O_2
REMARK    2  A    between atoms: O_2  and  C_3
REMARK    3  A    between atoms: C_7  and  C_8
REMARK    4  A    between atoms: C_8  and  N_9
REMARK    5  A    between atoms: C_13  and  C_15
REMARK    6  A    between atoms: C_17  and  S_18
REMARK    7  A    between atoms: S_18  and  N_19
REMARK    8  A    between atoms: C_24  and  O_25
REMARK    9  A    between atoms: O_25  and  C_26
REMARK                            x       y       z     vdW  Elec       q    Type
REMARK                         _______ _______ _______ _____ _____    ______ ____
ROOT
ATOM      1  N   UNL     1       0.941  10.318  18.688  0.00  0.00    +0.000 NA
ATOM      2  C   UNL     1       1.072   9.333  17.601  0.00  0.00    +0.000 C 
ATOM      3  C   UNL     1       2.041   8.176  17.882  0.00  0.00    +0.000 C 
ATOM      4  N   UNL     1       1.914   7.518  19.192  0.00  0.00    +0.000 N 
ATOM      5  C   UNL     1       2.539   6.287  19.543  0.00  0.00    +0.000 C 
ATOM      6  O   UNL     1       2.594   5.906  20.711  0.00  0.00    +0.000 OA
ATOM      7  C   UNL     1       1.543   8.402  20.305  0.00  0.00    +0.000 C 
ATOM      8  C   UNL     1       0.605   9.573  19.923  0.00  0.00    +0.000 C 
ENDROOT
BRANCH   5   9
ATOM      9  C   UNL     1       3.187   5.430  18.497  0.00  0.00    +0.000 A 
ATOM     10  C   UNL     1       4.565   5.621  18.293  0.00  0.00    +0.000 A 
ATOM     11  C   UNL     1       5.242   5.009  17.240  0.00  0.00    +0.000 A 
ATOM     12  C   UNL     1       4.623   4.026  16.486  0.00  0.00    +0.000 A 
ATOM     13  C   UNL     1       3.305   3.691  16.793  0.00  0.00    +0.000 A 
ATOM     14  C   UNL     1       2.564   4.403  17.766  0.00  0.00    +0.000 A 
BRANCH  11  15
ATOM     15  S   UNL     1       6.822   5.665  16.794  0.00  0.00    +0.000 S 
ATOM     16  O   UNL     1       6.826   7.090  17.019  0.00  0.00    +0.000 OA
ATOM     17  O   UNL     1       7.839   4.792  17.328  0.00  0.00    +0.000 OA
BRANCH  15  18
ATOM     18  N   UNL     1       6.841   5.451  15.134  0.00  0.00    +0.000 NA
ATOM     19  H   UNL     1       6.165   4.731  14.874  0.00  0.00    +0.000 HD
ATOM     20  H   UNL     1       6.683   6.345  14.668  0.00  0.00    +0.000 HD
ENDBRANCH  15  18
ENDBRANCH  11  15
BRANCH  14  21
ATOM     21  O   UNL     1       1.300   3.893  17.897  0.00  0.00    +0.000 OA
ATOM     22  C   UNL     1       1.100   2.824  18.808  0.00  0.00    +0.000 C 
ENDBRANCH  14  21
ENDBRANCH   5   9
BRANCH   1  23
ATOM     23  C   UNL     1       2.125  11.185  18.869  0.00  0.00    +0.000 C 
BRANCH  23  28
ATOM     24  C   UNL     1       2.026  15.026  18.953  0.00  0.00    +0.000 A 
ATOM     25  C   UNL     1       1.604  15.281  20.256  0.00  0.00    +0.000 A 
ATOM     26  C   UNL     1       1.313  14.216  21.111  0.00  0.00    +0.000 A 
ATOM     27  C   UNL     1       1.453  12.893  20.676  0.00  0.00    +0.000 A 
ATOM     28  C   UNL     1       1.870  12.606  19.370  0.00  0.00    +0.000 A 
ATOM     29  C   UNL     1       2.167  13.696  18.527  0.00  0.00    +0.000 A 
BRANCH  24  31
ATOM     30  C   UNL     1       3.673  16.489  18.049  0.00  0.00    +0.000 C 
ATOM     31  O   UNL     1       2.344  15.974  18.018  0.00  0.00    +0.000 OA
ENDBRANCH  24  31
ENDBRANCH  23  28
ENDBRANCH   1  23
TORSDOF 7
ENDMDL
MODEL 7
REMARK VINA RESULT:      -6.9      1.149      1.372
REMARK  Name = 
REMARK  9 active torsions:
REMARK  status: ('A' for Active; 'I' for Inactive)
REMARK    1  A    between atoms: C_1  and  O_2
REMARK    2  A    between atoms: O_2  and  C_3
REMARK    3  A    between atoms: C_7  and  C_8
REMARK    4  A    between atoms: C_8  and  N_9
REMARK    5  A    between atoms: C_13  and  C_15
REMARK    6  A    between atoms: C_17  and  S_18
REMARK    7  A    between atoms: S_18  and  N_19
REMARK    8  A    between atoms: C_24  and  O_25
REMARK    9  A    between atoms: O_25  and  C_26
REMARK                            x       y       z     vdW  Elec       q    Type
REMARK                         _______ _______ _______ _____ _____    ______ ____
ROOT
ATOM      1  N   UNL     1       0.861  10.318  18.633  0.00  0.00    +0.000 NA
ATOM      2  C   UNL     1       0.969   9.306  17.569  0.00  0.00    +0.000 C 
ATOM      3  C   UNL     1       1.969   8.173  17.844  0.00  0.00    +0.000 C 
ATOM      4  N   UNL     1       1.905   7.551  19.175  0.00  0.00    +0.000 N 
ATOM      5  C   UNL     1       2.567   6.341  19.535  0.00  0.00    +0.000 C 
ATOM      6  O   UNL     1       2.674   5.994  20.710  0.00  0.00    +0.000 OA
ATOM      7  C   UNL     1       1.561   8.459  20.278  0.00  0.00    +0.000 C 
ATOM      8  C   UNL     1       0.587   9.601  19.901  0.00  0.00    +0.000 C 
ENDROOT
BRANCH   5   9
ATOM      9  C   UNL     1       3.190   5.467  18.487  0.00  0.00    +0.000 A 
ATOM     10  C   UNL     1       4.564   5.652  18.250  0.00  0.00    +0.000 A 
ATOM     11  C   UNL     1       5.216   5.022  17.192  0.00  0.00    +0.000 A 
ATOM     12  C   UNL     1       4.578   4.029  16.467  0.00  0.00    +0.000 A 
ATOM     13  C   UNL     1       3.267   3.701  16.809  0.00  0.00    +0.000 A 
ATOM     14  C   UNL     1       2.549   4.430  17.786  0.00  0.00    +0.000 A 
BRANCH  11  15
ATOM     15  S   UNL     1       6.787   5.668  16.701  0.00  0.00    +0.000 S 
ATOM     16  O   UNL     1       7.816   5.100  17.538  0.00  0.00    +0.000 OA
ATOM     17  O   UNL     1       6.854   5.641  15.261  0.00  0.00    +0.000 OA
BRANCH  15  18
ATOM     18  N   UNL     1       6.663   7.279  17.138  0.00  0.00    +0.000 NA
ATOM     19  H   UNL     1       6.339   7.347  18.104  0.00  0.00    +0.000 HD
ATOM     20  H   UNL     1       7.552   7.752  16.972  0.00  0.00    +0.000 HD
ENDBRANCH  15  18
ENDBRANCH  11  15
BRANCH  14  21
ATOM     21  O   UNL     1       1.288   3.924  17.954  0.00  0.00    +0.000 OA
ATOM     22  C   UNL     1       1.150   2.663  18.587  0.00  0.00    +0.000 C 
ENDBRANCH  14  21
ENDBRANCH   5   9
BRANCH   1  23
ATOM     23  C   UNL     1       2.035  11.210  18.745  0.00  0.00    +0.000 C 
BRANCH  23  28
ATOM     24  C   UNL     1       2.629  14.986  19.142  0.00  0.00    +0.000 A 
ATOM     25  C   UNL     1       1.337  15.499  19.052  0.00  0.00    +0.000 A 
ATOM     26  C   UNL     1       0.263  14.635  18.826  0.00  0.00    +0.000 A 
ATOM     27  C   UNL     1       0.470  13.256  18.702  0.00  0.00    +0.000 A 
ATOM     28  C   UNL     1       1.759  12.712  18.784  0.00  0.00    +0.000 A 
ATOM     29  C   UNL     1       2.827  13.602  19.021  0.00  0.00    +0.000 A 
BRANCH  24  31
ATOM     30  C   UNL     1       3.590  17.048  19.847  0.00  0.00    +0.000 C 
ATOM     31  O   UNL     1       3.764  15.719  19.362  0.00  0.00    +0.000 OA
ENDBRANCH  24  31
ENDBRANCH  23  28
ENDBRANCH   1  23
TORSDOF 7
ENDMDL
MODEL 8
REMARK VINA RESULT:      -6.8      1.537      1.808
REMARK  Name = 
REMARK  9 active torsions:
REMARK  status: ('A' for Active; 'I' for Inactive)
REMARK    1  A    between atoms: C_1  and  O_2
REMARK    2  A    between atoms: O_2  and  C_3
REMARK    3  A    between atoms: C_7  and  C_8
REMARK    4  A    between atoms: C_8  and  N_9
REMARK    5  A    between atoms: C_13  and  C_15
REMARK    6  A    between atoms: C_17  and  S_18
REMARK    7  A    between atoms: S_18  and  N_19
REMARK    8  A    between atoms: C_24  and  O_25
REMARK    9  A    between atoms: O_25  and  C_26
REMARK                            x       y       z     vdW  Elec       q    Type
REMARK                         _______ _______ _______ _____ _____    ______ ____
ROOT
ATOM      1  N   UNL     1       0.943  10.406  18.631  0.00  0.00    +0.000 NA
ATOM      2  C   UNL     1       1.117   9.346  17.623  0.00  0.00    +0.000 C 
ATOM      3  C   UNL     1       2.079   8.216  18.022  0.00  0.00    +0.000 C 
ATOM      4  N   UNL     1       1.906   7.654  19.370  0.00  0.00    +0.000 N 
ATOM      5  C   UNL     1       2.522   6.455  19.831  0.00  0.00    +0.000 C 
ATOM      6  O   UNL     1       2.536   6.159  21.025  0.00  0.00    +0.000 OA
ATOM      7  C   UNL     1       1.493   8.614  20.403  0.00  0.00    +0.000 C 
ATOM      8  C   UNL     1       0.565   9.749  19.904  0.00  0.00    +0.000 C 
ENDROOT
BRANCH   5   9
ATOM      9  C   UNL     1       3.210   5.529  18.873  0.00  0.00    +0.000 A 
ATOM     10  C   UNL     1       4.597   5.699  18.720  0.00  0.00    +0.000 A 
ATOM     11  C   UNL     1       5.316   5.017  17.741  0.00  0.00    +0.000 A 
ATOM     12  C   UNL     1       4.724   3.990  17.025  0.00  0.00    +0.000 A 
ATOM     13  C   UNL     1       3.391   3.681  17.293  0.00  0.00    +0.000 A 
ATOM     14  C   UNL     1       2.612   4.459  18.183  0.00  0.00    +0.000 A 
BRANCH  11  15
ATOM     15  S   UNL     1       6.919   5.635  17.325  0.00  0.00    +0.000 S 
ATOM     16  O   UNL     1       7.678   4.590  16.681  0.00  0.00    +0.000 OA
ATOM     17  O   UNL     1       6.761   6.947  16.749  0.00  0.00    +0.000 OA
BRANCH  15  18
ATOM     18  N   UNL     1       7.616   5.861  18.830  0.00  0.00    +0.000 NA
ATOM     19  H   UNL     1       7.598   4.983  19.351  0.00  0.00    +0.000 HD
ATOM     20  H   UNL     1       8.552   6.252  18.722  0.00  0.00    +0.000 HD
ENDBRANCH  15  18
ENDBRANCH  11  15
BRANCH  14  21
ATOM     21  O   UNL     1       1.340   3.964  18.290  0.00  0.00    +0.000 OA
ATOM     22  C   UNL     1       1.173   2.558  18.377  0.00  0.00    +0.000 C 
ENDBRANCH  14  21
ENDBRANCH   5   9
BRANCH   1  23
ATOM     23  C   UNL     1       2.118  11.290  18.792  0.00  0.00    +0.000 C 
BRANCH  23  28
ATOM     24  C   UNL     1       2.138  14.385  21.069  0.00  0.00    +0.000 A 
ATOM     25  C   UNL     1       1.280  15.252  20.395  0.00  0.00    +0.000 A 
ATOM     26  C   UNL     1       0.713  14.860  19.181  0.00  0.00    +0.000 A 
ATOM     27  C   UNL     1       0.988  13.599  18.638  0.00  0.00    +0.000 A 
ATOM     28  C   UNL     1       1.851  12.709  19.291  0.00  0.00    +0.000 A 
ATOM     29  C   UNL     1       2.405  13.121  20.520  0.00  0.00    +0.000 A 
BRANCH  24  31
ATOM     30  C   UNL     1       2.915  16.012  22.625  0.00  0.00    +0.000 C 
ATOM     31  O   UNL     1       2.755  14.643  22.263  0.00  0.00    +0.000 OA
ENDBRANCH  24  31
ENDBRANCH  23  28
ENDBRANCH   1  23
TORSDOF 7
ENDMDL
MODEL 9
REMARK VINA RESULT:      -6.7      6.495     10.344
REMARK  Name = 
REMARK  9 active torsions:
REMARK  status: ('A' for Active; 'I' for Inactive)
REMARK    1  A    between atoms: C_1  and  O_2
REMARK    2  A    between atoms: O_2  and  C_3
REMARK    3  A    between atoms: C_7  and  C_8
REMARK    4  A    between atoms: C_8  and  N_9
REMARK    5  A    between atoms: C_13  and  C_15
REMARK    6  A    between atoms: C_17  and  S_18
REMARK    7  A    between atoms: S_18  and  N_19
REMARK    8  A    between atoms: C_24  and  O_25
REMARK    9  A    between atoms: O_25  and  C_26
REMARK                            x       y       z     vdW  Elec       q    Type
REMARK                         _______ _______ _______ _____ _____    ______ ____
ROOT
ATOM      1  N   UNL     1      -0.146  10.504  18.341  0.00  0.00    +0.000 NA
ATOM      2  C   UNL     1      -0.526  11.874  18.725  0.00  0.00    +0.000 C 
ATOM      3  C   UNL     1      -1.159  12.012  20.117  0.00  0.00    +0.000 C 
ATOM      4  N   UNL     1      -0.477  11.314  21.219  0.00  0.00    +0.000 N 
ATOM      5  C   UNL     1      -0.758  11.515  22.601  0.00  0.00    +0.000 C 
ATOM      6  O   UNL     1      -0.334  10.745  23.460  0.00  0.00    +0.000 OA
ATOM      7  C   UNL     1       0.146  10.032  20.860  0.00  0.00    +0.000 C 
ATOM      8  C   UNL     1       0.713   9.964  19.421  0.00  0.00    +0.000 C 
ENDROOT
BRANCH   5   9
ATOM      9  C   UNL     1      -1.617  12.660  23.050  0.00  0.00    +0.000 A 
ATOM     10  C   UNL     1      -2.935  12.347  23.426  0.00  0.00    +0.000 A 
ATOM     11  C   UNL     1      -3.874  13.339  23.699  0.00  0.00    +0.000 A 
ATOM     12  C   UNL     1      -3.483  14.662  23.814  0.00  0.00    +0.000 A 
ATOM     13  C   UNL     1      -2.136  14.971  23.623  0.00  0.00    +0.000 A 
ATOM     14  C   UNL     1      -1.201  13.994  23.207  0.00  0.00    +0.000 A 
BRANCH  11  15
ATOM     15  S   UNL     1      -5.579  12.872  23.698  0.00  0.00    +0.000 S 
ATOM     16  O   UNL     1      -5.993  12.585  22.346  0.00  0.00    +0.000 OA
ATOM     17  O   UNL     1      -5.795  11.952  24.787  0.00  0.00    +0.000 OA
BRANCH  15  18
ATOM     18  N   UNL     1      -6.340  14.299  24.129  0.00  0.00    +0.000 NA
ATOM     19  H   UNL     1      -6.379  14.923  23.321  0.00  0.00    +0.000 HD
ATOM     20  H   UNL     1      -7.257  14.096  24.530  0.00  0.00    +0.000 HD
ENDBRANCH  15  18
ENDBRANCH  11  15
BRANCH  14  21
ATOM     21  O   UNL     1       0.054  14.528  23.091  0.00  0.00    +0.000 OA
ATOM     22  C   UNL     1       0.171  15.915  22.819  0.00  0.00    +0.000 C 
ENDBRANCH  14  21
ENDBRANCH   5   9
BRANCH   1  23
ATOM     23  C   UNL     1      -1.291   9.616  18.048  0.00  0.00    +0.000 C 
BRANCH  23  28
ATOM     24  C   UNL     1      -4.445  11.244  16.574  0.00  0.00    +0.000 A 
ATOM     25  C   UNL     1      -4.335  10.927  15.223  0.00  0.00    +0.000 A 
ATOM     26  C   UNL     1      -3.224  10.215  14.765  0.00  0.00    +0.000 A 
ATOM     27  C   UNL     1      -2.224   9.804  15.655  0.00  0.00    +0.000 A 
ATOM     28  C   UNL     1      -2.305  10.112  17.019  0.00  0.00    +0.000 A 
ATOM     29  C   UNL     1      -3.440  10.824  17.460  0.00  0.00    +0.000 A 
BRANCH  24  31
ATOM     30  C   UNL     1      -5.795  11.607  18.502  0.00  0.00    +0.000 C 
ATOM     31  O   UNL     1      -5.478  11.932  17.151  0.00  0.00    +0.000 OA
ENDBRANCH  24  31
ENDBRANCH  23  28
ENDBRANCH   1  23
TORSDOF 7
ENDMDL
