MODEL 1
REMARK VINA RESULT:      -8.7      0.000      0.000
REMARK  Name = 
REMARK  5 active torsions:
REMARK  status: ('A' for Active; 'I' for Inactive)
REMARK    1  A    between atoms: C_1  and  C_2
REMARK    2  A    between atoms: C_2  and  N_3
REMARK    3  A    between atoms: C_2  and  C_14
REMARK    4  A    between atoms: N_3  and  C_4
REMARK    5  A    between atoms: C_4  and  C_5
REMARK                            x       y       z     vdW  Elec       q    Type
REMARK                         _______ _______ _______ _____ _____    ______ ____
ROOT
ATOM      1  N   UNL     1       5.683   6.059  18.183  0.00  0.00    +0.000 NA
ATOM      2  H   UNL     1       5.604   6.185  19.191  0.00  0.00    +0.000 HD
ENDROOT
BRANCH   1   4
ATOM      3  C   UNL     1       4.104   7.447  16.952  0.00  0.00    +0.000 C 
ATOM      4  C   UNL     1       4.339   6.061  17.578  0.00  0.00    +0.000 C 
BRANCH   4   5
ATOM      5  C   UNL     1       3.224   5.718  18.568  0.00  0.00    +0.000 A 
ATOM      6  C   UNL     1       2.832   6.713  19.490  0.00  0.00    +0.000 A 
ATOM      7  C   UNL     1       1.857   6.472  20.448  0.00  0.00    +0.000 A 
ATOM      8  C   UNL     1       1.250   5.226  20.511  0.00  0.00    +0.000 A 
ATOM      9  C   UNL     1       1.596   4.210  19.611  0.00  0.00    +0.000 A 
ATOM     10  C   UNL     1       0.947   2.968  19.710  0.00  0.00    +0.000 A 
ATOM     11  C   UNL     1       1.246   1.929  18.835  0.00  0.00    +0.000 A 
ATOM     12  C   UNL     1       2.205   2.118  17.852  0.00  0.00    +0.000 A 
ATOM     13  C   UNL     1       2.867   3.348  17.745  0.00  0.00    +0.000 A 
ATOM     14  C   UNL     1       2.587   4.434  18.615  0.00  0.00    +0.000 A 
ENDBRANCH   4   5
ENDBRANCH   1   4
BRANCH   1  15
ATOM     15  C   UNL     1       6.421   4.824  17.937  0.00  0.00    +0.000 C 
BRANCH  15  16
ATOM     16  C   UNL     1       6.489   4.589  16.467  0.00  0.00    +0.000 A 
ATOM     17  C   UNL     1       5.804   3.710  15.650  0.00  0.00    +0.000 A 
ATOM     18  C   UNL     1       6.239   3.919  14.313  0.00  0.00    +0.000 A 
ATOM     19  C   UNL     1       5.904   3.343  13.070  0.00  0.00    +0.000 A 
ATOM     20  C   UNL     1       6.537   3.803  11.908  0.00  0.00    +0.000 A 
ATOM     21  C   UNL     1       7.490   4.818  11.973  0.00  0.00    +0.000 A 
ATOM     22  C   UNL     1       7.842   5.401  13.195  0.00  0.00    +0.000 A 
ATOM     23  C   UNL     1       7.197   4.930  14.346  0.00  0.00    +0.000 A 
ATOM     24  N   UNL     1       7.339   5.309  15.662  0.00  0.00    +0.000 N 
ATOM     25  H   UNL     1       7.989   6.004  16.000  0.00  0.00    +0.000 HD
ENDBRANCH  15  16
ENDBRANCH   1  15
TORSDOF 4
ENDMDL
MODEL 2
REMARK VINA RESULT:      -8.0      4.094      5.679
REMARK  Name = 
REMARK  5 active torsions:
REMARK  status: ('A' for Active; 'I' for Inactive)
REMARK    1  A    between atoms: C_1  and  C_2
REMARK    2  A    between atoms: C_2  and  N_3
REMARK    3  A    between atoms: C_2  and  C_14
REMARK    4  A    between atoms: N_3  and  C_4
REMARK    5  A    between atoms: C_4  and  C_5
REMARK                            x       y       z     vdW  Elec       q    Type
REMARK                         _______ _______ _______ _____ _____    ______ ____
ROOT
ATOM      1  N   UNL     1       7.004   6.961  16.835  0.00  0.00    +0.000 NA
ATOM      2  H   UNL     1       6.399   7.779  16.791  0.00  0.00    +0.000 HD
ENDROOT
BRANCH   1   4
ATOM      3  C   UNL     1       6.224   5.248  15.288  0.00  0.00    +0.000 C 
ATOM      4  C   UNL     1       6.187   5.737  16.746  0.00  0.00    +0.000 C 
BRANCH   4   5
ATOM      5  C   UNL     1       4.743   5.932  17.215  0.00  0.00    +0.000 A 
ATOM      6  C   UNL     1       4.282   7.255  17.396  0.00  0.00    +0.000 A 
ATOM      7  C   UNL     1       3.000   7.521  17.858  0.00  0.00    +0.000 A 
ATOM      8  C   UNL     1       2.146   6.468  18.153  0.00  0.00    +0.000 A 
ATOM      9  C   UNL     1       2.553   5.139  17.979  0.00  0.00    +0.000 A 
ATOM     10  C   UNL     1       1.648   4.109  18.286  0.00  0.00    +0.000 A 
ATOM     11  C   UNL     1       1.999   2.772  18.122  0.00  0.00    +0.000 A 
ATOM     12  C   UNL     1       3.263   2.450  17.654  0.00  0.00    +0.000 A 
ATOM     13  C   UNL     1       4.180   3.466  17.352  0.00  0.00    +0.000 A 
ATOM     14  C   UNL     1       3.859   4.840  17.501  0.00  0.00    +0.000 A 
ENDBRANCH   4   5
ENDBRANCH   1   4
BRANCH   1  15
ATOM     15  C   UNL     1       7.785   7.041  18.066  0.00  0.00    +0.000 C 
BRANCH  15  16
ATOM     16  C   UNL     1       8.251   8.445  18.249  0.00  0.00    +0.000 A 
ATOM     17  C   UNL     1       8.070   9.575  17.476  0.00  0.00    +0.000 A 
ATOM     18  C   UNL     1       8.711  10.664  18.129  0.00  0.00    +0.000 A 
ATOM     19  C   UNL     1       8.858  12.035  17.836  0.00  0.00    +0.000 A 
ATOM     20  C   UNL     1       9.566  12.854  18.725  0.00  0.00    +0.000 A 
ATOM     21  C   UNL     1      10.123  12.326  19.887  0.00  0.00    +0.000 A 
ATOM     22  C   UNL     1       9.995  10.967  20.196  0.00  0.00    +0.000 A 
ATOM     23  C   UNL     1       9.282  10.164  19.298  0.00  0.00    +0.000 A 
ATOM     24  N   UNL     1       9.000   8.817  19.340  0.00  0.00    +0.000 N 
ATOM     25  H   UNL     1       9.313   8.180  20.059  0.00  0.00    +0.000 HD
ENDBRANCH  15  16
ENDBRANCH   1  15
TORSDOF 4
ENDMDL
MODEL 3
REMARK VINA RESULT:      -8.0      0.648      1.255
REMARK  Name = 
REMARK  5 active torsions:
REMARK  status: ('A' for Active; 'I' for Inactive)
REMARK    1  A    between atoms: C_1  and  C_2
REMARK    2  A    between atoms: C_2  and  N_3
REMARK    3  A    between atoms: C_2  and  C_14
REMARK    4  A    between atoms: N_3  and  C_4
REMARK    5  A    between atoms: C_4  and  C_5
REMARK                            x       y       z     vdW  Elec       q    Type
REMARK                         _______ _______ _______ _____ _____    ______ ____
ROOT
ATOM      1  N   UNL     1       5.322   6.264  18.089  0.00  0.00    +0.000 NA
ATOM      2  H   UNL     1       5.377   6.466  19.086  0.00  0.00    +0.000 HD
ENDROOT
BRANCH   1   4
ATOM      3  C   UNL     1       3.609   7.808  17.304  0.00  0.00    +0.000 C 
ATOM      4  C   UNL     1       3.918   6.340  17.647  0.00  0.00    +0.000 C 
BRANCH   4   5
ATOM      5  C   UNL     1       2.923   5.804  18.679  0.00  0.00    +0.000 A 
ATOM      6  C   UNL     1       2.503   6.679  19.705  0.00  0.00    +0.000 A 
ATOM      7  C   UNL     1       1.635   6.263  20.705  0.00  0.00    +0.000 A 
ATOM      8  C   UNL     1       1.166   4.957  20.705  0.00  0.00    +0.000 A 
ATOM      9  C   UNL     1       1.544   4.054  19.703  0.00  0.00    +0.000 A 
ATOM     10  C   UNL     1       1.036   2.746  19.744  0.00  0.00    +0.000 A 
ATOM     11  C   UNL     1       1.373   1.813  18.767  0.00  0.00    +0.000 A 
ATOM     12  C   UNL     1       2.229   2.179  17.740  0.00  0.00    +0.000 A 
ATOM     13  C   UNL     1       2.751   3.478  17.690  0.00  0.00    +0.000 A 
ATOM     14  C   UNL     1       2.428   4.459  18.664  0.00  0.00    +0.000 A 
ENDBRANCH   4   5
ENDBRANCH   1   4
BRANCH   1  15
ATOM     15  C   UNL     1       5.926   4.955  17.858  0.00  0.00    +0.000 C 
BRANCH  15  16
ATOM     16  C   UNL     1       6.235   4.818  16.406  0.00  0.00    +0.000 A 
ATOM     17  C   UNL     1       7.192   5.425  15.616  0.00  0.00    +0.000 A 
ATOM     18  C   UNL     1       7.063   4.913  14.296  0.00  0.00    +0.000 A 
ATOM     19  C   UNL     1       7.747   5.140  13.083  0.00  0.00    +0.000 A 
ATOM     20  C   UNL     1       7.356   4.441  11.934  0.00  0.00    +0.000 A 
ATOM     21  C   UNL     1       6.303   3.530  11.981  0.00  0.00    +0.000 A 
ATOM     22  C   UNL     1       5.606   3.292  13.171  0.00  0.00    +0.000 A 
ATOM     23  C   UNL     1       6.012   3.998  14.310  0.00  0.00    +0.000 A 
ATOM     24  N   UNL     1       5.520   3.970  15.596  0.00  0.00    +0.000 N 
ATOM     25  H   UNL     1       4.732   3.419  15.904  0.00  0.00    +0.000 HD
ENDBRANCH  15  16
ENDBRANCH   1  15
TORSDOF 4
ENDMDL
MODEL 4
REMARK VINA RESULT:      -7.9      2.147      4.539
REMARK  Name = 
REMARK  5 active torsions:
REMARK  status: ('A' for Active; 'I' for Inactive)
REMARK    1  A    between atoms: C_1  and  C_2
REMARK    2  A    between atoms: C_2  and  N_3
REMARK    3  A    between atoms: C_2  and  C_14
REMARK    4  A    between atoms: N_3  and  C_4
REMARK    5  A    between atoms: C_4  and  C_5
REMARK                            x       y       z     vdW  Elec       q    Type
REMARK                         _______ _______ _______ _____ _____    ______ ____
ROOT
ATOM      1  N   UNL     1       3.457   4.828  20.558  0.00  0.00    +0.000 NA
ATOM      2  H   UNL     1       3.797   4.610  21.493  0.00  0.00    +0.000 HD
ENDROOT
BRANCH   1   4
ATOM      3  C   UNL     1       1.083   4.428  20.182  0.00  0.00    +0.000 C 
ATOM      4  C   UNL     1       2.126   5.457  20.651  0.00  0.00    +0.000 C 
BRANCH   4   5
ATOM      5  C   UNL     1       2.007   6.754  19.847  0.00  0.00    +0.000 A 
ATOM      6  C   UNL     1       2.594   6.789  18.563  0.00  0.00    +0.000 A 
ATOM      7  C   UNL     1       2.567   7.937  17.783  0.00  0.00    +0.000 A 
ATOM      8  C   UNL     1       1.954   9.083  18.271  0.00  0.00    +0.000 A 
ATOM      9  C   UNL     1       1.348   9.095  19.534  0.00  0.00    +0.000 A 
ATOM     10  C   UNL     1       0.735  10.277  19.979  0.00  0.00    +0.000 A 
ATOM     11  C   UNL     1       0.111  10.339  21.221  0.00  0.00    +0.000 A 
ATOM     12  C   UNL     1       0.099   9.218  22.036  0.00  0.00    +0.000 A 
ATOM     13  C   UNL     1       0.714   8.034  21.610  0.00  0.00    +0.000 A 
ATOM     14  C   UNL     1       1.356   7.929  20.349  0.00  0.00    +0.000 A 
ENDBRANCH   4   5
ENDBRANCH   1   4
BRANCH   1  15
ATOM     15  C   UNL     1       3.455   3.596  19.777  0.00  0.00    +0.000 C 
BRANCH  15  16
ATOM     16  C   UNL     1       4.217   3.824  18.516  0.00  0.00    +0.000 A 
ATOM     17  C   UNL     1       3.820   3.804  17.193  0.00  0.00    +0.000 A 
ATOM     18  C   UNL     1       4.950   4.115  16.388  0.00  0.00    +0.000 A 
ATOM     19  C   UNL     1       5.160   4.250  15.000  0.00  0.00    +0.000 A 
ATOM     20  C   UNL     1       6.437   4.582  14.529  0.00  0.00    +0.000 A 
ATOM     21  C   UNL     1       7.493   4.777  15.416  0.00  0.00    +0.000 A 
ATOM     22  C   UNL     1       7.310   4.643  16.797  0.00  0.00    +0.000 A 
ATOM     23  C   UNL     1       6.027   4.313  17.251  0.00  0.00    +0.000 A 
ATOM     24  N   UNL     1       5.559   4.118  18.531  0.00  0.00    +0.000 N 
ATOM     25  H   UNL     1       6.122   4.165  19.369  0.00  0.00    +0.000 HD
ENDBRANCH  15  16
ENDBRANCH   1  15
TORSDOF 4
ENDMDL
MODEL 5
REMARK VINA RESULT:      -7.8      2.393      6.930
REMARK  Name = 
REMARK  5 active torsions:
REMARK  status: ('A' for Active; 'I' for Inactive)
REMARK    1  A    between atoms: C_1  and  C_2
REMARK    2  A    between atoms: C_2  and  N_3
REMARK    3  A    between atoms: C_2  and  C_14
REMARK    4  A    between atoms: N_3  and  C_4
REMARK    5  A    between atoms: C_4  and  C_5
REMARK                            x       y       z     vdW  Elec       q    Type
REMARK                         _______ _______ _______ _____ _____    ______ ____
ROOT
ATOM      1  N   UNL     1       2.811   4.253  18.850  0.00  0.00    +0.000 NA
ATOM      2  H   UNL     1       1.987   3.654  18.863  0.00  0.00    +0.000 HD
ENDROOT
BRANCH   1   4
ATOM      3  C   UNL     1       4.250   2.666  20.011  0.00  0.00    +0.000 C 
ATOM      4  C   UNL     1       4.020   3.425  18.692  0.00  0.00    +0.000 C 
BRANCH   4   5
ATOM      5  C   UNL     1       5.264   4.229  18.307  0.00  0.00    +0.000 A 
ATOM      6  C   UNL     1       6.003   4.837  19.346  0.00  0.00    +0.000 A 
ATOM      7  C   UNL     1       7.121   5.617  19.082  0.00  0.00    +0.000 A 
ATOM      8  C   UNL     1       7.526   5.812  17.769  0.00  0.00    +0.000 A 
ATOM      9  C   UNL     1       6.833   5.221  16.705  0.00  0.00    +0.000 A 
ATOM     10  C   UNL     1       7.287   5.444  15.395  0.00  0.00    +0.000 A 
ATOM     11  C   UNL     1       6.640   4.872  14.303  0.00  0.00    +0.000 A 
ATOM     12  C   UNL     1       5.525   4.075  14.511  0.00  0.00    +0.000 A 
ATOM     13  C   UNL     1       5.054   3.851  15.811  0.00  0.00    +0.000 A 
ATOM     14  C   UNL     1       5.689   4.412  16.950  0.00  0.00    +0.000 A 
ENDBRANCH   4   5
ENDBRANCH   1   4
BRANCH   1  15
ATOM     15  C   UNL     1       2.815   5.046  20.075  0.00  0.00    +0.000 C 
BRANCH  15  16
ATOM     16  C   UNL     1       2.398   6.439  19.747  0.00  0.00    +0.000 A 
ATOM     17  C   UNL     1       2.484   7.167  18.576  0.00  0.00    +0.000 A 
ATOM     18  C   UNL     1       1.911   8.447  18.807  0.00  0.00    +0.000 A 
ATOM     19  C   UNL     1       1.709   9.591  18.008  0.00  0.00    +0.000 A 
ATOM     20  C   UNL     1       1.087  10.716  18.566  0.00  0.00    +0.000 A 
ATOM     21  C   UNL     1       0.673  10.712  19.896  0.00  0.00    +0.000 A 
ATOM     22  C   UNL     1       0.869   9.590  20.710  0.00  0.00    +0.000 A 
ATOM     23  C   UNL     1       1.489   8.474  20.135  0.00  0.00    +0.000 A 
ATOM     24  N   UNL     1       1.807   7.253  20.684  0.00  0.00    +0.000 N 
ATOM     25  H   UNL     1       1.648   6.989  21.647  0.00  0.00    +0.000 HD
ENDBRANCH  15  16
ENDBRANCH   1  15
TORSDOF 4
ENDMDL
MODEL 6
REMARK VINA RESULT:      -7.8      4.594      7.915
REMARK  Name = 
REMARK  5 active torsions:
REMARK  status: ('A' for Active; 'I' for Inactive)
REMARK    1  A    between atoms: C_1  and  C_2
REMARK    2  A    between atoms: C_2  and  N_3
REMARK    3  A    between atoms: C_2  and  C_14
REMARK    4  A    between atoms: N_3  and  C_4
REMARK    5  A    between atoms: C_4  and  C_5
REMARK                            x       y       z     vdW  Elec       q    Type
REMARK                         _______ _______ _______ _____ _____    ______ ____
ROOT
ATOM      1  N   UNL     1       1.822   8.704  17.906  0.00  0.00    +0.000 NA
ATOM      2  H   UNL     1       1.169   8.681  17.125  0.00  0.00    +0.000 HD
ENDROOT
BRANCH   1   4
ATOM      3  C   UNL     1       2.080   7.596  20.061  0.00  0.00    +0.000 C 
ATOM      4  C   UNL     1       1.863   7.380  18.553  0.00  0.00    +0.000 C 
BRANCH   4   5
ATOM      5  C   UNL     1       2.939   6.454  17.980  0.00  0.00    +0.000 A 
ATOM      6  C   UNL     1       4.106   7.048  17.451  0.00  0.00    +0.000 A 
ATOM      7  C   UNL     1       5.113   6.285  16.876  0.00  0.00    +0.000 A 
ATOM      8  C   UNL     1       4.976   4.906  16.812  0.00  0.00    +0.000 A 
ATOM      9  C   UNL     1       3.842   4.268  17.333  0.00  0.00    +0.000 A 
ATOM     10  C   UNL     1       3.755   2.869  17.250  0.00  0.00    +0.000 A 
ATOM     11  C   UNL     1       2.655   2.187  17.761  0.00  0.00    +0.000 A 
ATOM     12  C   UNL     1       1.625   2.899  18.356  0.00  0.00    +0.000 A 
ATOM     13  C   UNL     1       1.694   4.296  18.438  0.00  0.00    +0.000 A 
ATOM     14  C   UNL     1       2.800   5.027  17.934  0.00  0.00    +0.000 A 
ENDBRANCH   4   5
ENDBRANCH   1   4
BRANCH   1  15
ATOM     15  C   UNL     1       1.409   9.772  18.811  0.00  0.00    +0.000 C 
BRANCH  15  16
ATOM     16  C   UNL     1       0.011  10.168  18.482  0.00  0.00    +0.000 A 
ATOM     17  C   UNL     1      -0.920  10.905  19.188  0.00  0.00    +0.000 A 
ATOM     18  C   UNL     1      -2.097  11.005  18.397  0.00  0.00    +0.000 A 
ATOM     19  C   UNL     1      -3.351  11.625  18.575  0.00  0.00    +0.000 A 
ATOM     20  C   UNL     1      -4.313  11.533  17.562  0.00  0.00    +0.000 A 
ATOM     21  C   UNL     1      -4.041  10.834  16.387  0.00  0.00    +0.000 A 
ATOM     22  C   UNL     1      -2.807  10.206  16.189  0.00  0.00    +0.000 A 
ATOM     23  C   UNL     1      -1.856  10.312  17.212  0.00  0.00    +0.000 A 
ATOM     24  N   UNL     1      -0.579   9.804  17.295  0.00  0.00    +0.000 N 
ATOM     25  H   UNL     1      -0.136   9.228  16.593  0.00  0.00    +0.000 HD
ENDBRANCH  15  16
ENDBRANCH   1  15
TORSDOF 4
ENDMDL
MODEL 7
REMARK VINA RESULT:      -7.8      4.189      5.727
REMARK  Name = 
REMARK  5 active torsions:
REMARK  status: ('A' for Active; 'I' for Inactive)
REMARK    1  A    between atoms: C_1  and  C_2
REMARK    2  A    between atoms: C_2  and  N_3
REMARK    3  A    between atoms: C_2  and  C_14
REMARK    4  A    between atoms: N_3  and  C_4
REMARK    5  A    between atoms: C_4  and  C_5
REMARK                            x       y       z     vdW  Elec       q    Type
REMARK                         _______ _______ _______ _____ _____    ______ ____
ROOT
ATOM      1  N   UNL     1       6.757   7.190  16.841  0.00  0.00    +0.000 NA
ATOM      2  H   UNL     1       6.173   8.016  16.960  0.00  0.00    +0.000 HD
ENDROOT
BRANCH   1   4
ATOM      3  C   UNL     1       5.577   5.694  15.322  0.00  0.00    +0.000 C 
ATOM      4  C   UNL     1       5.906   5.987  16.796  0.00  0.00    +0.000 C 
BRANCH   4   5
ATOM      5  C   UNL     1       4.624   6.115  17.621  0.00  0.00    +0.000 A 
ATOM      6  C   UNL     1       3.878   7.308  17.498  0.00  0.00    +0.000 A 
ATOM      7  C   UNL     1       2.725   7.524  18.240  0.00  0.00    +0.000 A 
ATOM      8  C   UNL     1       2.290   6.551  19.129  0.00  0.00    +0.000 A 
ATOM      9  C   UNL     1       2.989   5.346  19.279  0.00  0.00    +0.000 A 
ATOM     10  C   UNL     1       2.503   4.391  20.186  0.00  0.00    +0.000 A 
ATOM     11  C   UNL     1       3.155   3.174  20.366  0.00  0.00    +0.000 A 
ATOM     12  C   UNL     1       4.306   2.902  19.642  0.00  0.00    +0.000 A 
ATOM     13  C   UNL     1       4.807   3.849  18.739  0.00  0.00    +0.000 A 
ATOM     14  C   UNL     1       4.169   5.098  18.524  0.00  0.00    +0.000 A 
ENDBRANCH   4   5
ENDBRANCH   1   4
BRANCH   1  15
ATOM     15  C   UNL     1       7.731   7.163  17.928  0.00  0.00    +0.000 C 
BRANCH  15  16
ATOM     16  C   UNL     1       8.225   8.549  18.165  0.00  0.00    +0.000 A 
ATOM     17  C   UNL     1       8.073   9.711  17.433  0.00  0.00    +0.000 A 
ATOM     18  C   UNL     1       8.732  10.761  18.129  0.00  0.00    +0.000 A 
ATOM     19  C   UNL     1       8.909  12.139  17.887  0.00  0.00    +0.000 A 
ATOM     20  C   UNL     1       9.628  12.910  18.809  0.00  0.00    +0.000 A 
ATOM     21  C   UNL     1      10.167  12.328  19.955  0.00  0.00    +0.000 A 
ATOM     22  C   UNL     1      10.008  10.962  20.213  0.00  0.00    +0.000 A 
ATOM     23  C   UNL     1       9.284  10.207  19.281  0.00  0.00    +0.000 A 
ATOM     24  N   UNL     1       8.975   8.866  19.273  0.00  0.00    +0.000 N 
ATOM     25  H   UNL     1       9.270   8.196  19.970  0.00  0.00    +0.000 HD
ENDBRANCH  15  16
ENDBRANCH   1  15
TORSDOF 4
ENDMDL
MODEL 8
REMARK VINA RESULT:      -7.7      3.208      7.693
REMARK  Name = 
REMARK  5 active torsions:
REMARK  status: ('A' for Active; 'I' for Inactive)
REMARK    1  A    between atoms: C_1  and  C_2
REMARK    2  A    between atoms: C_2  and  N_3
REMARK    3  A    between atoms: C_2  and  C_14
REMARK    4  A    between atoms: N_3  and  C_4
REMARK    5  A    between atoms: C_4  and  C_5
REMARK                            x       y       z     vdW  Elec       q    Type
REMARK                         _______ _______ _______ _____ _____    ______ ____
ROOT
ATOM      1  N   UNL     1       2.243   7.403  17.924  0.00  0.00    +0.000 NA
ATOM      2  H   UNL     1       1.580   7.028  18.601  0.00  0.00    +0.000 HD
ENDROOT
BRANCH   1   4
ATOM      3  C   UNL     1       4.514   7.322  17.046  0.00  0.00    +0.000 C 
ATOM      4  C   UNL     1       3.557   6.761  18.112  0.00  0.00    +0.000 C 
BRANCH   4   5
ATOM      5  C   UNL     1       3.505   5.233  18.042  0.00  0.00    +0.000 A 
ATOM      6  C   UNL     1       4.259   4.593  17.034  0.00  0.00    +0.000 A 
ATOM      7  C   UNL     1       4.237   3.215  16.874  0.00  0.00    +0.000 A 
ATOM      8  C   UNL     1       3.455   2.439  17.719  0.00  0.00    +0.000 A 
ATOM      9  C   UNL     1       2.699   3.025  18.741  0.00  0.00    +0.000 A 
ATOM     10  C   UNL     1       1.930   2.197  19.574  0.00  0.00    +0.000 A 
ATOM     11  C   UNL     1       1.168   2.727  20.611  0.00  0.00    +0.000 A 
ATOM     12  C   UNL     1       1.162   4.097  20.822  0.00  0.00    +0.000 A 
ATOM     13  C   UNL     1       1.917   4.938  19.994  0.00  0.00    +0.000 A 
ATOM     14  C   UNL     1       2.710   4.436  18.930  0.00  0.00    +0.000 A 
ENDBRANCH   4   5
ENDBRANCH   1   4
BRANCH   1  15
ATOM     15  C   UNL     1       2.285   8.853  18.086  0.00  0.00    +0.000 C 
BRANCH  15  16
ATOM     16  C   UNL     1       1.492   9.225  19.292  0.00  0.00    +0.000 A 
ATOM     17  C   UNL     1       1.284   8.564  20.488  0.00  0.00    +0.000 A 
ATOM     18  C   UNL     1       0.459   9.382  21.306  0.00  0.00    +0.000 A 
ATOM     19  C   UNL     1      -0.073   9.252  22.606  0.00  0.00    +0.000 A 
ATOM     20  C   UNL     1      -0.866  10.281  23.130  0.00  0.00    +0.000 A 
ATOM     21  C   UNL     1      -1.132  11.424  22.379  0.00  0.00    +0.000 A 
ATOM     22  C   UNL     1      -0.620  11.574  21.085  0.00  0.00    +0.000 A 
ATOM     23  C   UNL     1       0.173  10.536  20.579  0.00  0.00    +0.000 A 
ATOM     24  N   UNL     1       0.799  10.410  19.360  0.00  0.00    +0.000 N 
ATOM     25  H   UNL     1       0.746  11.081  18.607  0.00  0.00    +0.000 HD
ENDBRANCH  15  16
ENDBRANCH   1  15
TORSDOF 4
ENDMDL
MODEL 9
REMARK VINA RESULT:      -7.6      3.156      7.677
REMARK  Name = 
REMARK  5 active torsions:
REMARK  status: ('A' for Active; 'I' for Inactive)
REMARK    1  A    between atoms: C_1  and  C_2
REMARK    2  A    between atoms: C_2  and  N_3
REMARK    3  A    between atoms: C_2  and  C_14
REMARK    4  A    between atoms: N_3  and  C_4
REMARK    5  A    between atoms: C_4  and  C_5
REMARK                            x       y       z     vdW  Elec       q    Type
REMARK                         _______ _______ _______ _____ _____    ______ ____
ROOT
ATOM      1  N   UNL     1       2.114   7.379  17.905  0.00  0.00    +0.000 NA
ATOM      2  H   UNL     1       1.484   7.102  18.656  0.00  0.00    +0.000 HD
ENDROOT
BRANCH   1   4
ATOM      3  C   UNL     1       4.411   7.382  17.093  0.00  0.00    +0.000 C 
ATOM      4  C   UNL     1       3.445   6.790  18.134  0.00  0.00    +0.000 C 
BRANCH   4   5
ATOM      5  C   UNL     1       3.454   5.260  18.070  0.00  0.00    +0.000 A 
ATOM      6  C   UNL     1       4.238   4.647  17.068  0.00  0.00    +0.000 A 
ATOM      7  C   UNL     1       4.271   3.268  16.915  0.00  0.00    +0.000 A 
ATOM      8  C   UNL     1       3.516   2.466  17.759  0.00  0.00    +0.000 A 
ATOM      9  C   UNL     1       2.732   3.026  18.776  0.00  0.00    +0.000 A 
ATOM     10  C   UNL     1       1.992   2.171  19.609  0.00  0.00    +0.000 A 
ATOM     11  C   UNL     1       1.205   2.675  20.639  0.00  0.00    +0.000 A 
ATOM     12  C   UNL     1       1.144   4.045  20.844  0.00  0.00    +0.000 A 
ATOM     13  C   UNL     1       1.869   4.912  20.016  0.00  0.00    +0.000 A 
ATOM     14  C   UNL     1       2.687   4.436  18.958  0.00  0.00    +0.000 A 
ENDBRANCH   4   5
ENDBRANCH   1   4
BRANCH   1  15
ATOM     15  C   UNL     1       2.135   8.838  17.847  0.00  0.00    +0.000 C 
BRANCH  15  16
ATOM     16  C   UNL     1       1.389   9.377  19.019  0.00  0.00    +0.000 A 
ATOM     17  C   UNL     1       0.659  10.539  19.182  0.00  0.00    +0.000 A 
ATOM     18  C   UNL     1       0.134  10.549  20.502  0.00  0.00    +0.000 A 
ATOM     19  C   UNL     1      -0.676  11.445  21.230  0.00  0.00    +0.000 A 
ATOM     20  C   UNL     1      -1.026  11.136  22.551  0.00  0.00    +0.000 A 
ATOM     21  C   UNL     1      -0.580   9.959  23.147  0.00  0.00    +0.000 A 
ATOM     22  C   UNL     1       0.229   9.057  22.447  0.00  0.00    +0.000 A 
ATOM     23  C   UNL     1       0.566   9.381  21.126  0.00  0.00    +0.000 A 
ATOM     24  N   UNL     1       1.335   8.696  20.212  0.00  0.00    +0.000 N 
ATOM     25  H   UNL     1       1.812   7.823  20.391  0.00  0.00    +0.000 HD
ENDBRANCH  15  16
ENDBRANCH   1  15
TORSDOF 4
ENDMDL
