MODEL 1
REMARK VINA RESULT:      -7.4      0.000      0.000
REMARK  Name = 
REMARK  10 active torsions:
REMARK  status: ('A' for Active; 'I' for Inactive)
REMARK    1  A    between atoms: C_1  and  C_2
REMARK    2  A    between atoms: C_2  and  C_3
REMARK    3  A    between atoms: C_3  and  C_4
REMARK    4  A    between atoms: C_4  and  N_5
REMARK    5  A    between atoms: N_5  and  C_6
REMARK    6  A    between atoms: N_5  and  C_7
REMARK    7  A    between atoms: C_7  and  C_8
REMARK    8  A    between atoms: C_8  and  C_9
REMARK    9  A    between atoms: C_9  and  N_10
REMARK   10  A    between atoms: C_11  and  C_13
REMARK                            x       y       z     vdW  Elec       q    Type
REMARK                         _______ _______ _______ _____ _____    ______ ____
ROOT
ATOM      1  C   UNL     1       2.518   7.161  18.902  0.00  0.00    +0.000 A 
ATOM      2  C   UNL     1       2.448   8.030  17.810  0.00  0.00    +0.000 A 
ATOM      3  C   UNL     1       1.807   9.268  17.935  0.00  0.00    +0.000 A 
ATOM      4  C   UNL     1       1.219   9.634  19.162  0.00  0.00    +0.000 A 
ATOM      5  N   UNL     1       0.548  10.810  19.415  0.00  0.00    +0.000 NA
ATOM      6  C   UNL     1       0.105  10.863  20.653  0.00  0.00    +0.000 A 
ATOM      7  N   UNL     1      -0.558  11.947  21.157  0.00  0.00    +0.000 N 
ATOM      8  C   UNL     1      -0.944  13.013  20.231  0.00  0.00    +0.000 C 
ATOM      9  C   UNL     1      -0.762  14.363  20.921  0.00  0.00    +0.000 C 
ATOM     10  C   UNL     1      -1.516  14.420  22.248  0.00  0.00    +0.000 C 
ATOM     11  C   UNL     1      -1.164  13.229  23.136  0.00  0.00    +0.000 C 
ATOM     12  C   UNL     1      -1.329  11.900  22.396  0.00  0.00    +0.000 C 
ATOM     13  S   UNL     1       0.506   9.456  21.584  0.00  0.00    +0.000 S 
ATOM     14  C   UNL     1       1.295   8.751  20.236  0.00  0.00    +0.000 A 
ATOM     15  C   UNL     1       1.935   7.506  20.131  0.00  0.00    +0.000 A 
ENDROOT
BRANCH   1  17
ATOM     16  N   UNL     1       4.501   5.763  19.103  0.00  0.00    +0.000 N 
ATOM     17  C   UNL     1       3.161   5.825  18.791  0.00  0.00    +0.000 C 
ATOM     18  O   UNL     1       2.496   4.854  18.446  0.00  0.00    +0.000 OA
ATOM     19  H   UNL     1       4.993   6.577  19.445  0.00  0.00    +0.000 HD
BRANCH  16  20
ATOM     20  C   UNL     1       5.262   4.539  18.963  0.00  0.00    +0.000 C 
BRANCH  20  21
ATOM     21  C   UNL     1       5.602   4.234  17.505  0.00  0.00    +0.000 C 
BRANCH  21  22
ATOM     22  C   UNL     1       6.851   4.967  16.991  0.00  0.00    +0.000 C 
BRANCH  22  23
ATOM     23  N   UNL     1       6.683   5.660  15.696  0.00  0.00    +0.000 NA
ATOM     24  C   UNL     1       5.274   6.049  15.543  0.00  0.00    +0.000 C 
BRANCH  23  25
ATOM     25  C   UNL     1       7.133   4.812  14.574  0.00  0.00    +0.000 C 
BRANCH  25  26
ATOM     26  C   UNL     1       6.030   3.913  14.000  0.00  0.00    +0.000 C 
BRANCH  26  28
ATOM     27  C   UNL     1       5.001   3.225  11.813  0.00  0.00    +0.000 C 
ATOM     28  C   UNL     1       6.293   3.585  12.529  0.00  0.00    +0.000 C 
ENDBRANCH  26  28
ENDBRANCH  25  26
ENDBRANCH  23  25
ENDBRANCH  22  23
ENDBRANCH  21  22
ENDBRANCH  20  21
ENDBRANCH  16  20
ENDBRANCH   1  17
TORSDOF 8
ENDMDL
MODEL 2
REMARK VINA RESULT:      -7.4      1.689      2.997
REMARK  Name = 
REMARK  10 active torsions:
REMARK  status: ('A' for Active; 'I' for Inactive)
REMARK    1  A    between atoms: C_1  and  C_2
REMARK    2  A    between atoms: C_2  and  C_3
REMARK    3  A    between atoms: C_3  and  C_4
REMARK    4  A    between atoms: C_4  and  N_5
REMARK    5  A    between atoms: N_5  and  C_6
REMARK    6  A    between atoms: N_5  and  C_7
REMARK    7  A    between atoms: C_7  and  C_8
REMARK    8  A    between atoms: C_8  and  C_9
REMARK    9  A    between atoms: C_9  and  N_10
REMARK   10  A    between atoms: C_11  and  C_13
REMARK                            x       y       z     vdW  Elec       q    Type
REMARK                         _______ _______ _______ _____ _____    ______ ____
ROOT
ATOM      1  C   UNL     1       2.588   7.230  18.796  0.00  0.00    +0.000 A 
ATOM      2  C   UNL     1       2.415   8.079  17.699  0.00  0.00    +0.000 A 
ATOM      3  C   UNL     1       1.685   9.265  17.835  0.00  0.00    +0.000 A 
ATOM      4  C   UNL     1       1.113   9.599  19.079  0.00  0.00    +0.000 A 
ATOM      5  N   UNL     1       0.361  10.723  19.344  0.00  0.00    +0.000 NA
ATOM      6  C   UNL     1      -0.042  10.756  20.596  0.00  0.00    +0.000 A 
ATOM      7  N   UNL     1      -0.769  11.792  21.113  0.00  0.00    +0.000 N 
ATOM      8  C   UNL     1      -1.267  12.815  20.191  0.00  0.00    +0.000 C 
ATOM      9  C   UNL     1      -1.166  14.183  20.863  0.00  0.00    +0.000 C 
ATOM     10  C   UNL     1      -1.878  14.196  22.214  0.00  0.00    +0.000 C 
ATOM     11  C   UNL     1      -1.405  13.047  23.100  0.00  0.00    +0.000 C 
ATOM     12  C   UNL     1      -1.492  11.701  22.378  0.00  0.00    +0.000 C 
ATOM     13  S   UNL     1       0.498   9.395  21.525  0.00  0.00    +0.000 S 
ATOM     14  C   UNL     1       1.292   8.737  20.156  0.00  0.00    +0.000 A 
ATOM     15  C   UNL     1       2.022   7.543  20.040  0.00  0.00    +0.000 A 
ENDROOT
BRANCH   1  17
ATOM     16  N   UNL     1       3.585   5.505  17.396  0.00  0.00    +0.000 N 
ATOM     17  C   UNL     1       3.328   5.946  18.675  0.00  0.00    +0.000 C 
ATOM     18  O   UNL     1       3.681   5.348  19.686  0.00  0.00    +0.000 OA
ATOM     19  H   UNL     1       3.331   6.065  16.593  0.00  0.00    +0.000 HD
BRANCH  16  20
ATOM     20  C   UNL     1       4.230   4.234  17.141  0.00  0.00    +0.000 C 
BRANCH  20  21
ATOM     21  C   UNL     1       5.121   4.277  15.901  0.00  0.00    +0.000 C 
BRANCH  21  22
ATOM     22  C   UNL     1       5.758   5.651  15.640  0.00  0.00    +0.000 C 
BRANCH  22  23
ATOM     23  N   UNL     1       6.990   5.928  16.411  0.00  0.00    +0.000 NA
ATOM     24  C   UNL     1       7.508   4.663  16.950  0.00  0.00    +0.000 C 
BRANCH  23  25
ATOM     25  C   UNL     1       6.739   6.909  17.485  0.00  0.00    +0.000 C 
BRANCH  25  26
ATOM     26  C   UNL     1       8.015   7.552  18.044  0.00  0.00    +0.000 C 
BRANCH  26  28
ATOM     27  C   UNL     1       8.942   9.768  18.782  0.00  0.00    +0.000 C 
ATOM     28  C   UNL     1       8.033   9.060  17.791  0.00  0.00    +0.000 C 
ENDBRANCH  26  28
ENDBRANCH  25  26
ENDBRANCH  23  25
ENDBRANCH  22  23
ENDBRANCH  21  22
ENDBRANCH  20  21
ENDBRANCH  16  20
ENDBRANCH   1  17
TORSDOF 8
ENDMDL
MODEL 3
REMARK VINA RESULT:      -7.3      2.464      4.390
REMARK  Name = 
REMARK  10 active torsions:
REMARK  status: ('A' for Active; 'I' for Inactive)
REMARK    1  A    between atoms: C_1  and  C_2
REMARK    2  A    between atoms: C_2  and  C_3
REMARK    3  A    between atoms: C_3  and  C_4
REMARK    4  A    between atoms: C_4  and  N_5
REMARK    5  A    between atoms: N_5  and  C_6
REMARK    6  A    between atoms: N_5  and  C_7
REMARK    7  A    between atoms: C_7  and  C_8
REMARK    8  A    between atoms: C_8  and  C_9
REMARK    9  A    between atoms: C_9  and  N_10
REMARK   10  A    between atoms: C_11  and  C_13
REMARK                            x       y       z     vdW  Elec       q    Type
REMARK                         _______ _______ _______ _____ _____    ______ ____
ROOT
ATOM      1  C   UNL     1       2.185   7.902  19.224  0.00  0.00    +0.000 A 
ATOM      2  C   UNL     1       1.967   7.498  20.544  0.00  0.00    +0.000 A 
ATOM      3  C   UNL     1       1.111   8.230  21.373  0.00  0.00    +0.000 A 
ATOM      4  C   UNL     1       0.474   9.386  20.879  0.00  0.00    +0.000 A 
ATOM      5  N   UNL     1      -0.377  10.204  21.590  0.00  0.00    +0.000 NA
ATOM      6  C   UNL     1      -0.809  11.210  20.861  0.00  0.00    +0.000 A 
ATOM      7  N   UNL     1      -1.697  12.137  21.330  0.00  0.00    +0.000 N 
ATOM      8  C   UNL     1      -2.040  12.108  22.753  0.00  0.00    +0.000 C 
ATOM      9  C   UNL     1      -3.525  12.427  22.915  0.00  0.00    +0.000 C 
ATOM     10  C   UNL     1      -3.890  13.747  22.238  0.00  0.00    +0.000 C 
ATOM     11  C   UNL     1      -3.416  13.775  20.788  0.00  0.00    +0.000 C 
ATOM     12  C   UNL     1      -1.933  13.417  20.669  0.00  0.00    +0.000 C 
ATOM     13  S   UNL     1      -0.191  11.197  19.241  0.00  0.00    +0.000 S 
ATOM     14  C   UNL     1       0.709   9.775  19.563  0.00  0.00    +0.000 A 
ATOM     15  C   UNL     1       1.564   9.052  18.716  0.00  0.00    +0.000 A 
ENDROOT
BRANCH   1  17
ATOM     16  N   UNL     1       3.594   5.962  18.801  0.00  0.00    +0.000 N 
ATOM     17  C   UNL     1       3.116   7.164  18.330  0.00  0.00    +0.000 C 
ATOM     18  O   UNL     1       3.410   7.633  17.236  0.00  0.00    +0.000 OA
ATOM     19  H   UNL     1       3.273   5.585  19.683  0.00  0.00    +0.000 HD
BRANCH  16  20
ATOM     20  C   UNL     1       4.565   5.183  18.061  0.00  0.00    +0.000 C 
BRANCH  20  21
ATOM     21  C   UNL     1       3.933   4.431  16.892  0.00  0.00    +0.000 C 
BRANCH  21  22
ATOM     22  C   UNL     1       2.655   3.664  17.264  0.00  0.00    +0.000 C 
BRANCH  22  23
ATOM     23  N   UNL     1       2.758   2.823  18.477  0.00  0.00    +0.000 NA
ATOM     24  C   UNL     1       3.521   1.610  18.151  0.00  0.00    +0.000 C 
BRANCH  23  25
ATOM     25  C   UNL     1       1.423   2.493  19.013  0.00  0.00    +0.000 C 
BRANCH  25  26
ATOM     26  C   UNL     1       0.800   3.616  19.852  0.00  0.00    +0.000 C 
BRANCH  26  28
ATOM     27  C   UNL     1       1.870   2.631  21.901  0.00  0.00    +0.000 C 
ATOM     28  C   UNL     1       1.633   3.903  21.102  0.00  0.00    +0.000 C 
ENDBRANCH  26  28
ENDBRANCH  25  26
ENDBRANCH  23  25
ENDBRANCH  22  23
ENDBRANCH  21  22
ENDBRANCH  20  21
ENDBRANCH  16  20
ENDBRANCH   1  17
TORSDOF 8
ENDMDL
MODEL 4
REMARK VINA RESULT:      -7.2      2.471      4.201
REMARK  Name = 
REMARK  10 active torsions:
REMARK  status: ('A' for Active; 'I' for Inactive)
REMARK    1  A    between atoms: C_1  and  C_2
REMARK    2  A    between atoms: C_2  and  C_3
REMARK    3  A    between atoms: C_3  and  C_4
REMARK    4  A    between atoms: C_4  and  N_5
REMARK    5  A    between atoms: N_5  and  C_6
REMARK    6  A    between atoms: N_5  and  C_7
REMARK    7  A    between atoms: C_7  and  C_8
REMARK    8  A    between atoms: C_8  and  C_9
REMARK    9  A    between atoms: C_9  and  N_10
REMARK   10  A    between atoms: C_11  and  C_13
REMARK                            x       y       z     vdW  Elec       q    Type
REMARK                         _______ _______ _______ _____ _____    ______ ____
ROOT
ATOM      1  C   UNL     1       2.303   7.765  18.817  0.00  0.00    +0.000 A 
ATOM      2  C   UNL     1       2.116   7.305  20.123  0.00  0.00    +0.000 A 
ATOM      3  C   UNL     1       1.320   8.030  21.018  0.00  0.00    +0.000 A 
ATOM      4  C   UNL     1       0.716   9.234  20.603  0.00  0.00    +0.000 A 
ATOM      5  N   UNL     1      -0.075  10.049  21.384  0.00  0.00    +0.000 NA
ATOM      6  C   UNL     1      -0.489  11.107  20.721  0.00  0.00    +0.000 A 
ATOM      7  N   UNL     1      -1.321  12.044  21.267  0.00  0.00    +0.000 N 
ATOM      8  C   UNL     1      -1.615  11.958  22.699  0.00  0.00    +0.000 C 
ATOM      9  C   UNL     1      -3.078  12.329  22.930  0.00  0.00    +0.000 C 
ATOM     10  C   UNL     1      -3.411  13.694  22.332  0.00  0.00    +0.000 C 
ATOM     11  C   UNL     1      -2.987  13.775  20.868  0.00  0.00    +0.000 C 
ATOM     12  C   UNL     1      -1.526  13.364  20.676  0.00  0.00    +0.000 C 
ATOM     13  S   UNL     1       0.070  11.149  19.080  0.00  0.00    +0.000 S 
ATOM     14  C   UNL     1       0.921   9.677  19.300  0.00  0.00    +0.000 A 
ATOM     15  C   UNL     1       1.714   8.963  18.387  0.00  0.00    +0.000 A 
ENDROOT
BRANCH   1  17
ATOM     16  N   UNL     1       3.126   5.661  17.909  0.00  0.00    +0.000 N 
ATOM     17  C   UNL     1       3.171   7.036  17.854  0.00  0.00    +0.000 C 
ATOM     18  O   UNL     1       3.868   7.665  17.064  0.00  0.00    +0.000 OA
ATOM     19  H   UNL     1       2.488   5.187  18.534  0.00  0.00    +0.000 HD
BRANCH  16  20
ATOM     20  C   UNL     1       3.977   4.835  17.079  0.00  0.00    +0.000 C 
BRANCH  20  21
ATOM     21  C   UNL     1       4.802   3.846  17.900  0.00  0.00    +0.000 C 
BRANCH  21  22
ATOM     22  C   UNL     1       4.431   3.816  19.391  0.00  0.00    +0.000 C 
BRANCH  22  23
ATOM     23  N   UNL     1       4.130   2.474  19.936  0.00  0.00    +0.000 NA
ATOM     24  C   UNL     1       3.929   1.541  18.818  0.00  0.00    +0.000 C 
BRANCH  23  25
ATOM     25  C   UNL     1       2.951   2.510  20.825  0.00  0.00    +0.000 C 
BRANCH  25  26
ATOM     26  C   UNL     1       2.327   3.905  20.964  0.00  0.00    +0.000 C 
BRANCH  26  28
ATOM     27  C   UNL     1       0.710   2.895  19.327  0.00  0.00    +0.000 C 
ATOM     28  C   UNL     1       0.894   3.926  20.428  0.00  0.00    +0.000 C 
ENDBRANCH  26  28
ENDBRANCH  25  26
ENDBRANCH  23  25
ENDBRANCH  22  23
ENDBRANCH  21  22
ENDBRANCH  20  21
ENDBRANCH  16  20
ENDBRANCH   1  17
TORSDOF 8
ENDMDL
MODEL 5
REMARK VINA RESULT:      -7.2      1.619      2.582
REMARK  Name = 
REMARK  10 active torsions:
REMARK  status: ('A' for Active; 'I' for Inactive)
REMARK    1  A    between atoms: C_1  and  C_2
REMARK    2  A    between atoms: C_2  and  C_3
REMARK    3  A    between atoms: C_3  and  C_4
REMARK    4  A    between atoms: C_4  and  N_5
REMARK    5  A    between atoms: N_5  and  C_6
REMARK    6  A    between atoms: N_5  and  C_7
REMARK    7  A    between atoms: C_7  and  C_8
REMARK    8  A    between atoms: C_8  and  C_9
REMARK    9  A    between atoms: C_9  and  N_10
REMARK   10  A    between atoms: C_11  and  C_13
REMARK                            x       y       z     vdW  Elec       q    Type
REMARK                         _______ _______ _______ _____ _____    ______ ____
ROOT
ATOM      1  C   UNL     1       2.391   7.231  19.138  0.00  0.00    +0.000 A 
ATOM      2  C   UNL     1       2.178   8.018  18.003  0.00  0.00    +0.000 A 
ATOM      3  C   UNL     1       1.459   9.214  18.101  0.00  0.00    +0.000 A 
ATOM      4  C   UNL     1       0.939   9.621  19.345  0.00  0.00    +0.000 A 
ATOM      5  N   UNL     1       0.203  10.764  19.576  0.00  0.00    +0.000 NA
ATOM      6  C   UNL     1      -0.149  10.869  20.839  0.00  0.00    +0.000 A 
ATOM      7  N   UNL     1      -0.851  11.937  21.325  0.00  0.00    +0.000 N 
ATOM      8  C   UNL     1      -1.381  12.910  20.368  0.00  0.00    +0.000 C 
ATOM      9  C   UNL     1      -1.247  14.313  20.957  0.00  0.00    +0.000 C 
ATOM     10  C   UNL     1      -1.904  14.407  22.332  0.00  0.00    +0.000 C 
ATOM     11  C   UNL     1      -1.402  13.307  23.262  0.00  0.00    +0.000 C 
ATOM     12  C   UNL     1      -1.523  11.923  22.621  0.00  0.00    +0.000 C 
ATOM     13  S   UNL     1       0.421   9.559  21.821  0.00  0.00    +0.000 S 
ATOM     14  C   UNL     1       1.157   8.820  20.462  0.00  0.00    +0.000 A 
ATOM     15  C   UNL     1       1.877   7.617  20.385  0.00  0.00    +0.000 A 
ENDROOT
BRANCH   1  17
ATOM     16  N   UNL     1       2.728   5.072  18.063  0.00  0.00    +0.000 N 
ATOM     17  C   UNL     1       3.120   5.937  19.061  0.00  0.00    +0.000 C 
ATOM     18  O   UNL     1       4.022   5.697  19.857  0.00  0.00    +0.000 OA
ATOM     19  H   UNL     1       2.023   5.341  17.390  0.00  0.00    +0.000 HD
BRANCH  16  20
ATOM     20  C   UNL     1       3.306   3.751  17.928  0.00  0.00    +0.000 C 
BRANCH  20  21
ATOM     21  C   UNL     1       3.842   3.497  16.521  0.00  0.00    +0.000 C 
BRANCH  21  22
ATOM     22  C   UNL     1       5.304   3.928  16.325  0.00  0.00    +0.000 C 
BRANCH  22  23
ATOM     23  N   UNL     1       5.620   5.301  16.774  0.00  0.00    +0.000 NA
ATOM     24  C   UNL     1       5.236   6.247  15.717  0.00  0.00    +0.000 C 
BRANCH  23  25
ATOM     25  C   UNL     1       7.048   5.434  17.124  0.00  0.00    +0.000 C 
BRANCH  25  26
ATOM     26  C   UNL     1       7.288   5.901  18.566  0.00  0.00    +0.000 C 
BRANCH  26  28
ATOM     27  C   UNL     1       7.745   8.171  17.589  0.00  0.00    +0.000 C 
ATOM     28  C   UNL     1       8.194   7.133  18.605  0.00  0.00    +0.000 C 
ENDBRANCH  26  28
ENDBRANCH  25  26
ENDBRANCH  23  25
ENDBRANCH  22  23
ENDBRANCH  21  22
ENDBRANCH  20  21
ENDBRANCH  16  20
ENDBRANCH   1  17
TORSDOF 8
ENDMDL
MODEL 6
REMARK VINA RESULT:      -7.1      1.501      2.110
REMARK  Name = 
REMARK  10 active torsions:
REMARK  status: ('A' for Active; 'I' for Inactive)
REMARK    1  A    between atoms: C_1  and  C_2
REMARK    2  A    between atoms: C_2  and  C_3
REMARK    3  A    between atoms: C_3  and  C_4
REMARK    4  A    between atoms: C_4  and  N_5
REMARK    5  A    between atoms: N_5  and  C_6
REMARK    6  A    between atoms: N_5  and  C_7
REMARK    7  A    between atoms: C_7  and  C_8
REMARK    8  A    between atoms: C_8  and  C_9
REMARK    9  A    between atoms: C_9  and  N_10
REMARK   10  A    between atoms: C_11  and  C_13
REMARK                            x       y       z     vdW  Elec       q    Type
REMARK                         _______ _______ _______ _____ _____    ______ ____
ROOT
ATOM      1  C   UNL     1       2.042   7.472  19.474  0.00  0.00    +0.000 A 
ATOM      2  C   UNL     1       2.292   8.002  18.205  0.00  0.00    +0.000 A 
ATOM      3  C   UNL     1       1.888   9.304  17.894  0.00  0.00    +0.000 A 
ATOM      4  C   UNL     1       1.217  10.081  18.859  0.00  0.00    +0.000 A 
ATOM      5  N   UNL     1       0.753  11.366  18.679  0.00  0.00    +0.000 NA
ATOM      6  C   UNL     1       0.162  11.827  19.760  0.00  0.00    +0.000 A 
ATOM      7  N   UNL     1      -0.345  13.094  19.844  0.00  0.00    +0.000 N 
ATOM      8  C   UNL     1      -0.389  13.903  18.625  0.00  0.00    +0.000 C 
ATOM      9  C   UNL     1      -0.049  15.351  18.975  0.00  0.00    +0.000 C 
ATOM     10  C   UNL     1      -0.956  15.886  20.081  0.00  0.00    +0.000 C 
ATOM     11  C   UNL     1      -0.965  14.953  21.289  0.00  0.00    +0.000 C 
ATOM     12  C   UNL     1      -1.275  13.509  20.890  0.00  0.00    +0.000 C 
ATOM     13  S   UNL     1       0.154  10.694  21.073  0.00  0.00    +0.000 S 
ATOM     14  C   UNL     1       0.973   9.532  20.115  0.00  0.00    +0.000 A 
ATOM     15  C   UNL     1       1.372   8.227  20.447  0.00  0.00    +0.000 A 
ENDROOT
BRANCH   1  17
ATOM     16  N   UNL     1       3.230   5.420  18.919  0.00  0.00    +0.000 N 
ATOM     17  C   UNL     1       2.428   6.079  19.824  0.00  0.00    +0.000 C 
ATOM     18  O   UNL     1       2.038   5.584  20.876  0.00  0.00    +0.000 OA
ATOM     19  H   UNL     1       3.579   5.891  18.095  0.00  0.00    +0.000 HD
BRANCH  16  20
ATOM     20  C   UNL     1       3.613   4.036  19.104  0.00  0.00    +0.000 C 
BRANCH  20  21
ATOM     21  C   UNL     1       5.129   3.859  19.160  0.00  0.00    +0.000 C 
BRANCH  21  22
ATOM     22  C   UNL     1       5.909   5.182  19.173  0.00  0.00    +0.000 C 
BRANCH  22  23
ATOM     23  N   UNL     1       7.305   5.092  18.693  0.00  0.00    +0.000 NA
ATOM     24  C   UNL     1       7.908   6.432  18.732  0.00  0.00    +0.000 C 
BRANCH  23  25
ATOM     25  C   UNL     1       7.368   4.513  17.336  0.00  0.00    +0.000 C 
BRANCH  25  26
ATOM     26  C   UNL     1       6.714   5.390  16.260  0.00  0.00    +0.000 C 
BRANCH  26  28
ATOM     27  C   UNL     1       6.107   4.167  14.150  0.00  0.00    +0.000 C 
ATOM     28  C   UNL     1       5.619   4.627  15.514  0.00  0.00    +0.000 C 
ENDBRANCH  26  28
ENDBRANCH  25  26
ENDBRANCH  23  25
ENDBRANCH  22  23
ENDBRANCH  21  22
ENDBRANCH  20  21
ENDBRANCH  16  20
ENDBRANCH   1  17
TORSDOF 8
ENDMDL
MODEL 7
REMARK VINA RESULT:      -7.1      1.159      2.483
REMARK  Name = 
REMARK  10 active torsions:
REMARK  status: ('A' for Active; 'I' for Inactive)
REMARK    1  A    between atoms: C_1  and  C_2
REMARK    2  A    between atoms: C_2  and  C_3
REMARK    3  A    between atoms: C_3  and  C_4
REMARK    4  A    between atoms: C_4  and  N_5
REMARK    5  A    between atoms: N_5  and  C_6
REMARK    6  A    between atoms: N_5  and  C_7
REMARK    7  A    between atoms: C_7  and  C_8
REMARK    8  A    between atoms: C_8  and  C_9
REMARK    9  A    between atoms: C_9  and  N_10
REMARK   10  A    between atoms: C_11  and  C_13
REMARK                            x       y       z     vdW  Elec       q    Type
REMARK                         _______ _______ _______ _____ _____    ______ ____
ROOT
ATOM      1  C   UNL     1       2.154   7.162  19.709  0.00  0.00    +0.000 A 
ATOM      2  C   UNL     1       2.176   7.956  18.559  0.00  0.00    +0.000 A 
ATOM      3  C   UNL     1       1.613   9.236  18.577  0.00  0.00    +0.000 A 
ATOM      4  C   UNL     1       1.009   9.722  19.754  0.00  0.00    +0.000 A 
ATOM      5  N   UNL     1       0.407  10.953  19.902  0.00  0.00    +0.000 NA
ATOM      6  C   UNL     1      -0.072  11.118  21.117  0.00  0.00    +0.000 A 
ATOM      7  N   UNL     1      -0.680  12.273  21.522  0.00  0.00    +0.000 N 
ATOM      8  C   UNL     1      -0.966  13.295  20.513  0.00  0.00    +0.000 C 
ATOM      9  C   UNL     1      -0.720  14.676  21.118  0.00  0.00    +0.000 C 
ATOM     10  C   UNL     1      -1.513  14.870  22.408  0.00  0.00    +0.000 C 
ATOM     11  C   UNL     1      -1.268  13.725  23.387  0.00  0.00    +0.000 C 
ATOM     12  C   UNL     1      -1.493  12.361  22.732  0.00  0.00    +0.000 C 
ATOM     13  S   UNL     1       0.207   9.756  22.154  0.00  0.00    +0.000 S 
ATOM     14  C   UNL     1       0.993   8.913  20.886  0.00  0.00    +0.000 A 
ATOM     15  C   UNL     1       1.555   7.626  20.889  0.00  0.00    +0.000 A 
ENDROOT
BRANCH   1  17
ATOM     16  N   UNL     1       3.964   5.630  19.157  0.00  0.00    +0.000 N 
ATOM     17  C   UNL     1       2.713   5.784  19.712  0.00  0.00    +0.000 C 
ATOM     18  O   UNL     1       2.066   4.864  20.200  0.00  0.00    +0.000 OA
ATOM     19  H   UNL     1       4.487   6.429  18.824  0.00  0.00    +0.000 HD
BRANCH  16  20
ATOM     20  C   UNL     1       4.589   4.329  19.029  0.00  0.00    +0.000 C 
BRANCH  20  21
ATOM     21  C   UNL     1       4.766   3.915  17.570  0.00  0.00    +0.000 C 
BRANCH  21  22
ATOM     22  C   UNL     1       4.685   5.084  16.577  0.00  0.00    +0.000 C 
BRANCH  22  23
ATOM     23  N   UNL     1       5.852   5.227  15.680  0.00  0.00    +0.000 NA
ATOM     24  C   UNL     1       6.057   3.963  14.960  0.00  0.00    +0.000 C 
BRANCH  23  25
ATOM     25  C   UNL     1       7.060   5.620  16.432  0.00  0.00    +0.000 C 
BRANCH  25  26
ATOM     26  C   UNL     1       6.889   6.912  17.242  0.00  0.00    +0.000 C 
BRANCH  26  28
ATOM     27  C   UNL     1       7.872   5.813  19.277  0.00  0.00    +0.000 C 
ATOM     28  C   UNL     1       7.939   7.015  18.349  0.00  0.00    +0.000 C 
ENDBRANCH  26  28
ENDBRANCH  25  26
ENDBRANCH  23  25
ENDBRANCH  22  23
ENDBRANCH  21  22
ENDBRANCH  20  21
ENDBRANCH  16  20
ENDBRANCH   1  17
TORSDOF 8
ENDMDL
MODEL 8
REMARK VINA RESULT:      -7.1      0.973      1.405
REMARK  Name = 
REMARK  10 active torsions:
REMARK  status: ('A' for Active; 'I' for Inactive)
REMARK    1  A    between atoms: C_1  and  C_2
REMARK    2  A    between atoms: C_2  and  C_3
REMARK    3  A    between atoms: C_3  and  C_4
REMARK    4  A    between atoms: C_4  and  N_5
REMARK    5  A    between atoms: N_5  and  C_6
REMARK    6  A    between atoms: N_5  and  C_7
REMARK    7  A    between atoms: C_7  and  C_8
REMARK    8  A    between atoms: C_8  and  C_9
REMARK    9  A    between atoms: C_9  and  N_10
REMARK   10  A    between atoms: C_11  and  C_13
REMARK                            x       y       z     vdW  Elec       q    Type
REMARK                         _______ _______ _______ _____ _____    ______ ____
ROOT
ATOM      1  C   UNL     1       2.237   7.361  18.956  0.00  0.00    +0.000 A 
ATOM      2  C   UNL     1       2.208   8.232  17.864  0.00  0.00    +0.000 A 
ATOM      3  C   UNL     1       1.652   9.508  17.995  0.00  0.00    +0.000 A 
ATOM      4  C   UNL     1       1.107   9.913  19.231  0.00  0.00    +0.000 A 
ATOM      5  N   UNL     1       0.517  11.131  19.490  0.00  0.00    +0.000 NA
ATOM      6  C   UNL     1       0.097  11.214  20.735  0.00  0.00    +0.000 A 
ATOM      7  N   UNL     1      -0.487  12.339  21.246  0.00  0.00    +0.000 N 
ATOM      8  C   UNL     1      -0.816  13.428  20.323  0.00  0.00    +0.000 C 
ATOM      9  C   UNL     1      -0.536  14.764  21.009  0.00  0.00    +0.000 C 
ATOM     10  C   UNL     1      -1.266  14.870  22.346  0.00  0.00    +0.000 C 
ATOM     11  C   UNL     1      -0.980  13.661  23.231  0.00  0.00    +0.000 C 
ATOM     12  C   UNL     1      -1.241  12.344  22.496  0.00  0.00    +0.000 C 
ATOM     13  S   UNL     1       0.418   9.784  21.662  0.00  0.00    +0.000 S 
ATOM     14  C   UNL     1       1.140   9.028  20.304  0.00  0.00    +0.000 A 
ATOM     15  C   UNL     1       1.696   7.744  20.192  0.00  0.00    +0.000 A 
ENDROOT
BRANCH   1  17
ATOM     16  N   UNL     1       3.614   5.567  19.860  0.00  0.00    +0.000 N 
ATOM     17  C   UNL     1       2.790   5.986  18.839  0.00  0.00    +0.000 C 
ATOM     18  O   UNL     1       2.496   5.290  17.872  0.00  0.00    +0.000 OA
ATOM     19  H   UNL     1       3.776   6.152  20.669  0.00  0.00    +0.000 HD
BRANCH  16  20
ATOM     20  C   UNL     1       4.277   4.280  19.829  0.00  0.00    +0.000 C 
BRANCH  20  21
ATOM     21  C   UNL     1       5.525   4.295  18.949  0.00  0.00    +0.000 C 
BRANCH  21  22
ATOM     22  C   UNL     1       6.359   5.580  19.074  0.00  0.00    +0.000 C 
BRANCH  22  23
ATOM     23  N   UNL     1       7.487   5.691  18.124  0.00  0.00    +0.000 NA
ATOM     24  C   UNL     1       7.438   7.012  17.482  0.00  0.00    +0.000 C 
BRANCH  23  25
ATOM     25  C   UNL     1       7.454   4.604  17.125  0.00  0.00    +0.000 C 
BRANCH  25  26
ATOM     26  C   UNL     1       6.908   5.039  15.759  0.00  0.00    +0.000 C 
BRANCH  26  28
ATOM     27  C   UNL     1       6.094   3.921  13.661  0.00  0.00    +0.000 C 
ATOM     28  C   UNL     1       5.971   3.981  15.175  0.00  0.00    +0.000 C 
ENDBRANCH  26  28
ENDBRANCH  25  26
ENDBRANCH  23  25
ENDBRANCH  22  23
ENDBRANCH  21  22
ENDBRANCH  20  21
ENDBRANCH  16  20
ENDBRANCH   1  17
TORSDOF 8
ENDMDL
MODEL 9
REMARK VINA RESULT:      -7.0      1.230      1.568
REMARK  Name = 
REMARK  10 active torsions:
REMARK  status: ('A' for Active; 'I' for Inactive)
REMARK    1  A    between atoms: C_1  and  C_2
REMARK    2  A    between atoms: C_2  and  C_3
REMARK    3  A    between atoms: C_3  and  C_4
REMARK    4  A    between atoms: C_4  and  N_5
REMARK    5  A    between atoms: N_5  and  C_6
REMARK    6  A    between atoms: N_5  and  C_7
REMARK    7  A    between atoms: C_7  and  C_8
REMARK    8  A    between atoms: C_8  and  C_9
REMARK    9  A    between atoms: C_9  and  N_10
REMARK   10  A    between atoms: C_11  and  C_13
REMARK                            x       y       z     vdW  Elec       q    Type
REMARK                         _______ _______ _______ _____ _____    ______ ____
ROOT
ATOM      1  C   UNL     1       2.121   7.480  19.450  0.00  0.00    +0.000 A 
ATOM      2  C   UNL     1       2.375   8.004  18.180  0.00  0.00    +0.000 A 
ATOM      3  C   UNL     1       1.957   9.299  17.856  0.00  0.00    +0.000 A 
ATOM      4  C   UNL     1       1.266  10.073  18.810  0.00  0.00    +0.000 A 
ATOM      5  N   UNL     1       0.788  11.351  18.617  0.00  0.00    +0.000 NA
ATOM      6  C   UNL     1       0.181  11.812  19.690  0.00  0.00    +0.000 A 
ATOM      7  N   UNL     1      -0.344  13.072  19.760  0.00  0.00    +0.000 N 
ATOM      8  C   UNL     1      -0.387  13.873  18.535  0.00  0.00    +0.000 C 
ATOM      9  C   UNL     1      -0.070  15.327  18.878  0.00  0.00    +0.000 C 
ATOM     10  C   UNL     1      -0.994  15.857  19.973  0.00  0.00    +0.000 C 
ATOM     11  C   UNL     1      -1.000  14.933  21.187  0.00  0.00    +0.000 C 
ATOM     12  C   UNL     1      -1.289  13.482  20.795  0.00  0.00    +0.000 C 
ATOM     13  S   UNL     1       0.176  10.687  21.010  0.00  0.00    +0.000 S 
ATOM     14  C   UNL     1       1.018   9.530  20.068  0.00  0.00    +0.000 A 
ATOM     15  C   UNL     1       1.431   8.233  20.412  0.00  0.00    +0.000 A 
ENDROOT
BRANCH   1  17
ATOM     16  N   UNL     1       3.651   5.603  19.197  0.00  0.00    +0.000 N 
ATOM     17  C   UNL     1       2.521   6.095  19.813  0.00  0.00    +0.000 C 
ATOM     18  O   UNL     1       1.859   5.461  20.628  0.00  0.00    +0.000 OA
ATOM     19  H   UNL     1       4.201   6.185  18.580  0.00  0.00    +0.000 HD
BRANCH  16  20
ATOM     20  C   UNL     1       4.104   4.243  19.406  0.00  0.00    +0.000 C 
BRANCH  20  21
ATOM     21  C   UNL     1       4.603   3.596  18.116  0.00  0.00    +0.000 C 
BRANCH  21  22
ATOM     22  C   UNL     1       4.476   4.499  16.878  0.00  0.00    +0.000 C 
BRANCH  22  23
ATOM     23  N   UNL     1       5.605   5.429  16.661  0.00  0.00    +0.000 NA
ATOM     24  C   UNL     1       5.134   6.571  15.865  0.00  0.00    +0.000 C 
BRANCH  23  25
ATOM     25  C   UNL     1       6.741   4.749  16.008  0.00  0.00    +0.000 C 
BRANCH  25  26
ATOM     26  C   UNL     1       6.710   4.831  14.476  0.00  0.00    +0.000 C 
BRANCH  26  28
ATOM     27  C   UNL     1       6.138   3.628  12.345  0.00  0.00    +0.000 C 
ATOM     28  C   UNL     1       6.204   3.526  13.860  0.00  0.00    +0.000 C 
ENDBRANCH  26  28
ENDBRANCH  25  26
ENDBRANCH  23  25
ENDBRANCH  22  23
ENDBRANCH  21  22
ENDBRANCH  20  21
ENDBRANCH  16  20
ENDBRANCH   1  17
TORSDOF 8
ENDMDL
