MODEL 1
REMARK VINA RESULT:      -7.8      0.000      0.000
REMARK  Name = 
REMARK  7 active torsions:
REMARK  status: ('A' for Active; 'I' for Inactive)
REMARK    1  A    between atoms: C_1  and  C_2
REMARK    2  A    between atoms: C_4  and  C_5
REMARK    3  A    between atoms: N_9  and  C_10
REMARK    4  A    between atoms: N_16  and  C_17
REMARK    5  A    between atoms: C_20  and  C_21
REMARK    6  A    between atoms: N_22  and  C_23
REMARK    7  A    between atoms: C_26  and  N_27
REMARK                            x       y       z     vdW  Elec       q    Type
REMARK                         _______ _______ _______ _____ _____    ______ ____
ROOT
ATOM      1  C   UNL     1       0.790  13.951  20.875  0.00  0.00    +0.000 C 
ATOM      2  C   UNL     1       0.651  12.737  20.018  0.00  0.00    +0.000 A 
ATOM      3  C   UNL     1       1.673  12.141  19.312  0.00  0.00    +0.000 A 
ATOM      4  C   UNL     1       1.180  10.941  18.787  0.00  0.00    +0.000 A 
ATOM      5  C   UNL     1      -0.155  10.820  19.121  0.00  0.00    +0.000 A 
ATOM      6  C   UNL     1      -1.114   9.765  18.672  0.00  0.00    +0.000 C 
ATOM      7  N   UNL     1      -0.502  11.952  19.879  0.00  0.00    +0.000 N 
ENDROOT
BRANCH   4   8
ATOM      8  C   UNL     1       1.945  10.014  18.035  0.00  0.00    +0.000 C 
ATOM      9  C   UNL     1       2.208   8.747  18.378  0.00  0.00    +0.000 C 
ATOM     10  S   UNL     1       3.117   7.689  17.373  0.00  0.00    +0.000 S 
ATOM     11  C   UNL     1       3.307   6.499  18.644  0.00  0.00    +0.000 C 
ATOM     12  N   UNL     1       4.076   5.458  18.659  0.00  0.00    +0.000 NA
ATOM     13  N   UNL     1       2.489   6.827  19.697  0.00  0.00    +0.000 N 
ATOM     14  C   UNL     1       2.305   5.990  20.864  0.00  0.00    +0.000 C 
ATOM     15  C   UNL     1       1.835   8.046  19.635  0.00  0.00    +0.000 C 
ATOM     16  O   UNL     1       1.084   8.479  20.497  0.00  0.00    +0.000 OA
BRANCH  12  17
ATOM     17  C   UNL     1       4.921   5.114  17.589  0.00  0.00    +0.000 A 
ATOM     18  C   UNL     1       6.250   5.542  17.481  0.00  0.00    +0.000 A 
ATOM     19  C   UNL     1       7.024   5.221  16.364  0.00  0.00    +0.000 A 
ATOM     20  C   UNL     1       6.507   4.385  15.379  0.00  0.00    +0.000 A 
ATOM     21  C   UNL     1       5.220   3.869  15.520  0.00  0.00    +0.000 A 
ATOM     22  C   UNL     1       4.432   4.238  16.614  0.00  0.00    +0.000 A 
ENDBRANCH  12  17
ENDBRANCH   4   8
BRANCH   7  23
ATOM     23  C   UNL     1      -1.792  12.238  20.429  0.00  0.00    +0.000 A 
ATOM     24  C   UNL     1      -1.989  12.276  21.810  0.00  0.00    +0.000 A 
ATOM     25  C   UNL     1      -3.248  12.563  22.342  0.00  0.00    +0.000 A 
ATOM     26  C   UNL     1      -4.337  12.879  21.522  0.00  0.00    +0.000 A 
ATOM     27  C   UNL     1      -4.136  12.824  20.142  0.00  0.00    +0.000 A 
ATOM     28  C   UNL     1      -2.882  12.493  19.595  0.00  0.00    +0.000 A 
BRANCH  26  29
ATOM     29  N   UNL     1      -5.521  13.296  22.095  0.00  0.00    +0.000 N 
ATOM     30  C   UNL     1      -6.818  12.858  21.567  0.00  0.00    +0.000 C 
ATOM     31  C   UNL     1      -7.852  13.961  21.852  0.00  0.00    +0.000 C 
ATOM     32  O   UNL     1      -7.917  14.287  23.252  0.00  0.00    +0.000 OA
ATOM     33  C   UNL     1      -6.630  14.728  23.726  0.00  0.00    +0.000 C 
ATOM     34  C   UNL     1      -5.557  13.646  23.524  0.00  0.00    +0.000 C 
ENDBRANCH  26  29
ENDBRANCH   7  23
TORSDOF 4
ENDMDL
MODEL 2
REMARK VINA RESULT:      -7.7      2.693      3.379
REMARK  Name = 
REMARK  7 active torsions:
REMARK  status: ('A' for Active; 'I' for Inactive)
REMARK    1  A    between atoms: C_1  and  C_2
REMARK    2  A    between atoms: C_4  and  C_5
REMARK    3  A    between atoms: N_9  and  C_10
REMARK    4  A    between atoms: N_16  and  C_17
REMARK    5  A    between atoms: C_20  and  C_21
REMARK    6  A    between atoms: N_22  and  C_23
REMARK    7  A    between atoms: C_26  and  N_27
REMARK                            x       y       z     vdW  Elec       q    Type
REMARK                         _______ _______ _______ _____ _____    ______ ____
ROOT
ATOM      1  C   UNL     1      -2.888  11.853  18.956  0.00  0.00    +0.000 C 
ATOM      2  C   UNL     1      -1.476  11.407  19.141  0.00  0.00    +0.000 A 
ATOM      3  C   UNL     1      -0.836  10.458  18.375  0.00  0.00    +0.000 A 
ATOM      4  C   UNL     1       0.513  10.455  18.746  0.00  0.00    +0.000 A 
ATOM      5  C   UNL     1       0.698  11.360  19.773  0.00  0.00    +0.000 A 
ATOM      6  C   UNL     1       1.945  11.601  20.562  0.00  0.00    +0.000 C 
ATOM      7  N   UNL     1      -0.549  11.951  20.041  0.00  0.00    +0.000 N 
ENDROOT
BRANCH   4   8
ATOM      8  C   UNL     1       1.513   9.645  18.151  0.00  0.00    +0.000 C 
ATOM      9  C   UNL     1       1.896   8.431  18.565  0.00  0.00    +0.000 C 
ATOM     10  S   UNL     1       3.097   7.513  17.747  0.00  0.00    +0.000 S 
ATOM     11  C   UNL     1       3.246   6.368  19.063  0.00  0.00    +0.000 C 
ATOM     12  N   UNL     1       4.143   5.449  19.229  0.00  0.00    +0.000 NA
ATOM     13  N   UNL     1       2.230   6.577  19.963  0.00  0.00    +0.000 N 
ATOM     14  C   UNL     1       1.981   5.727  21.109  0.00  0.00    +0.000 C 
ATOM     15  C   UNL     1       1.428   7.688  19.765  0.00  0.00    +0.000 C 
ATOM     16  O   UNL     1       0.494   8.010  20.484  0.00  0.00    +0.000 OA
BRANCH  12  17
ATOM     17  C   UNL     1       5.191   5.228  18.317  0.00  0.00    +0.000 A 
ATOM     18  C   UNL     1       6.517   5.611  18.551  0.00  0.00    +0.000 A 
ATOM     19  C   UNL     1       7.505   5.422  17.582  0.00  0.00    +0.000 A 
ATOM     20  C   UNL     1       7.197   4.759  16.398  0.00  0.00    +0.000 A 
ATOM     21  C   UNL     1       5.904   4.282  16.192  0.00  0.00    +0.000 A 
ATOM     22  C   UNL     1       4.908   4.522  17.143  0.00  0.00    +0.000 A 
ENDBRANCH  12  17
ENDBRANCH   4   8
BRANCH   7  23
ATOM     23  C   UNL     1      -0.818  12.944  21.036  0.00  0.00    +0.000 A 
ATOM     24  C   UNL     1      -1.179  12.578  22.333  0.00  0.00    +0.000 A 
ATOM     25  C   UNL     1      -1.432  13.551  23.302  0.00  0.00    +0.000 A 
ATOM     26  C   UNL     1      -1.280  14.915  23.032  0.00  0.00    +0.000 A 
ATOM     27  C   UNL     1      -0.934  15.275  21.727  0.00  0.00    +0.000 A 
ATOM     28  C   UNL     1      -0.719  14.304  20.732  0.00  0.00    +0.000 A 
BRANCH  26  29
ATOM     29  N   UNL     1      -1.402  15.830  24.057  0.00  0.00    +0.000 N 
ATOM     30  C   UNL     1      -1.894  17.190  23.810  0.00  0.00    +0.000 C 
ATOM     31  C   UNL     1      -1.257  18.130  24.849  0.00  0.00    +0.000 C 
ATOM     32  O   UNL     1      -1.515  17.694  26.196  0.00  0.00    +0.000 OA
ATOM     33  C   UNL     1      -1.002  16.365  26.401  0.00  0.00    +0.000 C 
ATOM     34  C   UNL     1      -1.642  15.360  25.431  0.00  0.00    +0.000 C 
ENDBRANCH  26  29
ENDBRANCH   7  23
TORSDOF 4
ENDMDL
MODEL 3
REMARK VINA RESULT:      -7.5      2.533      3.362
REMARK  Name = 
REMARK  7 active torsions:
REMARK  status: ('A' for Active; 'I' for Inactive)
REMARK    1  A    between atoms: C_1  and  C_2
REMARK    2  A    between atoms: C_4  and  C_5
REMARK    3  A    between atoms: N_9  and  C_10
REMARK    4  A    between atoms: N_16  and  C_17
REMARK    5  A    between atoms: C_20  and  C_21
REMARK    6  A    between atoms: N_22  and  C_23
REMARK    7  A    between atoms: C_26  and  N_27
REMARK                            x       y       z     vdW  Elec       q    Type
REMARK                         _______ _______ _______ _____ _____    ______ ____
ROOT
ATOM      1  C   UNL     1      -2.893  11.714  18.730  0.00  0.00    +0.000 C 
ATOM      2  C   UNL     1      -1.484  11.295  18.987  0.00  0.00    +0.000 A 
ATOM      3  C   UNL     1      -0.795  10.340  18.270  0.00  0.00    +0.000 A 
ATOM      4  C   UNL     1       0.536  10.367  18.700  0.00  0.00    +0.000 A 
ATOM      5  C   UNL     1       0.661  11.297  19.714  0.00  0.00    +0.000 A 
ATOM      6  C   UNL     1       1.868  11.574  20.552  0.00  0.00    +0.000 C 
ATOM      7  N   UNL     1      -0.606  11.873  19.914  0.00  0.00    +0.000 N 
ENDROOT
BRANCH   4   8
ATOM      8  C   UNL     1       1.574   9.561  18.168  0.00  0.00    +0.000 C 
ATOM      9  C   UNL     1       1.931   8.346  18.601  0.00  0.00    +0.000 C 
ATOM     10  S   UNL     1       3.184   7.434  17.858  0.00  0.00    +0.000 S 
ATOM     11  C   UNL     1       3.250   6.283  19.177  0.00  0.00    +0.000 C 
ATOM     12  N   UNL     1       4.137   5.366  19.396  0.00  0.00    +0.000 NA
ATOM     13  N   UNL     1       2.178   6.487  20.010  0.00  0.00    +0.000 N 
ATOM     14  C   UNL     1       1.857   5.631  21.134  0.00  0.00    +0.000 C 
ATOM     15  C   UNL     1       1.388   7.597  19.765  0.00  0.00    +0.000 C 
ATOM     16  O   UNL     1       0.409   7.915  20.424  0.00  0.00    +0.000 OA
BRANCH  12  17
ATOM     17  C   UNL     1       5.242   5.150  18.552  0.00  0.00    +0.000 A 
ATOM     18  C   UNL     1       5.139   4.622  17.260  0.00  0.00    +0.000 A 
ATOM     19  C   UNL     1       6.277   4.370  16.490  0.00  0.00    +0.000 A 
ATOM     20  C   UNL     1       7.533   4.732  16.970  0.00  0.00    +0.000 A 
ATOM     21  C   UNL     1       7.642   5.351  18.214  0.00  0.00    +0.000 A 
ATOM     22  C   UNL     1       6.504   5.550  19.000  0.00  0.00    +0.000 A 
ENDBRANCH  12  17
ENDBRANCH   4   8
BRANCH   7  23
ATOM     23  C   UNL     1      -0.934  12.882  20.874  0.00  0.00    +0.000 A 
ATOM     24  C   UNL     1      -1.299  12.539  22.177  0.00  0.00    +0.000 A 
ATOM     25  C   UNL     1      -1.611  13.528  23.112  0.00  0.00    +0.000 A 
ATOM     26  C   UNL     1      -1.514  14.889  22.803  0.00  0.00    +0.000 A 
ATOM     27  C   UNL     1      -1.163  15.224  21.494  0.00  0.00    +0.000 A 
ATOM     28  C   UNL     1      -0.889  14.235  20.531  0.00  0.00    +0.000 A 
BRANCH  26  29
ATOM     29  N   UNL     1      -1.692  15.827  23.798  0.00  0.00    +0.000 N 
ATOM     30  C   UNL     1      -0.625  16.131  24.759  0.00  0.00    +0.000 C 
ATOM     31  C   UNL     1      -1.278  16.575  26.080  0.00  0.00    +0.000 C 
ATOM     32  O   UNL     1      -2.171  17.687  25.890  0.00  0.00    +0.000 OA
ATOM     33  C   UNL     1      -3.211  17.343  24.955  0.00  0.00    +0.000 C 
ATOM     34  C   UNL     1      -2.629  16.944  23.590  0.00  0.00    +0.000 C 
ENDBRANCH  26  29
ENDBRANCH   7  23
TORSDOF 4
ENDMDL
MODEL 4
REMARK VINA RESULT:      -7.5      2.093      2.898
REMARK  Name = 
REMARK  7 active torsions:
REMARK  status: ('A' for Active; 'I' for Inactive)
REMARK    1  A    between atoms: C_1  and  C_2
REMARK    2  A    between atoms: C_4  and  C_5
REMARK    3  A    between atoms: N_9  and  C_10
REMARK    4  A    between atoms: N_16  and  C_17
REMARK    5  A    between atoms: C_20  and  C_21
REMARK    6  A    between atoms: N_22  and  C_23
REMARK    7  A    between atoms: C_26  and  N_27
REMARK                            x       y       z     vdW  Elec       q    Type
REMARK                         _______ _______ _______ _____ _____    ______ ____
ROOT
ATOM      1  C   UNL     1      -3.047  11.520  18.406  0.00  0.00    +0.000 C 
ATOM      2  C   UNL     1      -1.651  11.114  18.743  0.00  0.00    +0.000 A 
ATOM      3  C   UNL     1      -0.902  10.189  18.048  0.00  0.00    +0.000 A 
ATOM      4  C   UNL     1       0.397  10.223  18.565  0.00  0.00    +0.000 A 
ATOM      5  C   UNL     1       0.442  11.126  19.609  0.00  0.00    +0.000 A 
ATOM      6  C   UNL     1       1.587  11.398  20.531  0.00  0.00    +0.000 C 
ATOM      7  N   UNL     1      -0.844  11.679  19.741  0.00  0.00    +0.000 N 
ENDROOT
BRANCH   4   8
ATOM      8  C   UNL     1       1.480   9.446  18.080  0.00  0.00    +0.000 C 
ATOM      9  C   UNL     1       1.876   8.259  18.556  0.00  0.00    +0.000 C 
ATOM     10  S   UNL     1       3.183   7.379  17.870  0.00  0.00    +0.000 S 
ATOM     11  C   UNL     1       3.263   6.269  19.222  0.00  0.00    +0.000 C 
ATOM     12  N   UNL     1       4.180   5.395  19.488  0.00  0.00    +0.000 NA
ATOM     13  N   UNL     1       2.163   6.452  20.023  0.00  0.00    +0.000 N 
ATOM     14  C   UNL     1       1.849   5.614  21.163  0.00  0.00    +0.000 C 
ATOM     15  C   UNL     1       1.335   7.521  19.728  0.00  0.00    +0.000 C 
ATOM     16  O   UNL     1       0.327   7.816  20.354  0.00  0.00    +0.000 OA
BRANCH  12  17
ATOM     17  C   UNL     1       5.313   5.202  18.678  0.00  0.00    +0.000 A 
ATOM     18  C   UNL     1       6.611   5.562  19.061  0.00  0.00    +0.000 A 
ATOM     19  C   UNL     1       7.691   5.404  18.190  0.00  0.00    +0.000 A 
ATOM     20  C   UNL     1       7.501   4.795  16.953  0.00  0.00    +0.000 A 
ATOM     21  C   UNL     1       6.233   4.340  16.597  0.00  0.00    +0.000 A 
ATOM     22  C   UNL     1       5.147   4.550  17.452  0.00  0.00    +0.000 A 
ENDBRANCH  12  17
ENDBRANCH   4   8
BRANCH   7  23
ATOM     23  C   UNL     1      -1.250  12.657  20.703  0.00  0.00    +0.000 A 
ATOM     24  C   UNL     1      -1.211  14.019  20.400  0.00  0.00    +0.000 A 
ATOM     25  C   UNL     1      -1.615  14.969  21.340  0.00  0.00    +0.000 A 
ATOM     26  C   UNL     1      -2.125  14.597  22.589  0.00  0.00    +0.000 A 
ATOM     27  C   UNL     1      -2.146  13.234  22.891  0.00  0.00    +0.000 A 
ATOM     28  C   UNL     1      -1.700  12.270  21.967  0.00  0.00    +0.000 A 
BRANCH  26  29
ATOM     29  N   UNL     1      -2.644  15.561  23.427  0.00  0.00    +0.000 N 
ATOM     30  C   UNL     1      -1.775  16.526  24.111  0.00  0.00    +0.000 C 
ATOM     31  C   UNL     1      -2.448  16.928  25.435  0.00  0.00    +0.000 C 
ATOM     32  O   UNL     1      -3.775  17.444  25.227  0.00  0.00    +0.000 OA
ATOM     33  C   UNL     1      -4.599  16.463  24.570  0.00  0.00    +0.000 C 
ATOM     34  C   UNL     1      -4.013  16.057  23.209  0.00  0.00    +0.000 C 
ENDBRANCH  26  29
ENDBRANCH   7  23
TORSDOF 4
ENDMDL
MODEL 5
REMARK VINA RESULT:      -7.4      3.008     11.515
REMARK  Name = 
REMARK  7 active torsions:
REMARK  status: ('A' for Active; 'I' for Inactive)
REMARK    1  A    between atoms: C_1  and  C_2
REMARK    2  A    between atoms: C_4  and  C_5
REMARK    3  A    between atoms: N_9  and  C_10
REMARK    4  A    between atoms: N_16  and  C_17
REMARK    5  A    between atoms: C_20  and  C_21
REMARK    6  A    between atoms: N_22  and  C_23
REMARK    7  A    between atoms: C_26  and  N_27
REMARK                            x       y       z     vdW  Elec       q    Type
REMARK                         _______ _______ _______ _____ _____    ______ ____
ROOT
ATOM      1  C   UNL     1       2.673  12.375  18.065  0.00  0.00    +0.000 C 
ATOM      2  C   UNL     1       1.339  12.221  18.715  0.00  0.00    +0.000 A 
ATOM      3  C   UNL     1       0.468  13.252  18.998  0.00  0.00    +0.000 A 
ATOM      4  C   UNL     1      -0.732  12.683  19.436  0.00  0.00    +0.000 A 
ATOM      5  C   UNL     1      -0.590  11.310  19.475  0.00  0.00    +0.000 A 
ATOM      6  C   UNL     1      -1.569  10.307  19.997  0.00  0.00    +0.000 C 
ATOM      7  N   UNL     1       0.713  11.010  19.042  0.00  0.00    +0.000 N 
ENDROOT
BRANCH   4   8
ATOM      8  C   UNL     1      -1.896  13.417  19.780  0.00  0.00    +0.000 C 
ATOM      9  C   UNL     1      -2.122  14.038  20.944  0.00  0.00    +0.000 C 
ATOM     10  S   UNL     1      -3.557  14.936  21.246  0.00  0.00    +0.000 S 
ATOM     11  C   UNL     1      -3.234  15.043  22.964  0.00  0.00    +0.000 C 
ATOM     12  N   UNL     1      -4.025  15.451  23.904  0.00  0.00    +0.000 NA
ATOM     13  N   UNL     1      -1.955  14.608  23.213  0.00  0.00    +0.000 N 
ATOM     14  C   UNL     1      -1.319  14.679  24.512  0.00  0.00    +0.000 C 
ATOM     15  C   UNL     1      -1.261  14.046  22.155  0.00  0.00    +0.000 C 
ATOM     16  O   UNL     1      -0.122  13.607  22.224  0.00  0.00    +0.000 OA
BRANCH  12  17
ATOM     17  C   UNL     1      -5.338  15.893  23.663  0.00  0.00    +0.000 A 
ATOM     18  C   UNL     1      -6.457  15.052  23.685  0.00  0.00    +0.000 A 
ATOM     19  C   UNL     1      -7.730  15.535  23.376  0.00  0.00    +0.000 A 
ATOM     20  C   UNL     1      -7.916  16.892  23.131  0.00  0.00    +0.000 A 
ATOM     21  C   UNL     1      -6.829  17.761  23.204  0.00  0.00    +0.000 A 
ATOM     22  C   UNL     1      -5.549  17.261  23.461  0.00  0.00    +0.000 A 
ENDBRANCH  12  17
ENDBRANCH   4   8
BRANCH   7  23
ATOM     23  C   UNL     1       1.288   9.704  18.931  0.00  0.00    +0.000 A 
ATOM     24  C   UNL     1       1.738   9.222  17.701  0.00  0.00    +0.000 A 
ATOM     25  C   UNL     1       2.305   7.950  17.600  0.00  0.00    +0.000 A 
ATOM     26  C   UNL     1       2.498   7.139  18.724  0.00  0.00    +0.000 A 
ATOM     27  C   UNL     1       2.032   7.622  19.949  0.00  0.00    +0.000 A 
ATOM     28  C   UNL     1       1.418   8.885  20.054  0.00  0.00    +0.000 A 
BRANCH  26  29
ATOM     29  N   UNL     1       3.191   5.954  18.598  0.00  0.00    +0.000 N 
ATOM     30  C   UNL     1       4.201   5.770  17.549  0.00  0.00    +0.000 C 
ATOM     31  C   UNL     1       4.245   4.277  17.178  0.00  0.00    +0.000 C 
ATOM     32  O   UNL     1       4.496   3.447  18.326  0.00  0.00    +0.000 OA
ATOM     33  C   UNL     1       3.475   3.644  19.323  0.00  0.00    +0.000 C 
ATOM     34  C   UNL     1       3.415   5.109  19.782  0.00  0.00    +0.000 C 
ENDBRANCH  26  29
ENDBRANCH   7  23
TORSDOF 4
ENDMDL
MODEL 6
REMARK VINA RESULT:      -7.3      1.774      2.392
REMARK  Name = 
REMARK  7 active torsions:
REMARK  status: ('A' for Active; 'I' for Inactive)
REMARK    1  A    between atoms: C_1  and  C_2
REMARK    2  A    between atoms: C_4  and  C_5
REMARK    3  A    between atoms: N_9  and  C_10
REMARK    4  A    between atoms: N_16  and  C_17
REMARK    5  A    between atoms: C_20  and  C_21
REMARK    6  A    between atoms: N_22  and  C_23
REMARK    7  A    between atoms: C_26  and  N_27
REMARK                            x       y       z     vdW  Elec       q    Type
REMARK                         _______ _______ _______ _____ _____    ______ ____
ROOT
ATOM      1  C   UNL     1      -0.556   9.610  23.392  0.00  0.00    +0.000 C 
ATOM      2  C   UNL     1       0.057   9.835  22.050  0.00  0.00    +0.000 A 
ATOM      3  C   UNL     1       0.967   8.998  21.441  0.00  0.00    +0.000 A 
ATOM      4  C   UNL     1       1.159   9.461  20.135  0.00  0.00    +0.000 A 
ATOM      5  C   UNL     1       0.413  10.609  19.952  0.00  0.00    +0.000 A 
ATOM      6  C   UNL     1       0.407  11.510  18.759  0.00  0.00    +0.000 C 
ATOM      7  N   UNL     1      -0.269  10.863  21.154  0.00  0.00    +0.000 N 
ENDROOT
BRANCH   4   8
ATOM      8  C   UNL     1       1.991   8.837  19.171  0.00  0.00    +0.000 C 
ATOM      9  C   UNL     1       2.317   7.540  19.130  0.00  0.00    +0.000 C 
ATOM     10  S   UNL     1       3.306   6.875  17.891  0.00  0.00    +0.000 S 
ATOM     11  C   UNL     1       3.533   5.370  18.756  0.00  0.00    +0.000 C 
ATOM     12  N   UNL     1       4.359   4.409  18.489  0.00  0.00    +0.000 NA
ATOM     13  N   UNL     1       2.675   5.329  19.828  0.00  0.00    +0.000 N 
ATOM     14  C   UNL     1       2.513   4.173  20.685  0.00  0.00    +0.000 C 
ATOM     15  C   UNL     1       1.956   6.478  20.106  0.00  0.00    +0.000 C 
ATOM     16  O   UNL     1       1.164   6.597  21.030  0.00  0.00    +0.000 OA
BRANCH  12  17
ATOM     17  C   UNL     1       5.246   4.441  17.398  0.00  0.00    +0.000 A 
ATOM     18  C   UNL     1       6.604   4.758  17.511  0.00  0.00    +0.000 A 
ATOM     19  C   UNL     1       7.425   4.836  16.384  0.00  0.00    +0.000 A 
ATOM     20  C   UNL     1       6.915   4.504  15.132  0.00  0.00    +0.000 A 
ATOM     21  C   UNL     1       5.590   4.090  15.015  0.00  0.00    +0.000 A 
ATOM     22  C   UNL     1       4.761   4.067  16.141  0.00  0.00    +0.000 A 
ENDBRANCH  12  17
ENDBRANCH   4   8
BRANCH   7  23
ATOM     23  C   UNL     1      -1.154  11.958  21.410  0.00  0.00    +0.000 A 
ATOM     24  C   UNL     1      -2.401  12.032  20.787  0.00  0.00    +0.000 A 
ATOM     25  C   UNL     1      -3.263  13.099  21.046  0.00  0.00    +0.000 A 
ATOM     26  C   UNL     1      -2.942  14.096  21.973  0.00  0.00    +0.000 A 
ATOM     27  C   UNL     1      -1.687  14.024  22.581  0.00  0.00    +0.000 A 
ATOM     28  C   UNL     1      -0.792  12.976  22.295  0.00  0.00    +0.000 A 
BRANCH  26  29
ATOM     29  N   UNL     1      -3.883  15.049  22.301  0.00  0.00    +0.000 N 
ATOM     30  C   UNL     1      -4.095  15.464  23.693  0.00  0.00    +0.000 C 
ATOM     31  C   UNL     1      -5.562  15.898  23.850  0.00  0.00    +0.000 C 
ATOM     32  O   UNL     1      -5.919  16.931  22.914  0.00  0.00    +0.000 OA
ATOM     33  C   UNL     1      -5.714  16.479  21.563  0.00  0.00    +0.000 C 
ATOM     34  C   UNL     1      -4.249  16.082  21.319  0.00  0.00    +0.000 C 
ENDBRANCH  26  29
ENDBRANCH   7  23
TORSDOF 4
ENDMDL
MODEL 7
REMARK VINA RESULT:      -7.3      2.818     11.399
REMARK  Name = 
REMARK  7 active torsions:
REMARK  status: ('A' for Active; 'I' for Inactive)
REMARK    1  A    between atoms: C_1  and  C_2
REMARK    2  A    between atoms: C_4  and  C_5
REMARK    3  A    between atoms: N_9  and  C_10
REMARK    4  A    between atoms: N_16  and  C_17
REMARK    5  A    between atoms: C_20  and  C_21
REMARK    6  A    between atoms: N_22  and  C_23
REMARK    7  A    between atoms: C_26  and  N_27
REMARK                            x       y       z     vdW  Elec       q    Type
REMARK                         _______ _______ _______ _____ _____    ______ ____
ROOT
ATOM      1  C   UNL     1       2.560  11.710  18.058  0.00  0.00    +0.000 C 
ATOM      2  C   UNL     1       1.482  11.512  19.070  0.00  0.00    +0.000 A 
ATOM      3  C   UNL     1       0.712  12.516  19.617  0.00  0.00    +0.000 A 
ATOM      4  C   UNL     1      -0.293  11.911  20.379  0.00  0.00    +0.000 A 
ATOM      5  C   UNL     1      -0.116  10.541  20.348  0.00  0.00    +0.000 A 
ATOM      6  C   UNL     1      -0.875   9.506  21.116  0.00  0.00    +0.000 C 
ATOM      7  N   UNL     1       1.007  10.281  19.543  0.00  0.00    +0.000 N 
ENDROOT
BRANCH   4   8
ATOM      8  C   UNL     1      -1.319  12.609  21.066  0.00  0.00    +0.000 C 
ATOM      9  C   UNL     1      -2.609  12.663  20.713  0.00  0.00    +0.000 C 
ATOM     10  S   UNL     1      -3.783  13.510  21.639  0.00  0.00    +0.000 S 
ATOM     11  C   UNL     1      -4.985  13.414  20.369  0.00  0.00    +0.000 C 
ATOM     12  N   UNL     1      -6.121  14.029  20.293  0.00  0.00    +0.000 NA
ATOM     13  N   UNL     1      -4.545  12.553  19.394  0.00  0.00    +0.000 N 
ATOM     14  C   UNL     1      -5.346  12.146  18.258  0.00  0.00    +0.000 C 
ATOM     15  C   UNL     1      -3.249  12.080  19.504  0.00  0.00    +0.000 C 
ATOM     16  O   UNL     1      -2.715  11.318  18.712  0.00  0.00    +0.000 OA
BRANCH  12  17
ATOM     17  C   UNL     1      -6.581  14.916  21.282  0.00  0.00    +0.000 A 
ATOM     18  C   UNL     1      -6.287  16.285  21.293  0.00  0.00    +0.000 A 
ATOM     19  C   UNL     1      -6.719  17.108  22.336  0.00  0.00    +0.000 A 
ATOM     20  C   UNL     1      -7.532  16.588  23.338  0.00  0.00    +0.000 A 
ATOM     21  C   UNL     1      -7.917  15.250  23.288  0.00  0.00    +0.000 A 
ATOM     22  C   UNL     1      -7.437  14.420  22.271  0.00  0.00    +0.000 A 
ENDBRANCH  12  17
ENDBRANCH   4   8
BRANCH   7  23
ATOM     23  C   UNL     1       1.552   8.993  19.242  0.00  0.00    +0.000 A 
ATOM     24  C   UNL     1       1.775   8.056  20.253  0.00  0.00    +0.000 A 
ATOM     25  C   UNL     1       2.300   6.797  19.952  0.00  0.00    +0.000 A 
ATOM     26  C   UNL     1       2.565   6.406  18.635  0.00  0.00    +0.000 A 
ATOM     27  C   UNL     1       2.354   7.354  17.632  0.00  0.00    +0.000 A 
ATOM     28  C   UNL     1       1.867   8.641  17.928  0.00  0.00    +0.000 A 
BRANCH  26  29
ATOM     29  N   UNL     1       2.946   5.107  18.375  0.00  0.00    +0.000 N 
ATOM     30  C   UNL     1       2.006   3.991  18.534  0.00  0.00    +0.000 C 
ATOM     31  C   UNL     1       2.809   2.731  18.902  0.00  0.00    +0.000 C 
ATOM     32  O   UNL     1       3.833   2.446  17.932  0.00  0.00    +0.000 OA
ATOM     33  C   UNL     1       4.743   3.556  17.819  0.00  0.00    +0.000 C 
ATOM     34  C   UNL     1       4.012   4.840  17.396  0.00  0.00    +0.000 C 
ENDBRANCH  26  29
ENDBRANCH   7  23
TORSDOF 4
ENDMDL
MODEL 8
REMARK VINA RESULT:      -7.3      1.889      2.542
REMARK  Name = 
REMARK  7 active torsions:
REMARK  status: ('A' for Active; 'I' for Inactive)
REMARK    1  A    between atoms: C_1  and  C_2
REMARK    2  A    between atoms: C_4  and  C_5
REMARK    3  A    between atoms: N_9  and  C_10
REMARK    4  A    between atoms: N_16  and  C_17
REMARK    5  A    between atoms: C_20  and  C_21
REMARK    6  A    between atoms: N_22  and  C_23
REMARK    7  A    between atoms: C_26  and  N_27
REMARK                            x       y       z     vdW  Elec       q    Type
REMARK                         _______ _______ _______ _____ _____    ______ ____
ROOT
ATOM      1  C   UNL     1      -0.462   9.664  23.450  0.00  0.00    +0.000 C 
ATOM      2  C   UNL     1       0.136   9.876  22.100  0.00  0.00    +0.000 A 
ATOM      3  C   UNL     1       1.021   9.020  21.479  0.00  0.00    +0.000 A 
ATOM      4  C   UNL     1       1.203   9.477  20.170  0.00  0.00    +0.000 A 
ATOM      5  C   UNL     1       0.477  10.640  19.995  0.00  0.00    +0.000 A 
ATOM      6  C   UNL     1       0.471  11.540  18.801  0.00  0.00    +0.000 C 
ATOM      7  N   UNL     1      -0.183  10.909  21.207  0.00  0.00    +0.000 N 
ENDROOT
BRANCH   4   8
ATOM      8  C   UNL     1       2.008   8.837  19.195  0.00  0.00    +0.000 C 
ATOM      9  C   UNL     1       2.309   7.533  19.152  0.00  0.00    +0.000 C 
ATOM     10  S   UNL     1       3.266   6.847  17.899  0.00  0.00    +0.000 S 
ATOM     11  C   UNL     1       3.476   5.339  18.763  0.00  0.00    +0.000 C 
ATOM     12  N   UNL     1       4.279   4.362  18.486  0.00  0.00    +0.000 NA
ATOM     13  N   UNL     1       2.634   5.316  19.847  0.00  0.00    +0.000 N 
ATOM     14  C   UNL     1       2.461   4.165  20.709  0.00  0.00    +0.000 C 
ATOM     15  C   UNL     1       1.941   6.480  20.134  0.00  0.00    +0.000 C 
ATOM     16  O   UNL     1       1.164   6.616  21.069  0.00  0.00    +0.000 OA
BRANCH  12  17
ATOM     17  C   UNL     1       5.151   4.375  17.382  0.00  0.00    +0.000 A 
ATOM     18  C   UNL     1       4.746   4.096  16.071  0.00  0.00    +0.000 A 
ATOM     19  C   UNL     1       5.668   4.062  15.023  0.00  0.00    +0.000 A 
ATOM     20  C   UNL     1       6.997   4.401  15.257  0.00  0.00    +0.000 A 
ATOM     21  C   UNL     1       7.396   4.779  16.538  0.00  0.00    +0.000 A 
ATOM     22  C   UNL     1       6.479   4.758  17.593  0.00  0.00    +0.000 A 
ENDBRANCH  12  17
ENDBRANCH   4   8
BRANCH   7  23
ATOM     23  C   UNL     1      -1.042  12.022  21.474  0.00  0.00    +0.000 A 
ATOM     24  C   UNL     1      -2.358  12.037  21.009  0.00  0.00    +0.000 A 
ATOM     25  C   UNL     1      -3.194  13.122  21.278  0.00  0.00    +0.000 A 
ATOM     26  C   UNL     1      -2.772  14.199  22.065  0.00  0.00    +0.000 A 
ATOM     27  C   UNL     1      -1.449  14.184  22.514  0.00  0.00    +0.000 A 
ATOM     28  C   UNL     1      -0.584  13.115  22.211  0.00  0.00    +0.000 A 
BRANCH  26  29
ATOM     29  N   UNL     1      -3.676  15.177  22.423  0.00  0.00    +0.000 N 
ATOM     30  C   UNL     1      -4.203  16.126  21.436  0.00  0.00    +0.000 C 
ATOM     31  C   UNL     1      -4.536  17.442  22.161  0.00  0.00    +0.000 C 
ATOM     32  O   UNL     1      -5.446  17.235  23.257  0.00  0.00    +0.000 OA
ATOM     33  C   UNL     1      -4.885  16.312  24.210  0.00  0.00    +0.000 C 
ATOM     34  C   UNL     1      -4.581  14.952  23.562  0.00  0.00    +0.000 C 
ENDBRANCH  26  29
ENDBRANCH   7  23
TORSDOF 4
ENDMDL
MODEL 9
REMARK VINA RESULT:      -7.3      3.050     11.449
REMARK  Name = 
REMARK  7 active torsions:
REMARK  status: ('A' for Active; 'I' for Inactive)
REMARK    1  A    between atoms: C_1  and  C_2
REMARK    2  A    between atoms: C_4  and  C_5
REMARK    3  A    between atoms: N_9  and  C_10
REMARK    4  A    between atoms: N_16  and  C_17
REMARK    5  A    between atoms: C_20  and  C_21
REMARK    6  A    between atoms: N_22  and  C_23
REMARK    7  A    between atoms: C_26  and  N_27
REMARK                            x       y       z     vdW  Elec       q    Type
REMARK                         _______ _______ _______ _____ _____    ______ ____
ROOT
ATOM      1  C   UNL     1       2.314  10.604  17.780  0.00  0.00    +0.000 C 
ATOM      2  C   UNL     1       1.434  10.603  18.985  0.00  0.00    +0.000 A 
ATOM      3  C   UNL     1       0.751  11.697  19.471  0.00  0.00    +0.000 A 
ATOM      4  C   UNL     1      -0.091  11.250  20.494  0.00  0.00    +0.000 A 
ATOM      5  C   UNL     1       0.107   9.895  20.677  0.00  0.00    +0.000 A 
ATOM      6  C   UNL     1      -0.484   9.023  21.739  0.00  0.00    +0.000 C 
ATOM      7  N   UNL     1       1.076   9.482  19.746  0.00  0.00    +0.000 N 
ENDROOT
BRANCH   4   8
ATOM      8  C   UNL     1      -0.995  12.071  21.214  0.00  0.00    +0.000 C 
ATOM      9  C   UNL     1      -2.267  12.324  20.883  0.00  0.00    +0.000 C 
ATOM     10  S   UNL     1      -3.294  13.307  21.850  0.00  0.00    +0.000 S 
ATOM     11  C   UNL     1      -4.511  13.425  20.596  0.00  0.00    +0.000 C 
ATOM     12  N   UNL     1      -5.545  14.202  20.554  0.00  0.00    +0.000 NA
ATOM     13  N   UNL     1      -4.213  12.537  19.591  0.00  0.00    +0.000 N 
ATOM     14  C   UNL     1      -5.078  12.286  18.457  0.00  0.00    +0.000 C 
ATOM     15  C   UNL     1      -2.999  11.876  19.669  0.00  0.00    +0.000 C 
ATOM     16  O   UNL     1      -2.593  11.067  18.849  0.00  0.00    +0.000 OA
BRANCH  12  17
ATOM     17  C   UNL     1      -5.857  15.119  21.574  0.00  0.00    +0.000 A 
ATOM     18  C   UNL     1      -6.583  14.783  22.723  0.00  0.00    +0.000 A 
ATOM     19  C   UNL     1      -6.918  15.750  23.674  0.00  0.00    +0.000 A 
ATOM     20  C   UNL     1      -6.449  17.053  23.532  0.00  0.00    +0.000 A 
ATOM     21  C   UNL     1      -5.642  17.380  22.445  0.00  0.00    +0.000 A 
ATOM     22  C   UNL     1      -5.356  16.420  21.470  0.00  0.00    +0.000 A 
ENDBRANCH  12  17
ENDBRANCH   4   8
BRANCH   7  23
ATOM     23  C   UNL     1       1.587   8.155  19.589  0.00  0.00    +0.000 A 
ATOM     24  C   UNL     1       1.555   7.246  20.648  0.00  0.00    +0.000 A 
ATOM     25  C   UNL     1       2.048   5.949  20.487  0.00  0.00    +0.000 A 
ATOM     26  C   UNL     1       2.534   5.495  19.256  0.00  0.00    +0.000 A 
ATOM     27  C   UNL     1       2.577   6.414  18.206  0.00  0.00    +0.000 A 
ATOM     28  C   UNL     1       2.123   7.736  18.370  0.00  0.00    +0.000 A 
BRANCH  26  29
ATOM     29  N   UNL     1       2.875   4.167  19.108  0.00  0.00    +0.000 N 
ATOM     30  C   UNL     1       3.264   3.346  20.261  0.00  0.00    +0.000 C 
ATOM     31  C   UNL     1       4.240   2.261  19.774  0.00  0.00    +0.000 C 
ATOM     32  O   UNL     1       3.677   1.472  18.710  0.00  0.00    +0.000 OA
ATOM     33  C   UNL     1       3.326   2.311  17.593  0.00  0.00    +0.000 C 
ATOM     34  C   UNL     1       2.306   3.386  17.998  0.00  0.00    +0.000 C 
ENDBRANCH  26  29
ENDBRANCH   7  23
TORSDOF 4
ENDMDL
