MODEL 1
REMARK VINA RESULT:      -7.7      0.000      0.000
REMARK  Name = 
REMARK  6 active torsions:
REMARK  status: ('A' for Active; 'I' for Inactive)
REMARK    1  A    between atoms: C_1  and  C_2
REMARK    2  A    between atoms: C_6  and  C_7
REMARK    3  A    between atoms: C_15  and  C_16
REMARK    4  A    between atoms: C_16  and  O_17
REMARK    5  A    between atoms: O_17  and  C_18
REMARK    6  A    between atoms: C_18  and  C_19
REMARK                            x       y       z     vdW  Elec       q    Type
REMARK                         _______ _______ _______ _____ _____    ______ ____
ROOT
ATOM      1  C   UNL     1       6.440   5.734  16.325  0.00  0.00    +0.000 C 
ATOM      2  O   UNL     1       6.880   5.381  15.232  0.00  0.00    +0.000 OA
ATOM      3  N   UNL     1       5.231   5.226  16.799  0.00  0.00    +0.000 N 
ATOM      4  C   UNL     1       4.649   4.067  16.244  0.00  0.00    +0.000 C 
ATOM      5  C   UNL     1       3.609   3.736  17.303  0.00  0.00    +0.000 C 
ATOM      6  C   UNL     1       3.548   2.226  17.502  0.00  0.00    +0.000 C 
ATOM      7  C   UNL     1       2.915   2.104  18.853  0.00  0.00    +0.000 C 
ATOM      8  C   UNL     1       2.654   3.551  19.237  0.00  0.00    +0.000 C 
ATOM      9  C   UNL     1       3.963   4.415  18.769  0.00  0.00    +0.000 C 
ATOM     10  C   UNL     1       4.376   5.695  17.872  0.00  0.00    +0.000 C 
ENDROOT
BRANCH   1  16
ATOM     11  C   UNL     1       7.905   5.277  19.208  0.00  0.00    +0.000 C 
ATOM     12  C   UNL     1       7.776   6.520  18.411  0.00  0.00    +0.000 A 
ATOM     13  C   UNL     1       8.305   7.803  18.746  0.00  0.00    +0.000 A 
ATOM     14  C   UNL     1       7.918   8.660  17.748  0.00  0.00    +0.000 A 
ATOM     15  O   UNL     1       7.193   7.999  16.817  0.00  0.00    +0.000 OA
ATOM     16  C   UNL     1       7.147   6.675  17.182  0.00  0.00    +0.000 A 
ENDBRANCH   1  16
BRANCH   9  17
ATOM     17  C   UNL     1       3.620   5.454  19.955  0.00  0.00    +0.000 C 
BRANCH  17  18
ATOM     18  O   UNL     1       2.781   6.471  19.384  0.00  0.00    +0.000 OA
BRANCH  18  19
ATOM     19  C   UNL     1       1.892   7.076  20.315  0.00  0.00    +0.000 C 
BRANCH  19  20
ATOM     20  C   UNL     1       1.548   8.408  19.713  0.00  0.00    +0.000 A 
ATOM     21  C   UNL     1       1.977   8.728  18.422  0.00  0.00    +0.000 A 
ATOM     22  C   UNL     1       1.745  10.006  17.943  0.00  0.00    +0.000 A 
ATOM     23  N   UNL     1       1.119  10.973  18.650  0.00  0.00    +0.000 NA
ATOM     24  C   UNL     1       0.725  10.647  19.898  0.00  0.00    +0.000 A 
ATOM     25  C   UNL     1       0.913   9.398  20.468  0.00  0.00    +0.000 A 
ENDBRANCH  19  20
ENDBRANCH  18  19
ENDBRANCH  17  18
ENDBRANCH   9  17
TORSDOF 5
ENDMDL
MODEL 2
REMARK VINA RESULT:      -7.6      0.866      1.361
REMARK  Name = 
REMARK  6 active torsions:
REMARK  status: ('A' for Active; 'I' for Inactive)
REMARK    1  A    between atoms: C_1  and  C_2
REMARK    2  A    between atoms: C_6  and  C_7
REMARK    3  A    between atoms: C_15  and  C_16
REMARK    4  A    between atoms: C_16  and  O_17
REMARK    5  A    between atoms: O_17  and  C_18
REMARK    6  A    between atoms: C_18  and  C_19
REMARK                            x       y       z     vdW  Elec       q    Type
REMARK                         _______ _______ _______ _____ _____    ______ ____
ROOT
ATOM      1  C   UNL     1       6.687   5.384  16.576  0.00  0.00    +0.000 C 
ATOM      2  O   UNL     1       7.323   4.676  15.796  0.00  0.00    +0.000 OA
ATOM      3  N   UNL     1       5.327   5.159  16.786  0.00  0.00    +0.000 N 
ATOM      4  C   UNL     1       4.712   3.947  16.409  0.00  0.00    +0.000 C 
ATOM      5  C   UNL     1       3.394   4.052  17.160  0.00  0.00    +0.000 C 
ATOM      6  C   UNL     1       3.019   2.686  17.723  0.00  0.00    +0.000 C 
ATOM      7  C   UNL     1       2.050   3.038  18.808  0.00  0.00    +0.000 C 
ATOM      8  C   UNL     1       1.958   4.551  18.701  0.00  0.00    +0.000 C 
ATOM      9  C   UNL     1       3.475   5.106  18.433  0.00  0.00    +0.000 C 
ATOM     10  C   UNL     1       4.322   6.009  17.395  0.00  0.00    +0.000 C 
ENDROOT
BRANCH   1  16
ATOM     11  C   UNL     1       7.989   5.411  19.571  0.00  0.00    +0.000 C 
ATOM     12  C   UNL     1       7.863   6.520  18.596  0.00  0.00    +0.000 A 
ATOM     13  C   UNL     1       8.323   7.860  18.768  0.00  0.00    +0.000 A 
ATOM     14  C   UNL     1       7.967   8.548  17.636  0.00  0.00    +0.000 A 
ATOM     15  O   UNL     1       7.324   7.728  16.774  0.00  0.00    +0.000 OA
ATOM     16  C   UNL     1       7.305   6.468  17.325  0.00  0.00    +0.000 A 
ENDBRANCH   1  16
BRANCH   9  17
ATOM     17  C   UNL     1       3.028   6.482  19.146  0.00  0.00    +0.000 C 
BRANCH  17  18
ATOM     18  O   UNL     1       3.073   7.504  18.137  0.00  0.00    +0.000 OA
BRANCH  18  19
ATOM     19  C   UNL     1       1.795   8.010  17.769  0.00  0.00    +0.000 C 
BRANCH  19  20
ATOM     20  C   UNL     1       1.662   9.307  18.514  0.00  0.00    +0.000 A 
ATOM     21  C   UNL     1       1.010   9.345  19.750  0.00  0.00    +0.000 A 
ATOM     22  C   UNL     1       0.801  10.573  20.353  0.00  0.00    +0.000 A 
ATOM     23  N   UNL     1       1.193  11.751  19.818  0.00  0.00    +0.000 NA
ATOM     24  C   UNL     1       1.807  11.693  18.619  0.00  0.00    +0.000 A 
ATOM     25  C   UNL     1       2.061  10.515  17.936  0.00  0.00    +0.000 A 
ENDBRANCH  19  20
ENDBRANCH  18  19
ENDBRANCH  17  18
ENDBRANCH   9  17
TORSDOF 5
ENDMDL
MODEL 3
REMARK VINA RESULT:      -7.6      1.179      1.382
REMARK  Name = 
REMARK  6 active torsions:
REMARK  status: ('A' for Active; 'I' for Inactive)
REMARK    1  A    between atoms: C_1  and  C_2
REMARK    2  A    between atoms: C_6  and  C_7
REMARK    3  A    between atoms: C_15  and  C_16
REMARK    4  A    between atoms: C_16  and  O_17
REMARK    5  A    between atoms: O_17  and  C_18
REMARK    6  A    between atoms: C_18  and  C_19
REMARK                            x       y       z     vdW  Elec       q    Type
REMARK                         _______ _______ _______ _____ _____    ______ ____
ROOT
ATOM      1  C   UNL     1       6.958   5.087  16.801  0.00  0.00    +0.000 C 
ATOM      2  O   UNL     1       7.703   4.215  16.356  0.00  0.00    +0.000 OA
ATOM      3  N   UNL     1       5.573   4.938  16.729  0.00  0.00    +0.000 N 
ATOM      4  C   UNL     1       4.978   3.684  16.480  0.00  0.00    +0.000 C 
ATOM      5  C   UNL     1       3.535   3.974  16.864  0.00  0.00    +0.000 C 
ATOM      6  C   UNL     1       2.951   2.770  17.595  0.00  0.00    +0.000 C 
ATOM      7  C   UNL     1       1.789   3.368  18.325  0.00  0.00    +0.000 C 
ATOM      8  C   UNL     1       1.827   4.823  17.887  0.00  0.00    +0.000 C 
ATOM      9  C   UNL     1       3.399   5.279  17.872  0.00  0.00    +0.000 C 
ATOM     10  C   UNL     1       4.518   5.918  16.895  0.00  0.00    +0.000 C 
ENDROOT
BRANCH   1  16
ATOM     11  C   UNL     1       8.085   5.584  19.826  0.00  0.00    +0.000 C 
ATOM     12  C   UNL     1       7.946   6.548  18.710  0.00  0.00    +0.000 A 
ATOM     13  C   UNL     1       8.311   7.928  18.728  0.00  0.00    +0.000 A 
ATOM     14  C   UNL     1       7.977   8.440  17.500  0.00  0.00    +0.000 A 
ATOM     15  O   UNL     1       7.437   7.475  16.722  0.00  0.00    +0.000 OA
ATOM     16  C   UNL     1       7.465   6.298  17.431  0.00  0.00    +0.000 A 
ENDBRANCH   1  16
BRANCH   9  17
ATOM     17  C   UNL     1       2.899   6.785  18.157  0.00  0.00    +0.000 C 
BRANCH  17  18
ATOM     18  O   UNL     1       1.879   6.699  19.165  0.00  0.00    +0.000 OA
BRANCH  18  19
ATOM     19  C   UNL     1       2.209   7.359  20.380  0.00  0.00    +0.000 C 
BRANCH  19  20
ATOM     20  C   UNL     1       1.199   8.464  20.508  0.00  0.00    +0.000 A 
ATOM     21  C   UNL     1       1.023   9.380  19.467  0.00  0.00    +0.000 A 
ATOM     22  C   UNL     1       0.172  10.453  19.664  0.00  0.00    +0.000 A 
ATOM     23  N   UNL     1      -0.509  10.673  20.810  0.00  0.00    +0.000 NA
ATOM     24  C   UNL     1      -0.314   9.786  21.807  0.00  0.00    +0.000 A 
ATOM     25  C   UNL     1       0.517   8.682  21.708  0.00  0.00    +0.000 A 
ENDBRANCH  19  20
ENDBRANCH  18  19
ENDBRANCH  17  18
ENDBRANCH   9  17
TORSDOF 5
ENDMDL
MODEL 4
REMARK VINA RESULT:      -7.5      1.239      1.679
REMARK  Name = 
REMARK  6 active torsions:
REMARK  status: ('A' for Active; 'I' for Inactive)
REMARK    1  A    between atoms: C_1  and  C_2
REMARK    2  A    between atoms: C_6  and  C_7
REMARK    3  A    between atoms: C_15  and  C_16
REMARK    4  A    between atoms: C_16  and  O_17
REMARK    5  A    between atoms: O_17  and  C_18
REMARK    6  A    between atoms: C_18  and  C_19
REMARK                            x       y       z     vdW  Elec       q    Type
REMARK                         _______ _______ _______ _____ _____    ______ ____
ROOT
ATOM      1  C   UNL     1       6.407   5.188  16.685  0.00  0.00    +0.000 C 
ATOM      2  O   UNL     1       6.997   4.349  16.004  0.00  0.00    +0.000 OA
ATOM      3  N   UNL     1       5.029   5.097  16.882  0.00  0.00    +0.000 N 
ATOM      4  C   UNL     1       4.325   3.902  16.624  0.00  0.00    +0.000 C 
ATOM      5  C   UNL     1       3.006   4.194  17.323  0.00  0.00    +0.000 C 
ATOM      6  C   UNL     1       2.510   2.933  18.022  0.00  0.00    +0.000 C 
ATOM      7  C   UNL     1       1.554   3.480  19.035  0.00  0.00    +0.000 C 
ATOM      8  C   UNL     1       1.588   4.974  18.761  0.00  0.00    +0.000 C 
ATOM      9  C   UNL     1       3.149   5.374  18.474  0.00  0.00    +0.000 C 
ATOM     10  C   UNL     1       4.086   6.086  17.366  0.00  0.00    +0.000 C 
ENDROOT
BRANCH   1  16
ATOM     11  C   UNL     1       7.961   5.334  19.554  0.00  0.00    +0.000 C 
ATOM     12  C   UNL     1       7.763   6.399  18.542  0.00  0.00    +0.000 A 
ATOM     13  C   UNL     1       8.250   7.739  18.612  0.00  0.00    +0.000 A 
ATOM     14  C   UNL     1       7.805   8.378  17.483  0.00  0.00    +0.000 A 
ATOM     15  O   UNL     1       7.083   7.529  16.717  0.00  0.00    +0.000 OA
ATOM     16  C   UNL     1       7.098   6.297  17.327  0.00  0.00    +0.000 A 
ENDBRANCH   1  16
BRANCH   9  17
ATOM     17  C   UNL     1       2.804   6.852  19.019  0.00  0.00    +0.000 C 
BRANCH  17  18
ATOM     18  O   UNL     1       2.017   7.495  18.004  0.00  0.00    +0.000 OA
BRANCH  18  19
ATOM     19  C   UNL     1       2.244   8.895  17.896  0.00  0.00    +0.000 C 
BRANCH  19  20
ATOM     20  C   UNL     1       1.036   9.533  18.518  0.00  0.00    +0.000 A 
ATOM     21  C   UNL     1       0.986   9.747  19.899  0.00  0.00    +0.000 A 
ATOM     22  C   UNL     1      -0.188  10.227  20.454  0.00  0.00    +0.000 A 
ATOM     23  N   UNL     1      -1.298  10.509  19.739  0.00  0.00    +0.000 NA
ATOM     24  C   UNL     1      -1.233  10.284  18.410  0.00  0.00    +0.000 A 
ATOM     25  C   UNL     1      -0.107   9.803  17.762  0.00  0.00    +0.000 A 
ENDBRANCH  19  20
ENDBRANCH  18  19
ENDBRANCH  17  18
ENDBRANCH   9  17
TORSDOF 5
ENDMDL
MODEL 5
REMARK VINA RESULT:      -7.5      1.389      1.932
REMARK  Name = 
REMARK  6 active torsions:
REMARK  status: ('A' for Active; 'I' for Inactive)
REMARK    1  A    between atoms: C_1  and  C_2
REMARK    2  A    between atoms: C_6  and  C_7
REMARK    3  A    between atoms: C_15  and  C_16
REMARK    4  A    between atoms: C_16  and  O_17
REMARK    5  A    between atoms: O_17  and  C_18
REMARK    6  A    between atoms: C_18  and  C_19
REMARK                            x       y       z     vdW  Elec       q    Type
REMARK                         _______ _______ _______ _____ _____    ______ ____
ROOT
ATOM      1  C   UNL     1       5.281   4.358  16.978  0.00  0.00    +0.000 C 
ATOM      2  O   UNL     1       5.520   3.743  15.940  0.00  0.00    +0.000 OA
ATOM      3  N   UNL     1       3.988   4.393  17.498  0.00  0.00    +0.000 N 
ATOM      4  C   UNL     1       3.000   3.476  17.082  0.00  0.00    +0.000 C 
ATOM      5  C   UNL     1       1.950   3.679  18.163  0.00  0.00    +0.000 C 
ATOM      6  C   UNL     1       1.344   2.333  18.544  0.00  0.00    +0.000 C 
ATOM      7  C   UNL     1       0.760   2.612  19.893  0.00  0.00    +0.000 C 
ATOM      8  C   UNL     1       1.064   4.087  20.096  0.00  0.00    +0.000 C 
ATOM      9  C   UNL     1       2.582   4.344  19.540  0.00  0.00    +0.000 C 
ATOM     10  C   UNL     1       3.405   5.266  18.498  0.00  0.00    +0.000 C 
ENDROOT
BRANCH   1  16
ATOM     11  C   UNL     1       6.144   7.508  16.933  0.00  0.00    +0.000 C 
ATOM     12  C   UNL     1       6.714   6.394  17.726  0.00  0.00    +0.000 A 
ATOM     13  C   UNL     1       7.773   6.483  18.678  0.00  0.00    +0.000 A 
ATOM     14  C   UNL     1       7.995   5.211  19.141  0.00  0.00    +0.000 A 
ATOM     15  O   UNL     1       7.145   4.342  18.548  0.00  0.00    +0.000 OA
ATOM     16  C   UNL     1       6.316   5.063  17.721  0.00  0.00    +0.000 A 
ENDBRANCH   1  16
BRANCH   9  17
ATOM     17  C   UNL     1       2.689   5.566  20.587  0.00  0.00    +0.000 C 
BRANCH  17  18
ATOM     18  O   UNL     1       2.138   6.721  19.934  0.00  0.00    +0.000 OA
BRANCH  18  19
ATOM     19  C   UNL     1       1.412   7.583  20.801  0.00  0.00    +0.000 C 
BRANCH  19  20
ATOM     20  C   UNL     1       1.270   8.870  20.038  0.00  0.00    +0.000 A 
ATOM     21  C   UNL     1       1.706   8.953  18.713  0.00  0.00    +0.000 A 
ATOM     22  C   UNL     1       1.669  10.183  18.078  0.00  0.00    +0.000 A 
ATOM     23  N   UNL     1       1.231  11.319  18.664  0.00  0.00    +0.000 NA
ATOM     24  C   UNL     1       0.828  11.219  19.948  0.00  0.00    +0.000 A 
ATOM     25  C   UNL     1       0.828  10.036  20.668  0.00  0.00    +0.000 A 
ENDBRANCH  19  20
ENDBRANCH  18  19
ENDBRANCH  17  18
ENDBRANCH   9  17
TORSDOF 5
ENDMDL
MODEL 6
REMARK VINA RESULT:      -7.4      1.789      2.400
REMARK  Name = 
REMARK  6 active torsions:
REMARK  status: ('A' for Active; 'I' for Inactive)
REMARK    1  A    between atoms: C_1  and  C_2
REMARK    2  A    between atoms: C_6  and  C_7
REMARK    3  A    between atoms: C_15  and  C_16
REMARK    4  A    between atoms: C_16  and  O_17
REMARK    5  A    between atoms: O_17  and  C_18
REMARK    6  A    between atoms: C_18  and  C_19
REMARK                            x       y       z     vdW  Elec       q    Type
REMARK                         _______ _______ _______ _____ _____    ______ ____
ROOT
ATOM      1  C   UNL     1       4.895   4.860  16.642  0.00  0.00    +0.000 C 
ATOM      2  O   UNL     1       5.043   4.073  15.708  0.00  0.00    +0.000 OA
ATOM      3  N   UNL     1       3.681   4.925  17.326  0.00  0.00    +0.000 N 
ATOM      4  C   UNL     1       2.722   3.896  17.226  0.00  0.00    +0.000 C 
ATOM      5  C   UNL     1       1.809   4.245  18.392  0.00  0.00    +0.000 C 
ATOM      6  C   UNL     1       1.364   2.965  19.091  0.00  0.00    +0.000 C 
ATOM      7  C   UNL     1       0.940   3.463  20.437  0.00  0.00    +0.000 C 
ATOM      8  C   UNL     1       1.154   4.963  20.326  0.00  0.00    +0.000 C 
ATOM      9  C   UNL     1       2.562   5.189  19.523  0.00  0.00    +0.000 C 
ATOM     10  C   UNL     1       3.169   5.940  18.226  0.00  0.00    +0.000 C 
ENDROOT
BRANCH   1  16
ATOM     11  C   UNL     1       6.551   4.913  19.456  0.00  0.00    +0.000 C 
ATOM     12  C   UNL     1       6.682   5.801  18.277  0.00  0.00    +0.000 A 
ATOM     13  C   UNL     1       7.605   6.878  18.123  0.00  0.00    +0.000 A 
ATOM     14  C   UNL     1       7.351   7.443  16.899  0.00  0.00    +0.000 A 
ATOM     15  O   UNL     1       6.340   6.789  16.283  0.00  0.00    +0.000 OA
ATOM     16  C   UNL     1       5.960   5.744  17.092  0.00  0.00    +0.000 A 
ENDBRANCH   1  16
BRANCH   9  17
ATOM     17  C   UNL     1       2.710   6.591  20.307  0.00  0.00    +0.000 C 
BRANCH  17  18
ATOM     18  O   UNL     1       1.419   7.219  20.280  0.00  0.00    +0.000 OA
BRANCH  18  19
ATOM     19  C   UNL     1       1.452   8.593  19.912  0.00  0.00    +0.000 C 
BRANCH  19  20
ATOM     20  C   UNL     1       0.704   9.305  21.003  0.00  0.00    +0.000 A 
ATOM     21  C   UNL     1       0.174  10.578  20.777  0.00  0.00    +0.000 A 
ATOM     22  C   UNL     1      -0.405  11.254  21.837  0.00  0.00    +0.000 A 
ATOM     23  N   UNL     1      -0.494  10.755  23.089  0.00  0.00    +0.000 NA
ATOM     24  C   UNL     1       0.036   9.530  23.289  0.00  0.00    +0.000 A 
ATOM     25  C   UNL     1       0.637   8.776  22.295  0.00  0.00    +0.000 A 
ENDBRANCH  19  20
ENDBRANCH  18  19
ENDBRANCH  17  18
ENDBRANCH   9  17
TORSDOF 5
ENDMDL
MODEL 7
REMARK VINA RESULT:      -7.3      2.447      4.926
REMARK  Name = 
REMARK  6 active torsions:
REMARK  status: ('A' for Active; 'I' for Inactive)
REMARK    1  A    between atoms: C_1  and  C_2
REMARK    2  A    between atoms: C_6  and  C_7
REMARK    3  A    between atoms: C_15  and  C_16
REMARK    4  A    between atoms: C_16  and  O_17
REMARK    5  A    between atoms: O_17  and  C_18
REMARK    6  A    between atoms: C_18  and  C_19
REMARK                            x       y       z     vdW  Elec       q    Type
REMARK                         _______ _______ _______ _____ _____    ______ ____
ROOT
ATOM      1  C   UNL     1       4.291   2.958  19.806  0.00  0.00    +0.000 C 
ATOM      2  O   UNL     1       5.070   2.007  19.757  0.00  0.00    +0.000 OA
ATOM      3  N   UNL     1       4.644   4.190  19.256  0.00  0.00    +0.000 N 
ATOM      4  C   UNL     1       5.714   4.312  18.345  0.00  0.00    +0.000 C 
ATOM      5  C   UNL     1       5.452   5.703  17.785  0.00  0.00    +0.000 C 
ATOM      6  C   UNL     1       5.741   5.712  16.289  0.00  0.00    +0.000 C 
ATOM      7  C   UNL     1       4.980   6.912  15.820  0.00  0.00    +0.000 C 
ATOM      8  C   UNL     1       4.389   7.462  17.107  0.00  0.00    +0.000 C 
ATOM      9  C   UNL     1       3.881   6.179  17.989  0.00  0.00    +0.000 C 
ATOM     10  C   UNL     1       4.055   5.502  19.446  0.00  0.00    +0.000 C 
ENDROOT
BRANCH   1  16
ATOM     11  C   UNL     1       1.321   3.208  18.469  0.00  0.00    +0.000 C 
ATOM     12  C   UNL     1       1.693   2.959  19.882  0.00  0.00    +0.000 A 
ATOM     13  C   UNL     1       0.797   2.749  20.972  0.00  0.00    +0.000 A 
ATOM     14  C   UNL     1       1.571   2.595  22.094  0.00  0.00    +0.000 A 
ATOM     15  O   UNL     1       2.881   2.689  21.775  0.00  0.00    +0.000 OA
ATOM     16  C   UNL     1       2.973   2.855  20.413  0.00  0.00    +0.000 A 
ENDBRANCH   1  16
BRANCH   9  17
ATOM     17  C   UNL     1       2.786   7.156  18.660  0.00  0.00    +0.000 C 
BRANCH  17  18
ATOM     18  O   UNL     1       2.753   8.351  17.862  0.00  0.00    +0.000 OA
BRANCH  18  19
ATOM     19  C   UNL     1       1.447   8.878  17.666  0.00  0.00    +0.000 C 
BRANCH  19  20
ATOM     20  C   UNL     1       1.254   9.863  18.783  0.00  0.00    +0.000 A 
ATOM     21  C   UNL     1       1.599  11.206  18.605  0.00  0.00    +0.000 A 
ATOM     22  C   UNL     1       1.519  12.061  19.691  0.00  0.00    +0.000 A 
ATOM     23  N   UNL     1       1.123  11.677  20.924  0.00  0.00    +0.000 NA
ATOM     24  C   UNL     1       0.808  10.374  21.078  0.00  0.00    +0.000 A 
ATOM     25  C   UNL     1       0.856   9.441  20.054  0.00  0.00    +0.000 A 
ENDBRANCH  19  20
ENDBRANCH  18  19
ENDBRANCH  17  18
ENDBRANCH   9  17
TORSDOF 5
ENDMDL
MODEL 8
REMARK VINA RESULT:      -7.2      0.971      1.242
REMARK  Name = 
REMARK  6 active torsions:
REMARK  status: ('A' for Active; 'I' for Inactive)
REMARK    1  A    between atoms: C_1  and  C_2
REMARK    2  A    between atoms: C_6  and  C_7
REMARK    3  A    between atoms: C_15  and  C_16
REMARK    4  A    between atoms: C_16  and  O_17
REMARK    5  A    between atoms: O_17  and  C_18
REMARK    6  A    between atoms: C_18  and  C_19
REMARK                            x       y       z     vdW  Elec       q    Type
REMARK                         _______ _______ _______ _____ _____    ______ ____
ROOT
ATOM      1  C   UNL     1       6.323   5.141  16.757  0.00  0.00    +0.000 C 
ATOM      2  O   UNL     1       6.882   4.323  16.027  0.00  0.00    +0.000 OA
ATOM      3  N   UNL     1       4.966   5.013  17.052  0.00  0.00    +0.000 N 
ATOM      4  C   UNL     1       4.274   3.803  16.835  0.00  0.00    +0.000 C 
ATOM      5  C   UNL     1       3.003   4.057  17.631  0.00  0.00    +0.000 C 
ATOM      6  C   UNL     1       2.591   2.779  18.352  0.00  0.00    +0.000 C 
ATOM      7  C   UNL     1       1.697   3.293  19.437  0.00  0.00    +0.000 C 
ATOM      8  C   UNL     1       1.674   4.790  19.175  0.00  0.00    +0.000 C 
ATOM      9  C   UNL     1       3.200   5.231  18.779  0.00  0.00    +0.000 C 
ATOM     10  C   UNL     1       4.036   5.975  17.613  0.00  0.00    +0.000 C 
ENDROOT
BRANCH   1  16
ATOM     11  C   UNL     1       7.893   5.366  19.612  0.00  0.00    +0.000 C 
ATOM     12  C   UNL     1       7.704   6.397  18.565  0.00  0.00    +0.000 A 
ATOM     13  C   UNL     1       8.207   7.733  18.586  0.00  0.00    +0.000 A 
ATOM     14  C   UNL     1       7.764   8.339  17.439  0.00  0.00    +0.000 A 
ATOM     15  O   UNL     1       7.027   7.473  16.706  0.00  0.00    +0.000 OA
ATOM     16  C   UNL     1       7.031   6.262  17.357  0.00  0.00    +0.000 A 
ENDBRANCH   1  16
BRANCH   9  17
ATOM     17  C   UNL     1       2.859   6.696  19.362  0.00  0.00    +0.000 C 
BRANCH  17  18
ATOM     18  O   UNL     1       2.888   7.602  18.247  0.00  0.00    +0.000 OA
BRANCH  18  19
ATOM     19  C   UNL     1       1.605   8.059  17.839  0.00  0.00    +0.000 C 
BRANCH  19  20
ATOM     20  C   UNL     1       1.451   9.409  18.480  0.00  0.00    +0.000 A 
ATOM     21  C   UNL     1       2.067  10.529  17.915  0.00  0.00    +0.000 A 
ATOM     22  C   UNL     1       2.004  11.734  18.594  0.00  0.00    +0.000 A 
ATOM     23  N   UNL     1       1.375  11.898  19.779  0.00  0.00    +0.000 NA
ATOM     24  C   UNL     1       0.799  10.801  20.313  0.00  0.00    +0.000 A 
ATOM     25  C   UNL     1       0.809   9.552  19.712  0.00  0.00    +0.000 A 
ENDBRANCH  19  20
ENDBRANCH  18  19
ENDBRANCH  17  18
ENDBRANCH   9  17
TORSDOF 5
ENDMDL
MODEL 9
REMARK VINA RESULT:      -7.2      2.394      4.794
REMARK  Name = 
REMARK  6 active torsions:
REMARK  status: ('A' for Active; 'I' for Inactive)
REMARK    1  A    between atoms: C_1  and  C_2
REMARK    2  A    between atoms: C_6  and  C_7
REMARK    3  A    between atoms: C_15  and  C_16
REMARK    4  A    between atoms: C_16  and  O_17
REMARK    5  A    between atoms: O_17  and  C_18
REMARK    6  A    between atoms: C_18  and  C_19
REMARK                            x       y       z     vdW  Elec       q    Type
REMARK                         _______ _______ _______ _____ _____    ______ ____
ROOT
ATOM      1  C   UNL     1       3.669   2.327  18.645  0.00  0.00    +0.000 C 
ATOM      2  O   UNL     1       3.804   1.124  18.424  0.00  0.00    +0.000 OA
ATOM      3  N   UNL     1       4.484   3.259  18.003  0.00  0.00    +0.000 N 
ATOM      4  C   UNL     1       5.231   2.921  16.855  0.00  0.00    +0.000 C 
ATOM      5  C   UNL     1       5.619   4.302  16.352  0.00  0.00    +0.000 C 
ATOM      6  C   UNL     1       5.535   4.332  14.830  0.00  0.00    +0.000 C 
ATOM      7  C   UNL     1       5.432   5.796  14.540  0.00  0.00    +0.000 C 
ATOM      8  C   UNL     1       5.514   6.422  15.923  0.00  0.00    +0.000 C 
ATOM      9  C   UNL     1       4.618   5.488  16.925  0.00  0.00    +0.000 C 
ATOM     10  C   UNL     1       4.725   4.656  18.307  0.00  0.00    +0.000 C 
ENDROOT
BRANCH   1  16
ATOM     11  C   UNL     1       1.053   4.196  18.071  0.00  0.00    +0.000 C 
ATOM     12  C   UNL     1       1.543   3.641  19.355  0.00  0.00    +0.000 A 
ATOM     13  C   UNL     1       0.934   3.799  20.636  0.00  0.00    +0.000 A 
ATOM     14  C   UNL     1       1.739   3.151  21.537  0.00  0.00    +0.000 A 
ATOM     15  O   UNL     1       2.800   2.600  20.905  0.00  0.00    +0.000 OA
ATOM     16  C   UNL     1       2.661   2.843  19.559  0.00  0.00    +0.000 A 
ENDBRANCH   1  16
BRANCH   9  17
ATOM     17  C   UNL     1       4.372   6.803  17.826  0.00  0.00    +0.000 C 
BRANCH  17  18
ATOM     18  O   UNL     1       2.950   6.973  17.932  0.00  0.00    +0.000 OA
BRANCH  18  19
ATOM     19  C   UNL     1       2.512   8.313  17.747  0.00  0.00    +0.000 C 
BRANCH  19  20
ATOM     20  C   UNL     1       1.775   8.659  19.009  0.00  0.00    +0.000 A 
ATOM     21  C   UNL     1       1.831   7.803  20.113  0.00  0.00    +0.000 A 
ATOM     22  C   UNL     1       1.046   8.091  21.217  0.00  0.00    +0.000 A 
ATOM     23  N   UNL     1       0.223   9.160  21.297  0.00  0.00    +0.000 NA
ATOM     24  C   UNL     1       0.173   9.965  20.215  0.00  0.00    +0.000 A 
ATOM     25  C   UNL     1       0.918   9.761  19.065  0.00  0.00    +0.000 A 
ENDBRANCH  19  20
ENDBRANCH  18  19
ENDBRANCH  17  18
ENDBRANCH   9  17
TORSDOF 5
ENDMDL
