MODEL 1
REMARK VINA RESULT:      -7.5      0.000      0.000
REMARK  Name = 
REMARK  6 active torsions:
REMARK  status: ('A' for Active; 'I' for Inactive)
REMARK    1  A    between atoms: C_1  and  C_2
REMARK    2  A    between atoms: C_2  and  C_3
REMARK    3  A    between atoms: C_3  and  C_4
REMARK    4  A    between atoms: CA_7  and  C_8
REMARK    5  A    between atoms: C_12  and  C_13
REMARK    6  A    between atoms: C_21  and  C_22
REMARK                            x       y       z     vdW  Elec       q    Type
REMARK                         _______ _______ _______ _____ _____    ______ ____
ROOT
ATOM      1  C   UNL     1       2.219   6.140  19.791  0.00  0.00    +0.000 A 
ATOM      2  C   UNL     1       3.079   5.437  18.942  0.00  0.00    +0.000 A 
ATOM      3  N   UNL     1       3.320   4.148  19.224  0.00  0.00    +0.000 NA
ATOM      4  CA  UNL     1       4.132   3.410  18.397  0.00  0.00    +0.000 A 
ATOM      5  C   UNL     1       4.736   3.978  17.286  0.00  0.00    +0.000 A 
ATOM      6  C   UNL     1       4.495   5.321  17.000  0.00  0.00    +0.000 A 
ATOM      7  C   UNL     1       3.637   6.099  17.823  0.00  0.00    +0.000 A 
ATOM      8  C   UNL     1       3.320   7.459  17.597  0.00  0.00    +0.000 A 
ATOM      9  C   UNL     1       2.446   8.142  18.451  0.00  0.00    +0.000 A 
ATOM     10  C   UNL     1       2.102   9.562  18.239  0.00  0.00    +0.000 A 
ATOM     11  O   UNL     1       2.576  10.211  17.317  0.00  0.00    +0.000 OA
ATOM     12  C   UNL     1       1.169  10.166  19.219  0.00  0.00    +0.000 A 
ATOM     13  C   UNL     1       0.698   9.396  20.211  0.00  0.00    +0.000 A 
ATOM     14  O   UNL     1       1.044   8.069  20.396  0.00  0.00    +0.000 OA
ATOM     15  C   UNL     1       1.904   7.471  19.528  0.00  0.00    +0.000 A 
ENDROOT
BRANCH   4  16
ATOM     16  C   UNL     1       4.378   1.947  18.730  0.00  0.00    +0.000 C 
ATOM     17  O   UNL     1       4.009   1.046  17.924  0.00  0.00    +0.000 OA
ATOM     18  OXT UNL     1       4.993   1.701  19.830  0.00  0.00    +0.000 OA
ENDBRANCH   4  16
BRANCH  13  19
ATOM     19  C   UNL     1      -0.303   9.882  21.298  0.00  0.00    +0.000 C 
ATOM     20  O   UNL     1      -0.524   9.011  22.224  0.00  0.00    +0.000 OA
ATOM     21  O   UNL     1      -0.795  11.022  21.167  0.00  0.00    +0.000 OA
ENDBRANCH  13  19
BRANCH   6  22
ATOM     22  C   UNL     1       5.180   5.880  15.807  0.00  0.00    +0.000 C 
ATOM     23  O   UNL     1       6.253   6.468  15.884  0.00  0.00    +0.000 OA
ENDBRANCH   6  22
BRANCH   1  24
ATOM     24  C   UNL     1       1.631   5.468  21.026  0.00  0.00    +0.000 C 
BRANCH  24  26
ATOM     25  C   UNL     1       1.412   2.967  21.589  0.00  0.00    +0.000 C 
ATOM     26  C   UNL     1       0.925   4.136  20.742  0.00  0.00    +0.000 C 
ENDBRANCH  24  26
ENDBRANCH   1  24
TORSDOF 5
ENDMDL
MODEL 2
REMARK VINA RESULT:      -7.3      1.298      6.400
REMARK  Name = 
REMARK  6 active torsions:
REMARK  status: ('A' for Active; 'I' for Inactive)
REMARK    1  A    between atoms: C_1  and  C_2
REMARK    2  A    between atoms: C_2  and  C_3
REMARK    3  A    between atoms: C_3  and  C_4
REMARK    4  A    between atoms: CA_7  and  C_8
REMARK    5  A    between atoms: C_12  and  C_13
REMARK    6  A    between atoms: C_21  and  C_22
REMARK                            x       y       z     vdW  Elec       q    Type
REMARK                         _______ _______ _______ _____ _____    ______ ____
ROOT
ATOM      1  C   UNL     1       2.130   6.104  20.044  0.00  0.00    +0.000 A 
ATOM      2  C   UNL     1       1.752   7.445  19.932  0.00  0.00    +0.000 A 
ATOM      3  N   UNL     1       0.946   7.949  20.878  0.00  0.00    +0.000 NA
ATOM      4  CA  UNL     1       0.578   9.271  20.826  0.00  0.00    +0.000 A 
ATOM      5  C   UNL     1       0.998  10.096  19.794  0.00  0.00    +0.000 A 
ATOM      6  C   UNL     1       1.825   9.569  18.804  0.00  0.00    +0.000 A 
ATOM      7  C   UNL     1       2.244   8.212  18.850  0.00  0.00    +0.000 A 
ATOM      8  C   UNL     1       3.097   7.600  17.902  0.00  0.00    +0.000 A 
ATOM      9  C   UNL     1       3.475   6.259  18.039  0.00  0.00    +0.000 A 
ATOM     10  C   UNL     1       4.360   5.596  17.061  0.00  0.00    +0.000 A 
ATOM     11  O   UNL     1       4.793   6.183  16.079  0.00  0.00    +0.000 OA
ATOM     12  C   UNL     1       4.678   4.173  17.322  0.00  0.00    +0.000 A 
ATOM     13  C   UNL     1       4.159   3.592  18.413  0.00  0.00    +0.000 A 
ATOM     14  O   UNL     1       3.321   4.230  19.309  0.00  0.00    +0.000 OA
ATOM     15  C   UNL     1       2.992   5.535  19.110  0.00  0.00    +0.000 A 
ENDROOT
BRANCH   4  16
ATOM     16  C   UNL     1      -0.324   9.823  21.919  0.00  0.00    +0.000 C 
ATOM     17  O   UNL     1      -0.725   9.065  22.848  0.00  0.00    +0.000 OA
ATOM     18  OXT UNL     1      -0.613  11.072  21.854  0.00  0.00    +0.000 OA
ENDBRANCH   4  16
BRANCH  13  19
ATOM     19  C   UNL     1       4.421   2.115  18.829  0.00  0.00    +0.000 C 
ATOM     20  O   UNL     1       3.918   1.252  18.012  0.00  0.00    +0.000 OA
ATOM     21  O   UNL     1       5.054   1.912  19.885  0.00  0.00    +0.000 OA
ENDBRANCH  13  19
BRANCH   6  22
ATOM     22  C   UNL     1       2.232  10.494  17.716  0.00  0.00    +0.000 C 
ATOM     23  O   UNL     1       2.599  11.643  17.936  0.00  0.00    +0.000 OA
ENDBRANCH   6  22
BRANCH   1  24
ATOM     24  C   UNL     1       1.587   5.240  21.176  0.00  0.00    +0.000 C 
BRANCH  24  26
ATOM     25  C   UNL     1       1.359   2.699  21.511  0.00  0.00    +0.000 C 
ATOM     26  C   UNL     1       0.941   3.928  20.713  0.00  0.00    +0.000 C 
ENDBRANCH  24  26
ENDBRANCH   1  24
TORSDOF 5
ENDMDL
MODEL 3
REMARK VINA RESULT:      -7.3      2.100      7.408
REMARK  Name = 
REMARK  6 active torsions:
REMARK  status: ('A' for Active; 'I' for Inactive)
REMARK    1  A    between atoms: C_1  and  C_2
REMARK    2  A    between atoms: C_2  and  C_3
REMARK    3  A    between atoms: C_3  and  C_4
REMARK    4  A    between atoms: CA_7  and  C_8
REMARK    5  A    between atoms: C_12  and  C_13
REMARK    6  A    between atoms: C_21  and  C_22
REMARK                            x       y       z     vdW  Elec       q    Type
REMARK                         _______ _______ _______ _____ _____    ______ ____
ROOT
ATOM      1  C   UNL     1       2.526   7.187  18.547  0.00  0.00    +0.000 A 
ATOM      2  C   UNL     1       1.929   8.221  19.272  0.00  0.00    +0.000 A 
ATOM      3  N   UNL     1       1.877   9.436  18.703  0.00  0.00    +0.000 NA
ATOM      4  CA  UNL     1       1.268  10.473  19.366  0.00  0.00    +0.000 A 
ATOM      5  C   UNL     1       0.728  10.302  20.631  0.00  0.00    +0.000 A 
ATOM      6  C   UNL     1       0.792   9.043  21.227  0.00  0.00    +0.000 A 
ATOM      7  C   UNL     1       1.392   7.946  20.551  0.00  0.00    +0.000 A 
ATOM      8  C   UNL     1       1.482   6.634  21.070  0.00  0.00    +0.000 A 
ATOM      9  C   UNL     1       2.072   5.608  20.323  0.00  0.00    +0.000 A 
ATOM     10  C   UNL     1       2.183   4.230  20.843  0.00  0.00    +0.000 A 
ATOM     11  O   UNL     1       1.777   3.925  21.956  0.00  0.00    +0.000 OA
ATOM     12  C   UNL     1       2.834   3.241  19.952  0.00  0.00    +0.000 A 
ATOM     13  C   UNL     1       3.264   3.651  18.750  0.00  0.00    +0.000 A 
ATOM     14  O   UNL     1       3.160   4.951  18.288  0.00  0.00    +0.000 OA
ATOM     15  C   UNL     1       2.578   5.898  19.072  0.00  0.00    +0.000 A 
ENDROOT
BRANCH   4  16
ATOM     16  C   UNL     1       1.210  11.836  18.694  0.00  0.00    +0.000 C 
ATOM     17  O   UNL     1       0.124  12.482  18.672  0.00  0.00    +0.000 OA
ATOM     18  OXT UNL     1       2.306  12.282  18.197  0.00  0.00    +0.000 OA
ENDBRANCH   4  16
BRANCH  13  19
ATOM     19  C   UNL     1       3.944   2.725  17.700  0.00  0.00    +0.000 C 
ATOM     20  O   UNL     1       3.683   1.473  17.870  0.00  0.00    +0.000 OA
ATOM     21  O   UNL     1       4.666   3.260  16.834  0.00  0.00    +0.000 OA
ENDBRANCH  13  19
BRANCH   6  22
ATOM     22  C   UNL     1       0.211   8.922  22.588  0.00  0.00    +0.000 C 
ATOM     23  O   UNL     1       0.494   9.700  23.493  0.00  0.00    +0.000 OA
ENDBRANCH   6  22
BRANCH   1  24
ATOM     24  C   UNL     1       3.149   7.458  17.182  0.00  0.00    +0.000 C 
BRANCH  24  26
ATOM     25  C   UNL     1       5.150   6.529  15.859  0.00  0.00    +0.000 C 
ATOM     26  C   UNL     1       4.664   7.226  17.123  0.00  0.00    +0.000 C 
ENDBRANCH  24  26
ENDBRANCH   1  24
TORSDOF 5
ENDMDL
MODEL 4
REMARK VINA RESULT:      -7.0      4.668     10.233
REMARK  Name = 
REMARK  6 active torsions:
REMARK  status: ('A' for Active; 'I' for Inactive)
REMARK    1  A    between atoms: C_1  and  C_2
REMARK    2  A    between atoms: C_2  and  C_3
REMARK    3  A    between atoms: C_3  and  C_4
REMARK    4  A    between atoms: CA_7  and  C_8
REMARK    5  A    between atoms: C_12  and  C_13
REMARK    6  A    between atoms: C_21  and  C_22
REMARK                            x       y       z     vdW  Elec       q    Type
REMARK                         _______ _______ _______ _____ _____    ______ ____
ROOT
ATOM      1  C   UNL     1      -1.731  11.828  20.169  0.00  0.00    +0.000 A 
ATOM      2  C   UNL     1      -2.630  12.541  20.966  0.00  0.00    +0.000 A 
ATOM      3  N   UNL     1      -3.492  13.367  20.354  0.00  0.00    +0.000 NA
ATOM      4  CA  UNL     1      -4.416  14.060  21.096  0.00  0.00    +0.000 A 
ATOM      5  C   UNL     1      -4.460  13.951  22.477  0.00  0.00    +0.000 A 
ATOM      6  C   UNL     1      -3.556  13.103  23.115  0.00  0.00    +0.000 A 
ATOM      7  C   UNL     1      -2.609  12.352  22.368  0.00  0.00    +0.000 A 
ATOM      8  C   UNL     1      -1.671  11.454  22.930  0.00  0.00    +0.000 A 
ATOM      9  C   UNL     1      -0.788  10.739  22.113  0.00  0.00    +0.000 A 
ATOM     10  C   UNL     1       0.204   9.800  22.674  0.00  0.00    +0.000 A 
ATOM     11  O   UNL     1       0.309   9.613  23.878  0.00  0.00    +0.000 OA
ATOM     12  C   UNL     1       1.081   9.110  21.699  0.00  0.00    +0.000 A 
ATOM     13  C   UNL     1       0.916   9.373  20.394  0.00  0.00    +0.000 A 
ATOM     14  O   UNL     1      -0.012  10.267  19.893  0.00  0.00    +0.000 OA
ATOM     15  C   UNL     1      -0.836  10.931  20.747  0.00  0.00    +0.000 A 
ENDROOT
BRANCH   4  16
ATOM     16  C   UNL     1      -5.392  14.978  20.376  0.00  0.00    +0.000 C 
ATOM     17  O   UNL     1      -6.519  14.538  20.011  0.00  0.00    +0.000 OA
ATOM     18  OXT UNL     1      -5.019  16.194  20.200  0.00  0.00    +0.000 OA
ENDBRANCH   4  16
BRANCH  13  19
ATOM     19  C   UNL     1       1.746   8.711  19.256  0.00  0.00    +0.000 C 
ATOM     20  O   UNL     1       1.767   9.400  18.165  0.00  0.00    +0.000 OA
ATOM     21  O   UNL     1       2.278   7.607  19.490  0.00  0.00    +0.000 OA
ENDBRANCH  13  19
BRANCH   6  22
ATOM     22  C   UNL     1      -3.639  13.037  24.596  0.00  0.00    +0.000 C 
ATOM     23  O   UNL     1      -4.397  12.266  25.176  0.00  0.00    +0.000 OA
ENDBRANCH   6  22
BRANCH   1  24
ATOM     24  C   UNL     1      -1.702  12.037  18.659  0.00  0.00    +0.000 C 
BRANCH  24  26
ATOM     25  C   UNL     1      -1.967  10.025  17.078  0.00  0.00    +0.000 C 
ATOM     26  C   UNL     1      -2.655  11.124  17.879  0.00  0.00    +0.000 C 
ENDBRANCH  24  26
ENDBRANCH   1  24
TORSDOF 5
ENDMDL
MODEL 5
REMARK VINA RESULT:      -6.8      4.745     10.346
REMARK  Name = 
REMARK  6 active torsions:
REMARK  status: ('A' for Active; 'I' for Inactive)
REMARK    1  A    between atoms: C_1  and  C_2
REMARK    2  A    between atoms: C_2  and  C_3
REMARK    3  A    between atoms: C_3  and  C_4
REMARK    4  A    between atoms: CA_7  and  C_8
REMARK    5  A    between atoms: C_12  and  C_13
REMARK    6  A    between atoms: C_21  and  C_22
REMARK                            x       y       z     vdW  Elec       q    Type
REMARK                         _______ _______ _______ _____ _____    ______ ____
ROOT
ATOM      1  C   UNL     1      -1.782  11.955  20.157  0.00  0.00    +0.000 A 
ATOM      2  C   UNL     1      -2.675  12.646  20.982  0.00  0.00    +0.000 A 
ATOM      3  N   UNL     1      -3.540  13.490  20.400  0.00  0.00    +0.000 NA
ATOM      4  CA  UNL     1      -4.457  14.163  21.169  0.00  0.00    +0.000 A 
ATOM      5  C   UNL     1      -4.492  14.012  22.547  0.00  0.00    +0.000 A 
ATOM      6  C   UNL     1      -3.585  13.144  23.153  0.00  0.00    +0.000 A 
ATOM      7  C   UNL     1      -2.644  12.415  22.377  0.00  0.00    +0.000 A 
ATOM      8  C   UNL     1      -1.704  11.499  22.905  0.00  0.00    +0.000 A 
ATOM      9  C   UNL     1      -0.827  10.808  22.061  0.00  0.00    +0.000 A 
ATOM     10  C   UNL     1       0.166   9.850  22.586  0.00  0.00    +0.000 A 
ATOM     11  O   UNL     1       0.279   9.628  23.784  0.00  0.00    +0.000 OA
ATOM     12  C   UNL     1       1.036   9.189  21.585  0.00  0.00    +0.000 A 
ATOM     13  C   UNL     1       0.862   9.491  20.290  0.00  0.00    +0.000 A 
ATOM     14  O   UNL     1      -0.068  10.401  19.822  0.00  0.00    +0.000 OA
ATOM     15  C   UNL     1      -0.885  11.040  20.702  0.00  0.00    +0.000 A 
ENDROOT
BRANCH   4  16
ATOM     16  C   UNL     1      -5.437  15.103  20.484  0.00  0.00    +0.000 C 
ATOM     17  O   UNL     1      -5.041  16.227  20.061  0.00  0.00    +0.000 OA
ATOM     18  OXT UNL     1      -6.640  14.679  20.341  0.00  0.00    +0.000 OA
ENDBRANCH   4  16
BRANCH  13  19
ATOM     19  C   UNL     1       1.683   8.863  19.126  0.00  0.00    +0.000 C 
ATOM     20  O   UNL     1       2.194   7.714  19.417  0.00  0.00    +0.000 OA
ATOM     21  O   UNL     1       1.780   9.514  18.066  0.00  0.00    +0.000 OA
ENDBRANCH  13  19
BRANCH   6  22
ATOM     22  C   UNL     1      -3.658  13.034  24.632  0.00  0.00    +0.000 C 
ATOM     23  O   UNL     1      -4.403  12.237  25.193  0.00  0.00    +0.000 OA
ENDBRANCH   6  22
BRANCH   1  24
ATOM     24  C   UNL     1      -1.764  12.210  18.654  0.00  0.00    +0.000 C 
BRANCH  24  26
ATOM     25  C   UNL     1      -3.965  11.389  17.606  0.00  0.00    +0.000 C 
ATOM     26  C   UNL     1      -2.479  11.136  17.825  0.00  0.00    +0.000 C 
ENDBRANCH  24  26
ENDBRANCH   1  24
TORSDOF 5
ENDMDL
MODEL 6
REMARK VINA RESULT:      -6.8      4.820      7.868
REMARK  Name = 
REMARK  6 active torsions:
REMARK  status: ('A' for Active; 'I' for Inactive)
REMARK    1  A    between atoms: C_1  and  C_2
REMARK    2  A    between atoms: C_2  and  C_3
REMARK    3  A    between atoms: C_3  and  C_4
REMARK    4  A    between atoms: CA_7  and  C_8
REMARK    5  A    between atoms: C_12  and  C_13
REMARK    6  A    between atoms: C_21  and  C_22
REMARK                            x       y       z     vdW  Elec       q    Type
REMARK                         _______ _______ _______ _____ _____    ______ ____
ROOT
ATOM      1  C   UNL     1      -1.806  12.009  20.763  0.00  0.00    +0.000 A 
ATOM      2  C   UNL     1      -1.484  11.278  19.616  0.00  0.00    +0.000 A 
ATOM      3  N   UNL     1      -0.281  10.685  19.567  0.00  0.00    +0.000 NA
ATOM      4  CA  UNL     1       0.061   9.929  18.474  0.00  0.00    +0.000 A 
ATOM      5  C   UNL     1      -0.800   9.785  17.397  0.00  0.00    +0.000 A 
ATOM      6  C   UNL     1      -2.045  10.410  17.442  0.00  0.00    +0.000 A 
ATOM      7  C   UNL     1      -2.436  11.176  18.574  0.00  0.00    +0.000 A 
ATOM      8  C   UNL     1      -3.685  11.825  18.714  0.00  0.00    +0.000 A 
ATOM      9  C   UNL     1      -3.992  12.542  19.876  0.00  0.00    +0.000 A 
ATOM     10  C   UNL     1      -5.287  13.233  20.045  0.00  0.00    +0.000 A 
ATOM     11  O   UNL     1      -6.143  13.223  19.172  0.00  0.00    +0.000 OA
ATOM     12  C   UNL     1      -5.483  13.959  21.322  0.00  0.00    +0.000 A 
ATOM     13  C   UNL     1      -4.495  13.935  22.228  0.00  0.00    +0.000 A 
ATOM     14  O   UNL     1      -3.285  13.290  22.043  0.00  0.00    +0.000 OA
ATOM     15  C   UNL     1      -3.053  12.616  20.884  0.00  0.00    +0.000 A 
ENDROOT
BRANCH   4  16
ATOM     16  C   UNL     1       1.425   9.256  18.450  0.00  0.00    +0.000 C 
ATOM     17  O   UNL     1       1.748   8.451  19.370  0.00  0.00    +0.000 OA
ATOM     18  OXT UNL     1       2.184   9.525  17.451  0.00  0.00    +0.000 OA
ENDBRANCH   4  16
BRANCH  13  19
ATOM     19  C   UNL     1      -4.564  14.630  23.619  0.00  0.00    +0.000 C 
ATOM     20  O   UNL     1      -3.839  14.057  24.519  0.00  0.00    +0.000 OA
ATOM     21  O   UNL     1      -5.303  15.629  23.733  0.00  0.00    +0.000 OA
ENDBRANCH  13  19
BRANCH   6  22
ATOM     22  C   UNL     1      -2.920  10.235  16.256  0.00  0.00    +0.000 C 
ATOM     23  O   UNL     1      -2.656  10.735  15.167  0.00  0.00    +0.000 OA
ENDBRANCH   6  22
BRANCH   1  24
ATOM     24  C   UNL     1      -0.789  12.170  21.887  0.00  0.00    +0.000 C 
BRANCH  24  26
ATOM     25  C   UNL     1      -0.350   9.899  23.014  0.00  0.00    +0.000 C 
ATOM     26  C   UNL     1      -1.036  11.257  23.095  0.00  0.00    +0.000 C 
ENDBRANCH  24  26
ENDBRANCH   1  24
TORSDOF 5
ENDMDL
MODEL 7
REMARK VINA RESULT:      -6.7      4.719     10.432
REMARK  Name = 
REMARK  6 active torsions:
REMARK  status: ('A' for Active; 'I' for Inactive)
REMARK    1  A    between atoms: C_1  and  C_2
REMARK    2  A    between atoms: C_2  and  C_3
REMARK    3  A    between atoms: C_3  and  C_4
REMARK    4  A    between atoms: CA_7  and  C_8
REMARK    5  A    between atoms: C_12  and  C_13
REMARK    6  A    between atoms: C_21  and  C_22
REMARK                            x       y       z     vdW  Elec       q    Type
REMARK                         _______ _______ _______ _____ _____    ______ ____
ROOT
ATOM      1  C   UNL     1      -1.750  11.914  20.205  0.00  0.00    +0.000 A 
ATOM      2  C   UNL     1      -2.649  12.622  21.007  0.00  0.00    +0.000 A 
ATOM      3  N   UNL     1      -3.499  13.465  20.401  0.00  0.00    +0.000 NA
ATOM      4  CA  UNL     1      -4.422  14.155  21.147  0.00  0.00    +0.000 A 
ATOM      5  C   UNL     1      -4.479  14.023  22.526  0.00  0.00    +0.000 A 
ATOM      6  C   UNL     1      -3.589  13.156  23.157  0.00  0.00    +0.000 A 
ATOM      7  C   UNL     1      -2.642  12.409  22.405  0.00  0.00    +0.000 A 
ATOM      8  C   UNL     1      -1.717  11.494  22.959  0.00  0.00    +0.000 A 
ATOM      9  C   UNL     1      -0.833  10.784  22.138  0.00  0.00    +0.000 A 
ATOM     10  C   UNL     1       0.145   9.826  22.691  0.00  0.00    +0.000 A 
ATOM     11  O   UNL     1       0.238   9.619  23.893  0.00  0.00    +0.000 OA
ATOM     12  C   UNL     1       1.025   9.146  21.712  0.00  0.00    +0.000 A 
ATOM     13  C   UNL     1       0.873   9.431  20.411  0.00  0.00    +0.000 A 
ATOM     14  O   UNL     1      -0.043  10.342  19.917  0.00  0.00    +0.000 OA
ATOM     15  C   UNL     1      -0.868  10.999  20.775  0.00  0.00    +0.000 A 
ENDROOT
BRANCH   4  16
ATOM     16  C   UNL     1      -5.384  15.094  20.434  0.00  0.00    +0.000 C 
ATOM     17  O   UNL     1      -5.301  16.341  20.619  0.00  0.00    +0.000 OA
ATOM     18  OXT UNL     1      -6.233  14.554  19.637  0.00  0.00    +0.000 OA
ENDBRANCH   4  16
BRANCH  13  19
ATOM     19  C   UNL     1       1.706   8.782  19.268  0.00  0.00    +0.000 C 
ATOM     20  O   UNL     1       1.747   9.491  18.191  0.00  0.00    +0.000 OA
ATOM     21  O   UNL     1       2.223   7.667  19.487  0.00  0.00    +0.000 OA
ENDBRANCH  13  19
BRANCH   6  22
ATOM     22  C   UNL     1      -3.685  13.066  24.636  0.00  0.00    +0.000 C 
ATOM     23  O   UNL     1      -4.405  12.245  25.196  0.00  0.00    +0.000 OA
ENDBRANCH   6  22
BRANCH   1  24
ATOM     24  C   UNL     1      -1.706  12.148  18.699  0.00  0.00    +0.000 C 
BRANCH  24  26
ATOM     25  C   UNL     1      -0.326  14.286  19.081  0.00  0.00    +0.000 C 
ATOM     26  C   UNL     1      -0.548  13.039  18.234  0.00  0.00    +0.000 C 
ENDBRANCH  24  26
ENDBRANCH   1  24
TORSDOF 5
ENDMDL
MODEL 8
REMARK VINA RESULT:      -6.7      1.531      4.119
REMARK  Name = 
REMARK  6 active torsions:
REMARK  status: ('A' for Active; 'I' for Inactive)
REMARK    1  A    between atoms: C_1  and  C_2
REMARK    2  A    between atoms: C_2  and  C_3
REMARK    3  A    between atoms: C_3  and  C_4
REMARK    4  A    between atoms: CA_7  and  C_8
REMARK    5  A    between atoms: C_12  and  C_13
REMARK    6  A    between atoms: C_21  and  C_22
REMARK                            x       y       z     vdW  Elec       q    Type
REMARK                         _______ _______ _______ _____ _____    ______ ____
ROOT
ATOM      1  C   UNL     1       2.560   7.106  18.473  0.00  0.00    +0.000 A 
ATOM      2  C   UNL     1       2.603   5.775  18.895  0.00  0.00    +0.000 A 
ATOM      3  N   UNL     1       3.244   4.891  18.116  0.00  0.00    +0.000 NA
ATOM      4  CA  UNL     1       3.340   3.579  18.510  0.00  0.00    +0.000 A 
ATOM      5  C   UNL     1       2.760   3.136  19.688  0.00  0.00    +0.000 A 
ATOM      6  C   UNL     1       2.083   4.051  20.493  0.00  0.00    +0.000 A 
ATOM      7  C   UNL     1       1.994   5.420  20.122  0.00  0.00    +0.000 A 
ATOM      8  C   UNL     1       1.346   6.420  20.885  0.00  0.00    +0.000 A 
ATOM      9  C   UNL     1       1.325   7.750  20.452  0.00  0.00    +0.000 A 
ATOM     10  C   UNL     1       0.653   8.812  21.227  0.00  0.00    +0.000 A 
ATOM     11  O   UNL     1       0.071   8.575  22.277  0.00  0.00    +0.000 OA
ATOM     12  C   UNL     1       0.702  10.177  20.653  0.00  0.00    +0.000 A 
ATOM     13  C   UNL     1       1.349  10.359  19.493  0.00  0.00    +0.000 A 
ATOM     14  O   UNL     1       1.962   9.346  18.778  0.00  0.00    +0.000 OA
ATOM     15  C   UNL     1       1.938   8.074  19.258  0.00  0.00    +0.000 A 
ENDROOT
BRANCH   4  16
ATOM     16  C   UNL     1       4.085   2.600  17.616  0.00  0.00    +0.000 C 
ATOM     17  O   UNL     1       3.958   1.356  17.799  0.00  0.00    +0.000 OA
ATOM     18  OXT UNL     1       4.799   3.105  16.676  0.00  0.00    +0.000 OA
ENDBRANCH   4  16
BRANCH  13  19
ATOM     19  C   UNL     1       1.502  11.734  18.782  0.00  0.00    +0.000 C 
ATOM     20  O   UNL     1       2.559  11.820  18.046  0.00  0.00    +0.000 OA
ATOM     21  O   UNL     1       0.630  12.600  18.997  0.00  0.00    +0.000 OA
ENDBRANCH  13  19
BRANCH   6  22
ATOM     22  C   UNL     1       1.469   3.518  21.735  0.00  0.00    +0.000 C 
ATOM     23  O   UNL     1       1.894   2.513  22.296  0.00  0.00    +0.000 OA
ENDBRANCH   6  22
BRANCH   1  24
ATOM     24  C   UNL     1       3.173   7.514  17.139  0.00  0.00    +0.000 C 
BRANCH  24  26
ATOM     25  C   UNL     1       5.153   6.565  15.798  0.00  0.00    +0.000 C 
ATOM     26  C   UNL     1       4.689   7.298  17.050  0.00  0.00    +0.000 C 
ENDBRANCH  24  26
ENDBRANCH   1  24
TORSDOF 5
ENDMDL
MODEL 9
REMARK VINA RESULT:      -6.6      7.390      9.615
REMARK  Name = 
REMARK  6 active torsions:
REMARK  status: ('A' for Active; 'I' for Inactive)
REMARK    1  A    between atoms: C_1  and  C_2
REMARK    2  A    between atoms: C_2  and  C_3
REMARK    3  A    between atoms: C_3  and  C_4
REMARK    4  A    between atoms: CA_7  and  C_8
REMARK    5  A    between atoms: C_12  and  C_13
REMARK    6  A    between atoms: C_21  and  C_22
REMARK                            x       y       z     vdW  Elec       q    Type
REMARK                         _______ _______ _______ _____ _____    ______ ____
ROOT
ATOM      1  C   UNL     1      -4.895  12.231  19.942  0.00  0.00    +0.000 A 
ATOM      2  C   UNL     1      -3.767  11.926  19.174  0.00  0.00    +0.000 A 
ATOM      3  N   UNL     1      -3.964  11.447  17.936  0.00  0.00    +0.000 NA
ATOM      4  CA  UNL     1      -2.884  11.167  17.134  0.00  0.00    +0.000 A 
ATOM      5  C   UNL     1      -1.586  11.340  17.588  0.00  0.00    +0.000 A 
ATOM      6  C   UNL     1      -1.381  11.826  18.878  0.00  0.00    +0.000 A 
ATOM      7  C   UNL     1      -2.481  12.151  19.717  0.00  0.00    +0.000 A 
ATOM      8  C   UNL     1      -2.366  12.668  21.029  0.00  0.00    +0.000 A 
ATOM      9  C   UNL     1      -3.507  12.979  21.777  0.00  0.00    +0.000 A 
ATOM     10  C   UNL     1      -3.416  13.516  23.150  0.00  0.00    +0.000 A 
ATOM     11  O   UNL     1      -2.340  13.700  23.702  0.00  0.00    +0.000 OA
ATOM     12  C   UNL     1      -4.700  13.799  23.832  0.00  0.00    +0.000 A 
ATOM     13  C   UNL     1      -5.842  13.563  23.169  0.00  0.00    +0.000 A 
ATOM     14  O   UNL     1      -5.903  13.048  21.887  0.00  0.00    +0.000 OA
ATOM     15  C   UNL     1      -4.752  12.764  21.220  0.00  0.00    +0.000 A 
ENDROOT
BRANCH   4  16
ATOM     16  C   UNL     1      -3.134  10.639  15.730  0.00  0.00    +0.000 C 
ATOM     17  O   UNL     1      -3.690  11.377  14.868  0.00  0.00    +0.000 OA
ATOM     18  OXT UNL     1      -2.727   9.447  15.480  0.00  0.00    +0.000 OA
ENDBRANCH   4  16
BRANCH  13  19
ATOM     19  C   UNL     1      -7.262  13.831  23.745  0.00  0.00    +0.000 C 
ATOM     20  O   UNL     1      -7.621  15.069  23.679  0.00  0.00    +0.000 OA
ATOM     21  O   UNL     1      -7.890  12.861  24.217  0.00  0.00    +0.000 OA
ENDBRANCH  13  19
BRANCH   6  22
ATOM     22  C   UNL     1       0.030  11.978  19.315  0.00  0.00    +0.000 C 
ATOM     23  O   UNL     1       0.818  12.720  18.738  0.00  0.00    +0.000 OA
ENDBRANCH   6  22
BRANCH   1  24
ATOM     24  C   UNL     1      -6.294  11.965  19.400  0.00  0.00    +0.000 C 
BRANCH  24  26
ATOM     25  C   UNL     1      -7.742  10.391  20.829  0.00  0.00    +0.000 C 
ATOM     26  C   UNL     1      -6.802  10.538  19.639  0.00  0.00    +0.000 C 
ENDBRANCH  24  26
ENDBRANCH   1  24
TORSDOF 5
ENDMDL
