MODEL 1
REMARK VINA RESULT:      -9.2      0.000      0.000
REMARK  Name = 
REMARK  6 active torsions:
REMARK  status: ('A' for Active; 'I' for Inactive)
REMARK    1  A    between atoms: C_1  and  C_2
REMARK    2  A    between atoms: C_3  and  C_4
REMARK    3  A    between atoms: C_4  and  N_5
REMARK    4  A    between atoms: N_5  and  C_6
REMARK    5  A    between atoms: C_7  and  C_9
REMARK    6  A    between atoms: C_10  and  C_11
REMARK                            x       y       z     vdW  Elec       q    Type
REMARK                         _______ _______ _______ _____ _____    ______ ____
ROOT
ATOM      1  N   UNL     1      -0.150  10.829  21.967  0.00  0.00    +0.000 N 
ATOM      2  C   UNL     1      -0.955  11.743  22.758  0.00  0.00    +0.000 C 
ATOM      3  C   UNL     1       0.446   9.765  22.635  0.00  0.00    +0.000 C 
ATOM      4  O   UNL     1       0.301   9.534  23.830  0.00  0.00    +0.000 OA
ENDROOT
BRANCH   3   5
ATOM      5  C   UNL     1       1.307   8.892  21.799  0.00  0.00    +0.000 C 
ATOM      6  C   UNL     1       0.818   7.755  21.282  0.00  0.00    +0.000 C 
BRANCH   6   7
ATOM      7  C   UNL     1       1.652   6.792  20.549  0.00  0.00    +0.000 A 
ATOM      8  C   UNL     1       2.490   7.216  19.524  0.00  0.00    +0.000 A 
ATOM      9  N   UNL     1       3.262   6.395  18.770  0.00  0.00    +0.000 NA
ATOM     10  C   UNL     1       3.203   5.075  19.021  0.00  0.00    +0.000 A 
ATOM     11  C   UNL     1       2.364   4.529  20.018  0.00  0.00    +0.000 A 
ATOM     12  C   UNL     1       1.594   5.415  20.780  0.00  0.00    +0.000 A 
ATOM     13  N   UNL     1       2.283   3.148  20.330  0.00  0.00    +0.000 N 
ATOM     14  C   UNL     1       1.813   2.325  19.211  0.00  0.00    +0.000 C 
ATOM     15  C   UNL     1       2.889   2.072  18.161  0.00  0.00    +0.000 C 
ATOM     16  C   UNL     1       3.278   3.336  17.405  0.00  0.00    +0.000 C 
ATOM     17  N   UNL     1       4.041   4.254  18.243  0.00  0.00    +0.000 N 
ATOM     18  H   UNL     1       3.199   2.835  20.649  0.00  0.00    +0.000 HD
ATOM     19  H   UNL     1       4.650   3.752  18.881  0.00  0.00    +0.000 HD
ENDBRANCH   6   7
ENDBRANCH   3   5
BRANCH   1  20
ATOM     20  C   UNL     1       0.338  11.342  20.686  0.00  0.00    +0.000 C 
BRANCH  20  23
ATOM     21  C   UNL     1       0.699   9.433  17.805  0.00  0.00    +0.000 C 
ATOM     22  C   UNL     1      -0.421  10.247  18.341  0.00  0.00    +0.000 A 
ATOM     23  C   UNL     1      -0.521  10.988  19.517  0.00  0.00    +0.000 A 
ATOM     24  O   UNL     1      -1.774  11.544  19.598  0.00  0.00    +0.000 OA
ATOM     25  C   UNL     1      -2.462  11.200  18.480  0.00  0.00    +0.000 A 
ATOM     26  C   UNL     1      -3.772  11.576  18.185  0.00  0.00    +0.000 A 
ATOM     27  C   UNL     1      -4.286  11.131  16.962  0.00  0.00    +0.000 A 
ATOM     28  C   UNL     1      -3.517  10.352  16.094  0.00  0.00    +0.000 A 
ATOM     29  C   UNL     1      -2.207   9.983  16.431  0.00  0.00    +0.000 A 
ATOM     30  C   UNL     1      -1.672  10.418  17.659  0.00  0.00    +0.000 A 
ENDBRANCH  20  23
ENDBRANCH   1  20
TORSDOF 4
ENDMDL
MODEL 2
REMARK VINA RESULT:      -8.8      1.066      1.964
REMARK  Name = 
REMARK  6 active torsions:
REMARK  status: ('A' for Active; 'I' for Inactive)
REMARK    1  A    between atoms: C_1  and  C_2
REMARK    2  A    between atoms: C_3  and  C_4
REMARK    3  A    between atoms: C_4  and  N_5
REMARK    4  A    between atoms: N_5  and  C_6
REMARK    5  A    between atoms: C_7  and  C_9
REMARK    6  A    between atoms: C_10  and  C_11
REMARK                            x       y       z     vdW  Elec       q    Type
REMARK                         _______ _______ _______ _____ _____    ______ ____
ROOT
ATOM      1  N   UNL     1      -0.152  10.844  21.955  0.00  0.00    +0.000 N 
ATOM      2  C   UNL     1      -0.948  11.730  22.785  0.00  0.00    +0.000 C 
ATOM      3  C   UNL     1       0.470   9.772  22.584  0.00  0.00    +0.000 C 
ATOM      4  O   UNL     1       0.354   9.511  23.776  0.00  0.00    +0.000 OA
ENDROOT
BRANCH   3   5
ATOM      5  C   UNL     1       1.321   8.928  21.709  0.00  0.00    +0.000 C 
ATOM      6  C   UNL     1       0.857   7.762  21.233  0.00  0.00    +0.000 C 
BRANCH   6   7
ATOM      7  C   UNL     1       1.692   6.829  20.464  0.00  0.00    +0.000 A 
ATOM      8  C   UNL     1       1.869   5.519  20.892  0.00  0.00    +0.000 A 
ATOM      9  N   UNL     1       2.652   4.603  20.269  0.00  0.00    +0.000 NA
ATOM     10  C   UNL     1       3.314   4.994  19.165  0.00  0.00    +0.000 A 
ATOM     11  C   UNL     1       3.232   6.309  18.657  0.00  0.00    +0.000 A 
ATOM     12  C   UNL     1       2.403   7.217  19.325  0.00  0.00    +0.000 A 
ATOM     13  N   UNL     1       3.897   6.760  17.487  0.00  0.00    +0.000 N 
ATOM     14  C   UNL     1       5.357   6.681  17.582  0.00  0.00    +0.000 C 
ATOM     15  C   UNL     1       5.893   5.266  17.396  0.00  0.00    +0.000 C 
ATOM     16  C   UNL     1       5.512   4.340  18.544  0.00  0.00    +0.000 C 
ATOM     17  N   UNL     1       4.091   4.011  18.523  0.00  0.00    +0.000 N 
ATOM     18  H   UNL     1       3.556   6.220  16.694  0.00  0.00    +0.000 HD
ATOM     19  H   UNL     1       3.746   3.925  17.572  0.00  0.00    +0.000 HD
ENDBRANCH   6   7
ENDBRANCH   3   5
BRANCH   1  20
ATOM     20  C   UNL     1       0.302  11.392  20.677  0.00  0.00    +0.000 C 
BRANCH  20  23
ATOM     21  C   UNL     1       0.666   9.481  17.798  0.00  0.00    +0.000 C 
ATOM     22  C   UNL     1      -0.459  10.285  18.338  0.00  0.00    +0.000 A 
ATOM     23  C   UNL     1      -0.560  11.027  19.513  0.00  0.00    +0.000 A 
ATOM     24  O   UNL     1      -1.818  11.570  19.600  0.00  0.00    +0.000 OA
ATOM     25  C   UNL     1      -2.508  11.217  18.486  0.00  0.00    +0.000 A 
ATOM     26  C   UNL     1      -3.824  11.579  18.198  0.00  0.00    +0.000 A 
ATOM     27  C   UNL     1      -4.340  11.126  16.978  0.00  0.00    +0.000 A 
ATOM     28  C   UNL     1      -3.568  10.353  16.108  0.00  0.00    +0.000 A 
ATOM     29  C   UNL     1      -2.252   9.998  16.439  0.00  0.00    +0.000 A 
ATOM     30  C   UNL     1      -1.715  10.441  17.663  0.00  0.00    +0.000 A 
ENDBRANCH  20  23
ENDBRANCH   1  20
TORSDOF 4
ENDMDL
MODEL 3
REMARK VINA RESULT:      -8.8      0.836      1.634
REMARK  Name = 
REMARK  6 active torsions:
REMARK  status: ('A' for Active; 'I' for Inactive)
REMARK    1  A    between atoms: C_1  and  C_2
REMARK    2  A    between atoms: C_3  and  C_4
REMARK    3  A    between atoms: C_4  and  N_5
REMARK    4  A    between atoms: N_5  and  C_6
REMARK    5  A    between atoms: C_7  and  C_9
REMARK    6  A    between atoms: C_10  and  C_11
REMARK                            x       y       z     vdW  Elec       q    Type
REMARK                         _______ _______ _______ _____ _____    ______ ____
ROOT
ATOM      1  N   UNL     1      -0.407  10.951  22.099  0.00  0.00    +0.000 N 
ATOM      2  C   UNL     1      -1.224  11.755  22.990  0.00  0.00    +0.000 C 
ATOM      3  C   UNL     1       0.310   9.903  22.666  0.00  0.00    +0.000 C 
ATOM      4  O   UNL     1       0.263   9.598  23.852  0.00  0.00    +0.000 OA
ENDROOT
BRANCH   3   5
ATOM      5  C   UNL     1       1.177   9.146  21.729  0.00  0.00    +0.000 C 
ATOM      6  C   UNL     1       0.785   7.952  21.258  0.00  0.00    +0.000 C 
BRANCH   6   7
ATOM      7  C   UNL     1       1.649   7.103  20.426  0.00  0.00    +0.000 A 
ATOM      8  C   UNL     1       2.230   7.605  19.267  0.00  0.00    +0.000 A 
ATOM      9  N   UNL     1       3.005   6.884  18.419  0.00  0.00    +0.000 NA
ATOM     10  C   UNL     1       3.217   5.588  18.713  0.00  0.00    +0.000 A 
ATOM     11  C   UNL     1       2.651   4.966  19.847  0.00  0.00    +0.000 A 
ATOM     12  C   UNL     1       1.867   5.751  20.701  0.00  0.00    +0.000 A 
ATOM     13  N   UNL     1       2.861   3.609  20.206  0.00  0.00    +0.000 N 
ATOM     14  C   UNL     1       2.373   2.660  19.202  0.00  0.00    +0.000 C 
ATOM     15  C   UNL     1       3.298   2.533  17.998  0.00  0.00    +0.000 C 
ATOM     16  C   UNL     1       3.339   3.800  17.154  0.00  0.00    +0.000 C 
ATOM     17  N   UNL     1       4.052   4.877  17.831  0.00  0.00    +0.000 N 
ATOM     18  H   UNL     1       3.855   3.471  20.380  0.00  0.00    +0.000 HD
ATOM     19  H   UNL     1       4.831   4.519  18.374  0.00  0.00    +0.000 HD
ENDBRANCH   6   7
ENDBRANCH   3   5
BRANCH   1  20
ATOM     20  C   UNL     1      -0.045  11.568  20.823  0.00  0.00    +0.000 C 
BRANCH  20  23
ATOM     21  C   UNL     1      -3.109  13.127  20.322  0.00  0.00    +0.000 C 
ATOM     22  C   UNL     1      -2.363  12.102  19.551  0.00  0.00    +0.000 A 
ATOM     23  C   UNL     1      -1.122  11.515  19.789  0.00  0.00    +0.000 A 
ATOM     24  O   UNL     1      -0.830  10.641  18.771  0.00  0.00    +0.000 OA
ATOM     25  C   UNL     1      -1.878  10.633  17.908  0.00  0.00    +0.000 A 
ATOM     26  C   UNL     1      -1.967   9.867  16.746  0.00  0.00    +0.000 A 
ATOM     27  C   UNL     1      -3.149   9.993  16.008  0.00  0.00    +0.000 A 
ATOM     28  C   UNL     1      -4.176  10.844  16.425  0.00  0.00    +0.000 A 
ATOM     29  C   UNL     1      -4.044  11.609  17.593  0.00  0.00    +0.000 A 
ATOM     30  C   UNL     1      -2.860  11.500  18.348  0.00  0.00    +0.000 A 
ENDBRANCH  20  23
ENDBRANCH   1  20
TORSDOF 4
ENDMDL
MODEL 4
REMARK VINA RESULT:      -8.6      6.387      9.856
REMARK  Name = 
REMARK  6 active torsions:
REMARK  status: ('A' for Active; 'I' for Inactive)
REMARK    1  A    between atoms: C_1  and  C_2
REMARK    2  A    between atoms: C_3  and  C_4
REMARK    3  A    between atoms: C_4  and  N_5
REMARK    4  A    between atoms: N_5  and  C_6
REMARK    5  A    between atoms: C_7  and  C_9
REMARK    6  A    between atoms: C_10  and  C_11
REMARK                            x       y       z     vdW  Elec       q    Type
REMARK                         _______ _______ _______ _____ _____    ______ ____
ROOT
ATOM      1  N   UNL     1       6.374   5.806  17.556  0.00  0.00    +0.000 N 
ATOM      2  C   UNL     1       5.932   4.703  16.722  0.00  0.00    +0.000 C 
ATOM      3  C   UNL     1       7.372   6.629  17.046  0.00  0.00    +0.000 C 
ATOM      4  O   UNL     1       7.868   6.502  15.932  0.00  0.00    +0.000 OA
ENDROOT
BRANCH   3   5
ATOM      5  C   UNL     1       7.834   7.706  17.956  0.00  0.00    +0.000 C 
ATOM      6  C   UNL     1       8.095   8.932  17.477  0.00  0.00    +0.000 C 
BRANCH   6   7
ATOM      7  C   UNL     1       8.668  10.003  18.303  0.00  0.00    +0.000 A 
ATOM      8  C   UNL     1       9.075   9.751  19.608  0.00  0.00    +0.000 A 
ATOM      9  N   UNL     1       9.576  10.686  20.453  0.00  0.00    +0.000 NA
ATOM     10  C   UNL     1       9.673  11.949  20.003  0.00  0.00    +0.000 A 
ATOM     11  C   UNL     1       9.260  12.326  18.706  0.00  0.00    +0.000 A 
ATOM     12  C   UNL     1       8.761  11.326  17.863  0.00  0.00    +0.000 A 
ATOM     13  N   UNL     1       9.361  13.641  18.182  0.00  0.00    +0.000 N 
ATOM     14  C   UNL     1       8.572  14.626  18.928  0.00  0.00    +0.000 C 
ATOM     15  C   UNL     1       9.226  15.048  20.239  0.00  0.00    +0.000 C 
ATOM     16  C   UNL     1       9.265  13.921  21.263  0.00  0.00    +0.000 C 
ATOM     17  N   UNL     1      10.227  12.888  20.894  0.00  0.00    +0.000 N 
ATOM     18  H   UNL     1      10.345  13.906  18.162  0.00  0.00    +0.000 HD
ATOM     19  H   UNL     1      11.043  13.288  20.443  0.00  0.00    +0.000 HD
ENDBRANCH   6   7
ENDBRANCH   3   5
BRANCH   1  20
ATOM     20  C   UNL     1       6.089   5.689  18.986  0.00  0.00    +0.000 C 
BRANCH  20  23
ATOM     21  C   UNL     1       2.872   6.911  18.505  0.00  0.00    +0.000 C 
ATOM     22  C   UNL     1       3.396   5.677  19.143  0.00  0.00    +0.000 A 
ATOM     23  C   UNL     1       4.704   5.224  19.299  0.00  0.00    +0.000 A 
ATOM     24  O   UNL     1       4.690   4.002  19.925  0.00  0.00    +0.000 OA
ATOM     25  C   UNL     1       3.399   3.685  20.202  0.00  0.00    +0.000 A 
ATOM     26  C   UNL     1       2.968   2.522  20.840  0.00  0.00    +0.000 A 
ATOM     27  C   UNL     1       1.589   2.403  21.049  0.00  0.00    +0.000 A 
ATOM     28  C   UNL     1       0.705   3.402  20.635  0.00  0.00    +0.000 A 
ATOM     29  C   UNL     1       1.176   4.552  19.984  0.00  0.00    +0.000 A 
ATOM     30  C   UNL     1       2.559   4.690  19.760  0.00  0.00    +0.000 A 
ENDBRANCH  20  23
ENDBRANCH   1  20
TORSDOF 4
ENDMDL
MODEL 5
REMARK VINA RESULT:      -8.6      3.293      8.346
REMARK  Name = 
REMARK  6 active torsions:
REMARK  status: ('A' for Active; 'I' for Inactive)
REMARK    1  A    between atoms: C_1  and  C_2
REMARK    2  A    between atoms: C_3  and  C_4
REMARK    3  A    between atoms: C_4  and  N_5
REMARK    4  A    between atoms: N_5  and  C_6
REMARK    5  A    between atoms: C_7  and  C_9
REMARK    6  A    between atoms: C_10  and  C_11
REMARK                            x       y       z     vdW  Elec       q    Type
REMARK                         _______ _______ _______ _____ _____    ______ ____
ROOT
ATOM      1  N   UNL     1       5.606   4.788  16.456  0.00  0.00    +0.000 N 
ATOM      2  C   UNL     1       6.332   4.045  15.441  0.00  0.00    +0.000 C 
ATOM      3  C   UNL     1       5.284   6.110  16.168  0.00  0.00    +0.000 C 
ATOM      4  O   UNL     1       5.538   6.665  15.105  0.00  0.00    +0.000 OA
ENDROOT
BRANCH   3   5
ATOM      5  C   UNL     1       4.596   6.848  17.256  0.00  0.00    +0.000 C 
ATOM      6  C   UNL     1       3.279   7.095  17.180  0.00  0.00    +0.000 C 
BRANCH   6   7
ATOM      7  C   UNL     1       2.567   7.922  18.163  0.00  0.00    +0.000 A 
ATOM      8  C   UNL     1       2.332   7.449  19.449  0.00  0.00    +0.000 A 
ATOM      9  N   UNL     1       1.650   8.125  20.406  0.00  0.00    +0.000 NA
ATOM     10  C   UNL     1       1.154   9.334  20.086  0.00  0.00    +0.000 A 
ATOM     11  C   UNL     1       1.306   9.899  18.801  0.00  0.00    +0.000 A 
ATOM     12  C   UNL     1       2.027   9.172  17.848  0.00  0.00    +0.000 A 
ATOM     13  N   UNL     1       0.817  11.177  18.424  0.00  0.00    +0.000 N 
ATOM     14  C   UNL     1      -0.642  11.290  18.513  0.00  0.00    +0.000 C 
ATOM     15  C   UNL     1      -1.143  11.469  19.941  0.00  0.00    +0.000 C 
ATOM     16  C   UNL     1      -0.930  10.227  20.796  0.00  0.00    +0.000 C 
ATOM     17  N   UNL     1       0.480  10.023  21.112  0.00  0.00    +0.000 N 
ATOM     18  H   UNL     1       1.270  11.880  19.005  0.00  0.00    +0.000 HD
ATOM     19  H   UNL     1       0.959  10.908  21.248  0.00  0.00    +0.000 HD
ENDBRANCH   6   7
ENDBRANCH   3   5
BRANCH   1  20
ATOM     20  C   UNL     1       5.687   4.265  17.820  0.00  0.00    +0.000 C 
BRANCH  20  23
ATOM     21  C   UNL     1       2.574   3.403  16.538  0.00  0.00    +0.000 C 
ATOM     22  C   UNL     1       3.108   3.482  17.921  0.00  0.00    +0.000 A 
ATOM     23  C   UNL     1       4.376   3.822  18.385  0.00  0.00    +0.000 A 
ATOM     24  O   UNL     1       4.404   3.715  19.753  0.00  0.00    +0.000 OA
ATOM     25  C   UNL     1       3.167   3.347  20.173  0.00  0.00    +0.000 A 
ATOM     26  C   UNL     1       2.787   3.140  21.499  0.00  0.00    +0.000 A 
ATOM     27  C   UNL     1       1.451   2.786  21.715  0.00  0.00    +0.000 A 
ATOM     28  C   UNL     1       0.557   2.651  20.650  0.00  0.00    +0.000 A 
ATOM     29  C   UNL     1       0.979   2.854  19.328  0.00  0.00    +0.000 A 
ATOM     30  C   UNL     1       2.321   3.208  19.089  0.00  0.00    +0.000 A 
ENDBRANCH  20  23
ENDBRANCH   1  20
TORSDOF 4
ENDMDL
MODEL 6
REMARK VINA RESULT:      -8.3      3.662      8.025
REMARK  Name = 
REMARK  6 active torsions:
REMARK  status: ('A' for Active; 'I' for Inactive)
REMARK    1  A    between atoms: C_1  and  C_2
REMARK    2  A    between atoms: C_3  and  C_4
REMARK    3  A    between atoms: C_4  and  N_5
REMARK    4  A    between atoms: N_5  and  C_6
REMARK    5  A    between atoms: C_7  and  C_9
REMARK    6  A    between atoms: C_10  and  C_11
REMARK                            x       y       z     vdW  Elec       q    Type
REMARK                         _______ _______ _______ _____ _____    ______ ____
ROOT
ATOM      1  N   UNL     1       6.244   5.078  17.212  0.00  0.00    +0.000 N 
ATOM      2  C   UNL     1       7.292   4.485  16.401  0.00  0.00    +0.000 C 
ATOM      3  C   UNL     1       5.834   6.365  16.881  0.00  0.00    +0.000 C 
ATOM      4  O   UNL     1       6.272   7.004  15.931  0.00  0.00    +0.000 OA
ENDROOT
BRANCH   3   5
ATOM      5  C   UNL     1       4.805   6.953  17.773  0.00  0.00    +0.000 C 
ATOM      6  C   UNL     1       3.593   7.271  17.291  0.00  0.00    +0.000 C 
BRANCH   6   7
ATOM      7  C   UNL     1       2.576   7.965  18.093  0.00  0.00    +0.000 A 
ATOM      8  C   UNL     1       1.871   9.041  17.565  0.00  0.00    +0.000 A 
ATOM      9  N   UNL     1       0.946   9.764  18.245  0.00  0.00    +0.000 NA
ATOM     10  C   UNL     1       0.704   9.426  19.523  0.00  0.00    +0.000 A 
ATOM     11  C   UNL     1       1.383   8.371  20.171  0.00  0.00    +0.000 A 
ATOM     12  C   UNL     1       2.320   7.644  19.428  0.00  0.00    +0.000 A 
ATOM     13  N   UNL     1       1.147   7.968  21.511  0.00  0.00    +0.000 N 
ATOM     14  C   UNL     1       1.438   9.016  22.493  0.00  0.00    +0.000 C 
ATOM     15  C   UNL     1       0.349  10.080  22.574  0.00  0.00    +0.000 C 
ATOM     16  C   UNL     1       0.266  10.928  21.311  0.00  0.00    +0.000 C 
ATOM     17  N   UNL     1      -0.285  10.175  20.190  0.00  0.00    +0.000 N 
ATOM     18  H   UNL     1       0.180   7.657  21.589  0.00  0.00    +0.000 HD
ATOM     19  H   UNL     1      -1.001   9.525  20.498  0.00  0.00    +0.000 HD
ENDBRANCH   6   7
ENDBRANCH   3   5
BRANCH   1  20
ATOM     20  C   UNL     1       6.048   4.495  18.540  0.00  0.00    +0.000 C 
BRANCH  20  23
ATOM     21  C   UNL     1       3.341   3.530  16.586  0.00  0.00    +0.000 C 
ATOM     22  C   UNL     1       3.544   3.618  18.054  0.00  0.00    +0.000 A 
ATOM     23  C   UNL     1       4.661   4.001  18.793  0.00  0.00    +0.000 A 
ATOM     24  O   UNL     1       4.381   3.886  20.132  0.00  0.00    +0.000 OA
ATOM     25  C   UNL     1       3.095   3.471  20.260  0.00  0.00    +0.000 A 
ATOM     26  C   UNL     1       2.432   3.242  21.466  0.00  0.00    +0.000 A 
ATOM     27  C   UNL     1       1.095   2.839  21.373  0.00  0.00    +0.000 A 
ATOM     28  C   UNL     1       0.472   2.678  20.133  0.00  0.00    +0.000 A 
ATOM     29  C   UNL     1       1.175   2.905  18.942  0.00  0.00    +0.000 A 
ATOM     30  C   UNL     1       2.523   3.309  19.013  0.00  0.00    +0.000 A 
ENDBRANCH  20  23
ENDBRANCH   1  20
TORSDOF 4
ENDMDL
MODEL 7
REMARK VINA RESULT:      -8.3      3.677      8.498
REMARK  Name = 
REMARK  6 active torsions:
REMARK  status: ('A' for Active; 'I' for Inactive)
REMARK    1  A    between atoms: C_1  and  C_2
REMARK    2  A    between atoms: C_3  and  C_4
REMARK    3  A    between atoms: C_4  and  N_5
REMARK    4  A    between atoms: N_5  and  C_6
REMARK    5  A    between atoms: C_7  and  C_9
REMARK    6  A    between atoms: C_10  and  C_11
REMARK                            x       y       z     vdW  Elec       q    Type
REMARK                         _______ _______ _______ _____ _____    ______ ____
ROOT
ATOM      1  N   UNL     1       3.617   2.974  18.431  0.00  0.00    +0.000 N 
ATOM      2  C   UNL     1       3.921   1.597  18.778  0.00  0.00    +0.000 C 
ATOM      3  C   UNL     1       2.518   3.558  19.050  0.00  0.00    +0.000 C 
ATOM      4  O   UNL     1       1.822   2.999  19.890  0.00  0.00    +0.000 OA
ENDROOT
BRANCH   3   5
ATOM      5  C   UNL     1       2.209   4.944  18.621  0.00  0.00    +0.000 C 
ATOM      6  C   UNL     1       2.533   5.984  19.405  0.00  0.00    +0.000 C 
BRANCH   6   7
ATOM      7  C   UNL     1       2.147   7.366  19.092  0.00  0.00    +0.000 A 
ATOM      8  C   UNL     1       2.592   7.979  17.926  0.00  0.00    +0.000 A 
ATOM      9  N   UNL     1       2.319   9.262  17.578  0.00  0.00    +0.000 NA
ATOM     10  C   UNL     1       1.578   9.997  18.425  0.00  0.00    +0.000 A 
ATOM     11  C   UNL     1       1.099   9.487  19.652  0.00  0.00    +0.000 A 
ATOM     12  C   UNL     1       1.394   8.155  19.966  0.00  0.00    +0.000 A 
ATOM     13  N   UNL     1       0.299  10.219  20.567  0.00  0.00    +0.000 N 
ATOM     14  C   UNL     1       0.968  11.409  21.101  0.00  0.00    +0.000 C 
ATOM     15  C   UNL     1       0.992  12.574  20.119  0.00  0.00    +0.000 C 
ATOM     16  C   UNL     1       1.878  12.303  18.910  0.00  0.00    +0.000 C 
ATOM     17  N   UNL     1       1.286  11.313  18.018  0.00  0.00    +0.000 N 
ATOM     18  H   UNL     1      -0.572  10.472  20.104  0.00  0.00    +0.000 HD
ATOM     19  H   UNL     1       0.276  11.402  17.985  0.00  0.00    +0.000 HD
ENDBRANCH   6   7
ENDBRANCH   3   5
BRANCH   1  20
ATOM     20  C   UNL     1       4.173   3.459  17.168  0.00  0.00    +0.000 C 
BRANCH  20  23
ATOM     21  C   UNL     1       4.832   6.373  15.394  0.00  0.00    +0.000 C 
ATOM     22  C   UNL     1       5.415   5.791  16.629  0.00  0.00    +0.000 A 
ATOM     23  C   UNL     1       5.104   4.618  17.312  0.00  0.00    +0.000 A 
ATOM     24  O   UNL     1       5.894   4.520  18.431  0.00  0.00    +0.000 OA
ATOM     25  C   UNL     1       6.727   5.592  18.454  0.00  0.00    +0.000 A 
ATOM     26  C   UNL     1       7.688   5.852  19.431  0.00  0.00    +0.000 A 
ATOM     27  C   UNL     1       8.460   7.005  19.251  0.00  0.00    +0.000 A 
ATOM     28  C   UNL     1       8.267   7.841  18.149  0.00  0.00    +0.000 A 
ATOM     29  C   UNL     1       7.281   7.553  17.194  0.00  0.00    +0.000 A 
ATOM     30  C   UNL     1       6.491   6.399  17.358  0.00  0.00    +0.000 A 
ENDBRANCH  20  23
ENDBRANCH   1  20
TORSDOF 4
ENDMDL
MODEL 8
REMARK VINA RESULT:      -8.2      3.233      8.307
REMARK  Name = 
REMARK  6 active torsions:
REMARK  status: ('A' for Active; 'I' for Inactive)
REMARK    1  A    between atoms: C_1  and  C_2
REMARK    2  A    between atoms: C_3  and  C_4
REMARK    3  A    between atoms: C_4  and  N_5
REMARK    4  A    between atoms: N_5  and  C_6
REMARK    5  A    between atoms: C_7  and  C_9
REMARK    6  A    between atoms: C_10  and  C_11
REMARK                            x       y       z     vdW  Elec       q    Type
REMARK                         _______ _______ _______ _____ _____    ______ ____
ROOT
ATOM      1  N   UNL     1       2.869   3.523  19.880  0.00  0.00    +0.000 N 
ATOM      2  C   UNL     1       3.462   2.214  20.091  0.00  0.00    +0.000 C 
ATOM      3  C   UNL     1       2.178   4.087  20.947  0.00  0.00    +0.000 C 
ATOM      4  O   UNL     1       2.075   3.568  22.053  0.00  0.00    +0.000 OA
ENDROOT
BRANCH   3   5
ATOM      5  C   UNL     1       1.539   5.397  20.669  0.00  0.00    +0.000 C 
ATOM      6  C   UNL     1       2.270   6.522  20.672  0.00  0.00    +0.000 C 
BRANCH   6   7
ATOM      7  C   UNL     1       1.676   7.857  20.523  0.00  0.00    +0.000 A 
ATOM      8  C   UNL     1       1.338   8.611  21.642  0.00  0.00    +0.000 A 
ATOM      9  N   UNL     1       0.750   9.832  21.599  0.00  0.00    +0.000 NA
ATOM     10  C   UNL     1       0.460  10.345  20.390  0.00  0.00    +0.000 A 
ATOM     11  C   UNL     1       0.731   9.655  19.188  0.00  0.00    +0.000 A 
ATOM     12  C   UNL     1       1.350   8.403  19.279  0.00  0.00    +0.000 A 
ATOM     13  N   UNL     1       0.460  10.164  17.892  0.00  0.00    +0.000 N 
ATOM     14  C   UNL     1      -0.963  10.417  17.652  0.00  0.00    +0.000 C 
ATOM     15  C   UNL     1      -1.463  11.699  18.310  0.00  0.00    +0.000 C 
ATOM     16  C   UNL     1      -1.470  11.611  19.831  0.00  0.00    +0.000 C 
ATOM     17  N   UNL     1      -0.119  11.629  20.380  0.00  0.00    +0.000 N 
ATOM     18  H   UNL     1       1.006  11.014  17.759  0.00  0.00    +0.000 HD
ATOM     19  H   UNL     1       0.491  12.232  19.838  0.00  0.00    +0.000 HD
ENDBRANCH   6   7
ENDBRANCH   3   5
BRANCH   1  20
ATOM     20  C   UNL     1       2.647   3.915  18.488  0.00  0.00    +0.000 C 
BRANCH  20  23
ATOM     21  C   UNL     1       5.675   5.456  19.216  0.00  0.00    +0.000 C 
ATOM     22  C   UNL     1       5.119   4.862  17.974  0.00  0.00    +0.000 A 
ATOM     23  C   UNL     1       3.896   4.240  17.736  0.00  0.00    +0.000 A 
ATOM     24  O   UNL     1       3.847   3.818  16.431  0.00  0.00    +0.000 OA
ATOM     25  C   UNL     1       5.002   4.190  15.823  0.00  0.00    +0.000 A 
ATOM     26  C   UNL     1       5.334   3.949  14.490  0.00  0.00    +0.000 A 
ATOM     27  C   UNL     1       6.570   4.441  14.058  0.00  0.00    +0.000 A 
ATOM     28  C   UNL     1       7.417   5.134  14.926  0.00  0.00    +0.000 A 
ATOM     29  C   UNL     1       7.055   5.346  16.265  0.00  0.00    +0.000 A 
ATOM     30  C   UNL     1       5.816   4.855  16.721  0.00  0.00    +0.000 A 
ENDBRANCH  20  23
ENDBRANCH   1  20
TORSDOF 4
ENDMDL
MODEL 9
REMARK VINA RESULT:      -8.2      0.944      1.392
REMARK  Name = 
REMARK  6 active torsions:
REMARK  status: ('A' for Active; 'I' for Inactive)
REMARK    1  A    between atoms: C_1  and  C_2
REMARK    2  A    between atoms: C_3  and  C_4
REMARK    3  A    between atoms: C_4  and  N_5
REMARK    4  A    between atoms: N_5  and  C_6
REMARK    5  A    between atoms: C_7  and  C_9
REMARK    6  A    between atoms: C_10  and  C_11
REMARK                            x       y       z     vdW  Elec       q    Type
REMARK                         _______ _______ _______ _____ _____    ______ ____
ROOT
ATOM      1  N   UNL     1      -0.515  11.136  21.671  0.00  0.00    +0.000 N 
ATOM      2  C   UNL     1      -1.022  12.096  22.636  0.00  0.00    +0.000 C 
ATOM      3  C   UNL     1       0.214  10.061  22.167  0.00  0.00    +0.000 C 
ATOM      4  O   UNL     1       0.417   9.857  23.358  0.00  0.00    +0.000 OA
ENDROOT
BRANCH   3   5
ATOM      5  C   UNL     1       0.762   9.138  21.142  0.00  0.00    +0.000 C 
ATOM      6  C   UNL     1       1.060   7.870  21.463  0.00  0.00    +0.000 C 
BRANCH   6   7
ATOM      7  C   UNL     1       1.716   6.947  20.527  0.00  0.00    +0.000 A 
ATOM      8  C   UNL     1       2.249   7.411  19.330  0.00  0.00    +0.000 A 
ATOM      9  N   UNL     1       2.835   6.626  18.391  0.00  0.00    +0.000 NA
ATOM     10  C   UNL     1       2.892   5.304  18.628  0.00  0.00    +0.000 A 
ATOM     11  C   UNL     1       2.355   4.718  19.796  0.00  0.00    +0.000 A 
ATOM     12  C   UNL     1       1.771   5.567  20.743  0.00  0.00    +0.000 A 
ATOM     13  N   UNL     1       2.408   3.333  20.096  0.00  0.00    +0.000 N 
ATOM     14  C   UNL     1       1.701   2.499  19.120  0.00  0.00    +0.000 C 
ATOM     15  C   UNL     1       2.483   2.296  17.827  0.00  0.00    +0.000 C 
ATOM     16  C   UNL     1       2.619   3.579  17.017  0.00  0.00    +0.000 C 
ATOM     17  N   UNL     1       3.535   4.522  17.649  0.00  0.00    +0.000 N 
ATOM     18  H   UNL     1       3.386   3.055  20.167  0.00  0.00    +0.000 HD
ATOM     19  H   UNL     1       4.305   4.041  18.103  0.00  0.00    +0.000 HD
ENDBRANCH   6   7
ENDBRANCH   3   5
BRANCH   1  20
ATOM     20  C   UNL     1      -0.406  11.605  20.290  0.00  0.00    +0.000 C 
BRANCH  20  23
ATOM     21  C   UNL     1      -1.484  10.001  17.402  0.00  0.00    +0.000 C 
ATOM     22  C   UNL     1      -2.155  10.920  18.355  0.00  0.00    +0.000 A 
ATOM     23  C   UNL     1      -1.680  11.530  19.514  0.00  0.00    +0.000 A 
ATOM     24  O   UNL     1      -2.686  12.269  20.084  0.00  0.00    +0.000 OA
ATOM     25  C   UNL     1      -3.784  12.169  19.292  0.00  0.00    +0.000 A 
ATOM     26  C   UNL     1      -5.014  12.783  19.528  0.00  0.00    +0.000 A 
ATOM     27  C   UNL     1      -6.010  12.568  18.569  0.00  0.00    +0.000 A 
ATOM     28  C   UNL     1      -5.771  11.778  17.442  0.00  0.00    +0.000 A 
ATOM     29  C   UNL     1      -4.525  11.166  17.246  0.00  0.00    +0.000 A 
ATOM     30  C   UNL     1      -3.510  11.367  18.201  0.00  0.00    +0.000 A 
ENDBRANCH  20  23
ENDBRANCH   1  20
TORSDOF 4
ENDMDL
