MODEL 1
REMARK VINA RESULT:      -6.7      0.000      0.000
REMARK  Name = 
REMARK  13 active torsions:
REMARK  status: ('A' for Active; 'I' for Inactive)
REMARK    1  A    between atoms: C_1  and  O_2
REMARK    2  A    between atoms: O_2  and  C_3
REMARK    3  A    between atoms: C_7  and  O_8
REMARK    4  A    between atoms: O_8  and  C_9
REMARK    5  A    between atoms: C_9  and  C_10
REMARK    6  A    between atoms: C_10  and  O_11
REMARK    7  A    between atoms: C_10  and  C_12
REMARK    8  A    between atoms: C_12  and  N_13
REMARK    9  A    between atoms: N_13  and  C_14
REMARK   10  A    between atoms: N_13  and  C_17
REMARK   11  A    between atoms: C_14  and  C_15
REMARK   12  A    between atoms: C_15  and  O_16
REMARK   13  A    between atoms: C_17  and  C_18
REMARK                            x       y       z     vdW  Elec       q    Type
REMARK                         _______ _______ _______ _____ _____    ______ ____
ROOT
ATOM      1  C   UNL     1       4.154   1.976  20.263  0.00  0.00    +0.000 C 
ENDROOT
BRANCH   1   2
ATOM      2  O   UNL     1       5.221   1.608  21.160  0.00  0.00    +0.000 OA
ATOM      3  H   UNL     1       6.039   2.026  20.839  0.00  0.00    +0.000 HD
ENDBRANCH   1   2
BRANCH   1   4
ATOM      4  C   UNL     1       4.708   2.766  19.067  0.00  0.00    +0.000 C 
BRANCH   4   5
ATOM      5  O   UNL     1       5.411   3.911  19.566  0.00  0.00    +0.000 OA
BRANCH   5  10
ATOM      6  C   UNL     1       6.324   5.678  16.430  0.00  0.00    +0.000 A 
ATOM      7  C   UNL     1       7.303   6.530  16.945  0.00  0.00    +0.000 A 
ATOM      8  C   UNL     1       7.618   6.495  18.306  0.00  0.00    +0.000 A 
ATOM      9  C   UNL     1       6.959   5.604  19.146  0.00  0.00    +0.000 A 
ATOM     10  C   UNL     1       5.981   4.745  18.642  0.00  0.00    +0.000 A 
ATOM     11  C   UNL     1       5.664   4.787  17.281  0.00  0.00    +0.000 A 
BRANCH   6  13
ATOM     12  C   UNL     1       6.334   4.643  14.289  0.00  0.00    +0.000 C 
ATOM     13  O   UNL     1       6.106   5.801  15.083  0.00  0.00    +0.000 OA
ENDBRANCH   6  13
ENDBRANCH   5  10
ENDBRANCH   4   5
ENDBRANCH   1   4
BRANCH   1  14
ATOM     14  C   UNL     1       3.134   2.795  21.081  0.00  0.00    +0.000 C 
BRANCH  14  15
ATOM     15  N   UNL     1       2.220   3.715  20.349  0.00  0.00    +0.000 NA
BRANCH  15  16
ATOM     16  C   UNL     1       0.890   3.068  20.186  0.00  0.00    +0.000 C 
BRANCH  16  17
ATOM     17  C   UNL     1       0.637   2.401  18.822  0.00  0.00    +0.000 C 
BRANCH  17  18
ATOM     18  O   UNL     1       1.230   3.151  17.768  0.00  0.00    +0.000 OA
ATOM     19  H   UNL     1       1.070   4.088  17.983  0.00  0.00    +0.000 HD
ENDBRANCH  17  18
ENDBRANCH  16  17
ENDBRANCH  15  16
BRANCH  15  20
ATOM     20  C   UNL     1       2.102   4.992  21.107  0.00  0.00    +0.000 C 
BRANCH  20  21
ATOM     21  C   UNL     1       2.012   6.205  20.197  0.00  0.00    +0.000 A 
ATOM     22  C   UNL     1       2.560   6.163  18.906  0.00  0.00    +0.000 A 
ATOM     23  C   UNL     1       2.621   7.319  18.127  0.00  0.00    +0.000 A 
ATOM     24  C   UNL     1       2.123   8.522  18.623  0.00  0.00    +0.000 A 
ATOM     25  C   UNL     1       1.541   8.568  19.888  0.00  0.00    +0.000 A 
ATOM     26  C   UNL     1       1.478   7.414  20.670  0.00  0.00    +0.000 A 
ENDBRANCH  20  21
ENDBRANCH  15  20
ENDBRANCH  14  15
ENDBRANCH   1  14
TORSDOF 12
ENDMDL
MODEL 2
REMARK VINA RESULT:      -6.4      1.210      2.155
REMARK  Name = 
REMARK  13 active torsions:
REMARK  status: ('A' for Active; 'I' for Inactive)
REMARK    1  A    between atoms: C_1  and  O_2
REMARK    2  A    between atoms: O_2  and  C_3
REMARK    3  A    between atoms: C_7  and  O_8
REMARK    4  A    between atoms: O_8  and  C_9
REMARK    5  A    between atoms: C_9  and  C_10
REMARK    6  A    between atoms: C_10  and  O_11
REMARK    7  A    between atoms: C_10  and  C_12
REMARK    8  A    between atoms: C_12  and  N_13
REMARK    9  A    between atoms: N_13  and  C_14
REMARK   10  A    between atoms: N_13  and  C_17
REMARK   11  A    between atoms: C_14  and  C_15
REMARK   12  A    between atoms: C_15  and  O_16
REMARK   13  A    between atoms: C_17  and  C_18
REMARK                            x       y       z     vdW  Elec       q    Type
REMARK                         _______ _______ _______ _____ _____    ______ ____
ROOT
ATOM      1  C   UNL     1       4.096   2.175  19.994  0.00  0.00    +0.000 C 
ENDROOT
BRANCH   1   2
ATOM      2  O   UNL     1       5.023   1.865  21.054  0.00  0.00    +0.000 OA
ATOM      3  H   UNL     1       4.603   2.107  21.898  0.00  0.00    +0.000 HD
ENDBRANCH   1   2
BRANCH   1   4
ATOM      4  C   UNL     1       4.799   2.964  18.880  0.00  0.00    +0.000 C 
BRANCH   4   5
ATOM      5  O   UNL     1       5.754   3.848  19.483  0.00  0.00    +0.000 OA
BRANCH   5  10
ATOM      6  C   UNL     1       7.573   6.834  18.233  0.00  0.00    +0.000 A 
ATOM      7  C   UNL     1       7.010   6.905  16.957  0.00  0.00    +0.000 A 
ATOM      8  C   UNL     1       6.059   5.963  16.556  0.00  0.00    +0.000 A 
ATOM      9  C   UNL     1       5.670   4.957  17.434  0.00  0.00    +0.000 A 
ATOM     10  C   UNL     1       6.223   4.877  18.713  0.00  0.00    +0.000 A 
ATOM     11  C   UNL     1       7.179   5.818  19.107  0.00  0.00    +0.000 A 
BRANCH   6  13
ATOM     12  C   UNL     1       8.220   9.109  17.987  0.00  0.00    +0.000 C 
ATOM     13  O   UNL     1       8.489   7.814  18.512  0.00  0.00    +0.000 OA
ENDBRANCH   6  13
ENDBRANCH   5  10
ENDBRANCH   4   5
ENDBRANCH   1   4
BRANCH   1  14
ATOM     14  C   UNL     1       2.932   2.968  20.625  0.00  0.00    +0.000 C 
BRANCH  14  15
ATOM     15  N   UNL     1       2.318   4.069  19.833  0.00  0.00    +0.000 NA
BRANCH  15  16
ATOM     16  C   UNL     1       0.988   3.637  19.328  0.00  0.00    +0.000 C 
BRANCH  16  17
ATOM     17  C   UNL     1       0.895   2.174  18.861  0.00  0.00    +0.000 C 
BRANCH  17  18
ATOM     18  O   UNL     1       1.608   1.979  17.645  0.00  0.00    +0.000 OA
ATOM     19  H   UNL     1       2.441   1.538  17.890  0.00  0.00    +0.000 HD
ENDBRANCH  17  18
ENDBRANCH  16  17
ENDBRANCH  15  16
BRANCH  15  20
ATOM     20  C   UNL     1       2.197   5.280  20.692  0.00  0.00    +0.000 C 
BRANCH  20  21
ATOM     21  C   UNL     1       2.236   6.570  19.892  0.00  0.00    +0.000 A 
ATOM     22  C   UNL     1       1.599   7.723  20.376  0.00  0.00    +0.000 A 
ATOM     23  C   UNL     1       1.495   8.861  19.576  0.00  0.00    +0.000 A 
ATOM     24  C   UNL     1       2.039   8.865  18.293  0.00  0.00    +0.000 A 
ATOM     25  C   UNL     1       2.708   7.739  17.816  0.00  0.00    +0.000 A 
ATOM     26  C   UNL     1       2.813   6.599  18.613  0.00  0.00    +0.000 A 
ENDBRANCH  20  21
ENDBRANCH  15  20
ENDBRANCH  14  15
ENDBRANCH   1  14
TORSDOF 12
ENDMDL
MODEL 3
REMARK VINA RESULT:      -6.4      2.309      5.700
REMARK  Name = 
REMARK  13 active torsions:
REMARK  status: ('A' for Active; 'I' for Inactive)
REMARK    1  A    between atoms: C_1  and  O_2
REMARK    2  A    between atoms: O_2  and  C_3
REMARK    3  A    between atoms: C_7  and  O_8
REMARK    4  A    between atoms: O_8  and  C_9
REMARK    5  A    between atoms: C_9  and  C_10
REMARK    6  A    between atoms: C_10  and  O_11
REMARK    7  A    between atoms: C_10  and  C_12
REMARK    8  A    between atoms: C_12  and  N_13
REMARK    9  A    between atoms: N_13  and  C_14
REMARK   10  A    between atoms: N_13  and  C_17
REMARK   11  A    between atoms: C_14  and  C_15
REMARK   12  A    between atoms: C_15  and  O_16
REMARK   13  A    between atoms: C_17  and  C_18
REMARK                            x       y       z     vdW  Elec       q    Type
REMARK                         _______ _______ _______ _____ _____    ______ ____
ROOT
ATOM      1  C   UNL     1       1.888   3.997  20.010  0.00  0.00    +0.000 C 
ENDROOT
BRANCH   1   2
ATOM      2  O   UNL     1       0.488   3.661  20.092  0.00  0.00    +0.000 OA
ATOM      3  H   UNL     1       0.076   3.889  19.241  0.00  0.00    +0.000 HD
ENDBRANCH   1   2
BRANCH   1   4
ATOM      4  C   UNL     1       2.160   5.338  20.708  0.00  0.00    +0.000 C 
BRANCH   4   5
ATOM      5  O   UNL     1       2.786   6.220  19.768  0.00  0.00    +0.000 OA
BRANCH   5  10
ATOM      6  C   UNL     1       0.944   9.417  20.189  0.00  0.00    +0.000 A 
ATOM      7  C   UNL     1       1.029   9.884  18.877  0.00  0.00    +0.000 A 
ATOM      8  C   UNL     1       1.696   9.132  17.906  0.00  0.00    +0.000 A 
ATOM      9  C   UNL     1       2.271   7.913  18.250  0.00  0.00    +0.000 A 
ATOM     10  C   UNL     1       2.189   7.434  19.558  0.00  0.00    +0.000 A 
ATOM     11  C   UNL     1       1.526   8.192  20.527  0.00  0.00    +0.000 A 
BRANCH   6  13
ATOM     12  C   UNL     1      -0.329   9.624  22.187  0.00  0.00    +0.000 C 
ATOM     13  O   UNL     1       0.263  10.239  21.048  0.00  0.00    +0.000 OA
ENDBRANCH   6  13
ENDBRANCH   5  10
ENDBRANCH   4   5
ENDBRANCH   1   4
BRANCH   1  14
ATOM     14  C   UNL     1       2.260   4.033  18.512  0.00  0.00    +0.000 C 
BRANCH  14  15
ATOM     15  N   UNL     1       3.622   3.584  18.114  0.00  0.00    +0.000 NA
BRANCH  15  16
ATOM     16  C   UNL     1       3.592   2.134  17.788  0.00  0.00    +0.000 C 
BRANCH  16  17
ATOM     17  C   UNL     1       3.961   1.184  18.941  0.00  0.00    +0.000 C 
BRANCH  17  18
ATOM     18  O   UNL     1       4.975   1.749  19.764  0.00  0.00    +0.000 OA
ATOM     19  H   UNL     1       4.525   2.397  20.337  0.00  0.00    +0.000 HD
ENDBRANCH  17  18
ENDBRANCH  16  17
ENDBRANCH  15  16
BRANCH  15  20
ATOM     20  C   UNL     1       4.077   4.386  16.943  0.00  0.00    +0.000 C 
BRANCH  20  21
ATOM     21  C   UNL     1       5.356   5.155  17.224  0.00  0.00    +0.000 A 
ATOM     22  C   UNL     1       6.417   4.540  17.907  0.00  0.00    +0.000 A 
ATOM     23  C   UNL     1       7.527   5.285  18.306  0.00  0.00    +0.000 A 
ATOM     24  C   UNL     1       7.595   6.646  18.014  0.00  0.00    +0.000 A 
ATOM     25  C   UNL     1       6.566   7.260  17.302  0.00  0.00    +0.000 A 
ATOM     26  C   UNL     1       5.454   6.518  16.901  0.00  0.00    +0.000 A 
ENDBRANCH  20  21
ENDBRANCH  15  20
ENDBRANCH  14  15
ENDBRANCH   1  14
TORSDOF 12
ENDMDL
MODEL 4
REMARK VINA RESULT:      -6.2      1.835      2.550
REMARK  Name = 
REMARK  13 active torsions:
REMARK  status: ('A' for Active; 'I' for Inactive)
REMARK    1  A    between atoms: C_1  and  O_2
REMARK    2  A    between atoms: O_2  and  C_3
REMARK    3  A    between atoms: C_7  and  O_8
REMARK    4  A    between atoms: O_8  and  C_9
REMARK    5  A    between atoms: C_9  and  C_10
REMARK    6  A    between atoms: C_10  and  O_11
REMARK    7  A    between atoms: C_10  and  C_12
REMARK    8  A    between atoms: C_12  and  N_13
REMARK    9  A    between atoms: N_13  and  C_14
REMARK   10  A    between atoms: N_13  and  C_17
REMARK   11  A    between atoms: C_14  and  C_15
REMARK   12  A    between atoms: C_15  and  O_16
REMARK   13  A    between atoms: C_17  and  C_18
REMARK                            x       y       z     vdW  Elec       q    Type
REMARK                         _______ _______ _______ _____ _____    ______ ____
ROOT
ATOM      1  C   UNL     1       3.589   3.013  17.931  0.00  0.00    +0.000 C 
ENDROOT
BRANCH   1   2
ATOM      2  O   UNL     1       3.620   1.590  18.162  0.00  0.00    +0.000 OA
ATOM      3  H   UNL     1       4.072   1.435  19.010  0.00  0.00    +0.000 HD
ENDBRANCH   1   2
BRANCH   1   4
ATOM      4  C   UNL     1       4.835   3.456  17.150  0.00  0.00    +0.000 C 
BRANCH   4   5
ATOM      5  O   UNL     1       4.771   4.877  16.962  0.00  0.00    +0.000 OA
BRANCH   5  10
ATOM      6  C   UNL     1       7.266   7.559  17.573  0.00  0.00    +0.000 A 
ATOM      7  C   UNL     1       8.031   6.917  18.549  0.00  0.00    +0.000 A 
ATOM      8  C   UNL     1       7.691   5.629  18.972  0.00  0.00    +0.000 A 
ATOM      9  C   UNL     1       6.592   4.986  18.415  0.00  0.00    +0.000 A 
ATOM     10  C   UNL     1       5.821   5.616  17.437  0.00  0.00    +0.000 A 
ATOM     11  C   UNL     1       6.160   6.906  17.021  0.00  0.00    +0.000 A 
BRANCH   6  13
ATOM     12  C   UNL     1       8.543   9.472  18.176  0.00  0.00    +0.000 C 
ATOM     13  O   UNL     1       7.699   8.815  17.238  0.00  0.00    +0.000 OA
ENDBRANCH   6  13
ENDBRANCH   5  10
ENDBRANCH   4   5
ENDBRANCH   1   4
BRANCH   1  14
ATOM     14  C   UNL     1       3.492   3.696  19.312  0.00  0.00    +0.000 C 
BRANCH  14  15
ATOM     15  N   UNL     1       2.502   4.794  19.487  0.00  0.00    +0.000 NA
BRANCH  15  16
ATOM     16  C   UNL     1       1.626   4.492  20.650  0.00  0.00    +0.000 C 
BRANCH  16  17
ATOM     17  C   UNL     1       0.922   3.124  20.617  0.00  0.00    +0.000 C 
BRANCH  17  18
ATOM     18  O   UNL     1       1.104   2.425  21.842  0.00  0.00    +0.000 OA
ATOM     19  H   UNL     1       1.616   3.022  22.418  0.00  0.00    +0.000 HD
ENDBRANCH  17  18
ENDBRANCH  16  17
ENDBRANCH  15  16
BRANCH  15  20
ATOM     20  C   UNL     1       3.228   6.079  19.685  0.00  0.00    +0.000 C 
BRANCH  20  21
ATOM     21  C   UNL     1       2.356   7.291  19.405  0.00  0.00    +0.000 A 
ATOM     22  C   UNL     1       2.250   7.801  18.102  0.00  0.00    +0.000 A 
ATOM     23  C   UNL     1       1.581   9.003  17.866  0.00  0.00    +0.000 A 
ATOM     24  C   UNL     1       1.000   9.698  18.925  0.00  0.00    +0.000 A 
ATOM     25  C   UNL     1       1.065   9.182  20.218  0.00  0.00    +0.000 A 
ATOM     26  C   UNL     1       1.734   7.980  20.458  0.00  0.00    +0.000 A 
ENDBRANCH  20  21
ENDBRANCH  15  20
ENDBRANCH  14  15
ENDBRANCH   1  14
TORSDOF 12
ENDMDL
MODEL 5
REMARK VINA RESULT:      -6.1      0.700      1.209
REMARK  Name = 
REMARK  13 active torsions:
REMARK  status: ('A' for Active; 'I' for Inactive)
REMARK    1  A    between atoms: C_1  and  O_2
REMARK    2  A    between atoms: O_2  and  C_3
REMARK    3  A    between atoms: C_7  and  O_8
REMARK    4  A    between atoms: O_8  and  C_9
REMARK    5  A    between atoms: C_9  and  C_10
REMARK    6  A    between atoms: C_10  and  O_11
REMARK    7  A    between atoms: C_10  and  C_12
REMARK    8  A    between atoms: C_12  and  N_13
REMARK    9  A    between atoms: N_13  and  C_14
REMARK   10  A    between atoms: N_13  and  C_17
REMARK   11  A    between atoms: C_14  and  C_15
REMARK   12  A    between atoms: C_15  and  O_16
REMARK   13  A    between atoms: C_17  and  C_18
REMARK                            x       y       z     vdW  Elec       q    Type
REMARK                         _______ _______ _______ _____ _____    ______ ____
ROOT
ATOM      1  C   UNL     1       4.134   2.019  20.335  0.00  0.00    +0.000 C 
ENDROOT
BRANCH   1   2
ATOM      2  O   UNL     1       5.259   1.899  21.228  0.00  0.00    +0.000 OA
ATOM      3  H   UNL     1       5.224   1.017  21.636  0.00  0.00    +0.000 HD
ENDBRANCH   1   2
BRANCH   1   4
ATOM      4  C   UNL     1       4.563   2.687  19.020  0.00  0.00    +0.000 C 
BRANCH   4   5
ATOM      5  O   UNL     1       5.469   3.756  19.327  0.00  0.00    +0.000 OA
BRANCH   5  10
ATOM      6  C   UNL     1       6.489   4.871  15.935  0.00  0.00    +0.000 A 
ATOM      7  C   UNL     1       7.164   6.040  16.292  0.00  0.00    +0.000 A 
ATOM      8  C   UNL     1       7.251   6.419  17.634  0.00  0.00    +0.000 A 
ATOM      9  C   UNL     1       6.667   5.625  18.615  0.00  0.00    +0.000 A 
ATOM     10  C   UNL     1       5.992   4.452  18.272  0.00  0.00    +0.000 A 
ATOM     11  C   UNL     1       5.902   4.081  16.928  0.00  0.00    +0.000 A 
BRANCH   6  13
ATOM     12  C   UNL     1       7.459   5.256  13.799  0.00  0.00    +0.000 C 
ATOM     13  O   UNL     1       6.475   4.603  14.592  0.00  0.00    +0.000 OA
ENDBRANCH   6  13
ENDBRANCH   5  10
ENDBRANCH   4   5
ENDBRANCH   1   4
BRANCH   1  14
ATOM     14  C   UNL     1       3.050   2.831  21.075  0.00  0.00    +0.000 C 
BRANCH  14  15
ATOM     15  N   UNL     1       2.238   3.802  20.291  0.00  0.00    +0.000 NA
BRANCH  15  16
ATOM     16  C   UNL     1       0.864   3.264  20.103  0.00  0.00    +0.000 C 
BRANCH  16  17
ATOM     17  C   UNL     1       0.567   2.665  18.717  0.00  0.00    +0.000 C 
BRANCH  17  18
ATOM     18  O   UNL     1       1.310   1.470  18.506  0.00  0.00    +0.000 OA
ATOM     19  H   UNL     1       0.850   0.776  19.012  0.00  0.00    +0.000 HD
ENDBRANCH  17  18
ENDBRANCH  16  17
ENDBRANCH  15  16
BRANCH  15  20
ATOM     20  C   UNL     1       2.208   5.106  21.010  0.00  0.00    +0.000 C 
BRANCH  20  21
ATOM     21  C   UNL     1       2.312   6.294  20.070  0.00  0.00    +0.000 A 
ATOM     22  C   UNL     1       1.686   7.509  20.391  0.00  0.00    +0.000 A 
ATOM     23  C   UNL     1       1.645   8.549  19.462  0.00  0.00    +0.000 A 
ATOM     24  C   UNL     1       2.240   8.392  18.211  0.00  0.00    +0.000 A 
ATOM     25  C   UNL     1       2.899   7.206  17.895  0.00  0.00    +0.000 A 
ATOM     26  C   UNL     1       2.942   6.163  18.822  0.00  0.00    +0.000 A 
ENDBRANCH  20  21
ENDBRANCH  15  20
ENDBRANCH  14  15
ENDBRANCH   1  14
TORSDOF 12
ENDMDL
MODEL 6
REMARK VINA RESULT:      -6.1      2.003      3.412
REMARK  Name = 
REMARK  13 active torsions:
REMARK  status: ('A' for Active; 'I' for Inactive)
REMARK    1  A    between atoms: C_1  and  O_2
REMARK    2  A    between atoms: O_2  and  C_3
REMARK    3  A    between atoms: C_7  and  O_8
REMARK    4  A    between atoms: O_8  and  C_9
REMARK    5  A    between atoms: C_9  and  C_10
REMARK    6  A    between atoms: C_10  and  O_11
REMARK    7  A    between atoms: C_10  and  C_12
REMARK    8  A    between atoms: C_12  and  N_13
REMARK    9  A    between atoms: N_13  and  C_14
REMARK   10  A    between atoms: N_13  and  C_17
REMARK   11  A    between atoms: C_14  and  C_15
REMARK   12  A    between atoms: C_15  and  O_16
REMARK   13  A    between atoms: C_17  and  C_18
REMARK                            x       y       z     vdW  Elec       q    Type
REMARK                         _______ _______ _______ _____ _____    ______ ____
ROOT
ATOM      1  C   UNL     1       5.262   3.993  17.876  0.00  0.00    +0.000 C 
ENDROOT
BRANCH   1   2
ATOM      2  O   UNL     1       6.696   4.056  18.013  0.00  0.00    +0.000 OA
ATOM      3  H   UNL     1       6.995   3.218  18.404  0.00  0.00    +0.000 HD
ENDBRANCH   1   2
BRANCH   1   4
ATOM      4  C   UNL     1       4.832   4.504  16.493  0.00  0.00    +0.000 C 
BRANCH   4   5
ATOM      5  O   UNL     1       5.962   5.130  15.869  0.00  0.00    +0.000 OA
BRANCH   5  10
ATOM      6  C   UNL     1       5.935   3.512  12.526  0.00  0.00    +0.000 A 
ATOM      7  C   UNL     1       7.087   4.099  11.999  0.00  0.00    +0.000 A 
ATOM      8  C   UNL     1       7.823   5.010  12.761  0.00  0.00    +0.000 A 
ATOM      9  C   UNL     1       7.408   5.326  14.051  0.00  0.00    +0.000 A 
ATOM     10  C   UNL     1       6.260   4.743  14.590  0.00  0.00    +0.000 A 
ATOM     11  C   UNL     1       5.524   3.838  13.822  0.00  0.00    +0.000 A 
BRANCH   6  13
ATOM     12  C   UNL     1       4.057   3.053  11.143  0.00  0.00    +0.000 C 
ATOM     13  O   UNL     1       5.303   2.634  11.687  0.00  0.00    +0.000 OA
ENDBRANCH   6  13
ENDBRANCH   5  10
ENDBRANCH   4   5
ENDBRANCH   1   4
BRANCH   1  14
ATOM     14  C   UNL     1       4.659   4.834  19.022  0.00  0.00    +0.000 C 
BRANCH  14  15
ATOM     15  N   UNL     1       3.193   5.093  19.009  0.00  0.00    +0.000 NA
BRANCH  15  16
ATOM     16  C   UNL     1       2.460   3.817  19.225  0.00  0.00    +0.000 C 
BRANCH  16  17
ATOM     17  C   UNL     1       1.551   3.773  20.467  0.00  0.00    +0.000 C 
BRANCH  17  18
ATOM     18  O   UNL     1       0.341   3.078  20.190  0.00  0.00    +0.000 OA
ATOM     19  H   UNL     1       0.595   2.295  19.668  0.00  0.00    +0.000 HD
ENDBRANCH  17  18
ENDBRANCH  16  17
ENDBRANCH  15  16
BRANCH  15  20
ATOM     20  C   UNL     1       2.864   6.085  20.071  0.00  0.00    +0.000 C 
BRANCH  20  21
ATOM     21  C   UNL     1       2.206   7.337  19.516  0.00  0.00    +0.000 A 
ATOM     22  C   UNL     1       2.414   7.714  18.181  0.00  0.00    +0.000 A 
ATOM     23  C   UNL     1       1.944   8.941  17.712  0.00  0.00    +0.000 A 
ATOM     24  C   UNL     1       1.250   9.796  18.566  0.00  0.00    +0.000 A 
ATOM     25  C   UNL     1       1.003   9.415  19.884  0.00  0.00    +0.000 A 
ATOM     26  C   UNL     1       1.471   8.189  20.357  0.00  0.00    +0.000 A 
ENDBRANCH  20  21
ENDBRANCH  15  20
ENDBRANCH  14  15
ENDBRANCH   1  14
TORSDOF 12
ENDMDL
MODEL 7
REMARK VINA RESULT:      -6.1      2.566      5.785
REMARK  Name = 
REMARK  13 active torsions:
REMARK  status: ('A' for Active; 'I' for Inactive)
REMARK    1  A    between atoms: C_1  and  O_2
REMARK    2  A    between atoms: O_2  and  C_3
REMARK    3  A    between atoms: C_7  and  O_8
REMARK    4  A    between atoms: O_8  and  C_9
REMARK    5  A    between atoms: C_9  and  C_10
REMARK    6  A    between atoms: C_10  and  O_11
REMARK    7  A    between atoms: C_10  and  C_12
REMARK    8  A    between atoms: C_12  and  N_13
REMARK    9  A    between atoms: N_13  and  C_14
REMARK   10  A    between atoms: N_13  and  C_17
REMARK   11  A    between atoms: C_14  and  C_15
REMARK   12  A    between atoms: C_15  and  O_16
REMARK   13  A    between atoms: C_17  and  C_18
REMARK                            x       y       z     vdW  Elec       q    Type
REMARK                         _______ _______ _______ _____ _____    ______ ____
ROOT
ATOM      1  C   UNL     1       1.945   4.481  20.731  0.00  0.00    +0.000 C 
ENDROOT
BRANCH   1   2
ATOM      2  O   UNL     1       0.859   3.542  20.861  0.00  0.00    +0.000 OA
ATOM      3  H   UNL     1       0.655   3.451  21.807  0.00  0.00    +0.000 HD
ENDBRANCH   1   2
BRANCH   1   4
ATOM      4  C   UNL     1       1.420   5.923  20.805  0.00  0.00    +0.000 C 
BRANCH   4   5
ATOM      5  O   UNL     1       2.347   6.779  20.124  0.00  0.00    +0.000 OA
BRANCH   5  10
ATOM      6  C   UNL     1       0.683  10.089  19.861  0.00  0.00    +0.000 A 
ATOM      7  C   UNL     1       0.994  10.376  18.531  0.00  0.00    +0.000 A 
ATOM      8  C   UNL     1       1.746   9.472  17.775  0.00  0.00    +0.000 A 
ATOM      9  C   UNL     1       2.178   8.282  18.350  0.00  0.00    +0.000 A 
ATOM     10  C   UNL     1       1.870   7.983  19.678  0.00  0.00    +0.000 A 
ATOM     11  C   UNL     1       1.124   8.892  20.432  0.00  0.00    +0.000 A 
BRANCH   6  13
ATOM     12  C   UNL     1      -0.697  12.016  19.671  0.00  0.00    +0.000 C 
ATOM     13  O   UNL     1      -0.061  11.048  20.496  0.00  0.00    +0.000 OA
ENDBRANCH   6  13
ENDBRANCH   5  10
ENDBRANCH   4   5
ENDBRANCH   1   4
BRANCH   1  14
ATOM     14  C   UNL     1       2.646   4.184  19.388  0.00  0.00    +0.000 C 
BRANCH  14  15
ATOM     15  N   UNL     1       4.109   3.910  19.402  0.00  0.00    +0.000 NA
BRANCH  15  16
ATOM     16  C   UNL     1       4.344   2.478  19.730  0.00  0.00    +0.000 C 
BRANCH  16  17
ATOM     17  C   UNL     1       3.428   1.472  19.011  0.00  0.00    +0.000 C 
BRANCH  17  18
ATOM     18  O   UNL     1       4.154   0.720  18.045  0.00  0.00    +0.000 OA
ATOM     19  H   UNL     1       5.091   0.787  18.302  0.00  0.00    +0.000 HD
ENDBRANCH  17  18
ENDBRANCH  16  17
ENDBRANCH  15  16
BRANCH  15  20
ATOM     20  C   UNL     1       4.683   4.254  18.072  0.00  0.00    +0.000 C 
BRANCH  20  21
ATOM     21  C   UNL     1       5.742   5.340  18.156  0.00  0.00    +0.000 A 
ATOM     22  C   UNL     1       5.678   6.459  17.311  0.00  0.00    +0.000 A 
ATOM     23  C   UNL     1       6.729   7.376  17.273  0.00  0.00    +0.000 A 
ATOM     24  C   UNL     1       7.844   7.194  18.089  0.00  0.00    +0.000 A 
ATOM     25  C   UNL     1       7.902   6.109  18.961  0.00  0.00    +0.000 A 
ATOM     26  C   UNL     1       6.853   5.189  19.001  0.00  0.00    +0.000 A 
ENDBRANCH  20  21
ENDBRANCH  15  20
ENDBRANCH  14  15
ENDBRANCH   1  14
TORSDOF 12
ENDMDL
MODEL 8
REMARK VINA RESULT:      -6.1      2.653      6.378
REMARK  Name = 
REMARK  13 active torsions:
REMARK  status: ('A' for Active; 'I' for Inactive)
REMARK    1  A    between atoms: C_1  and  O_2
REMARK    2  A    between atoms: O_2  and  C_3
REMARK    3  A    between atoms: C_7  and  O_8
REMARK    4  A    between atoms: O_8  and  C_9
REMARK    5  A    between atoms: C_9  and  C_10
REMARK    6  A    between atoms: C_10  and  O_11
REMARK    7  A    between atoms: C_10  and  C_12
REMARK    8  A    between atoms: C_12  and  N_13
REMARK    9  A    between atoms: N_13  and  C_14
REMARK   10  A    between atoms: N_13  and  C_17
REMARK   11  A    between atoms: C_14  and  C_15
REMARK   12  A    between atoms: C_15  and  O_16
REMARK   13  A    between atoms: C_17  and  C_18
REMARK                            x       y       z     vdW  Elec       q    Type
REMARK                         _______ _______ _______ _____ _____    ______ ____
ROOT
ATOM      1  C   UNL     1       4.375   6.520  16.919  0.00  0.00    +0.000 C 
ENDROOT
BRANCH   1   2
ATOM      2  O   UNL     1       5.085   6.971  15.748  0.00  0.00    +0.000 OA
ATOM      3  H   UNL     1       5.111   6.234  15.113  0.00  0.00    +0.000 HD
ENDBRANCH   1   2
BRANCH   1   4
ATOM      4  C   UNL     1       3.383   7.593  17.390  0.00  0.00    +0.000 C 
BRANCH   4   5
ATOM      5  O   UNL     1       2.835   7.182  18.650  0.00  0.00    +0.000 OA
BRANCH   5  10
ATOM      6  C   UNL     1       0.484   9.960  19.391  0.00  0.00    +0.000 A 
ATOM      7  C   UNL     1       0.235   9.673  20.735  0.00  0.00    +0.000 A 
ATOM      8  C   UNL     1       0.845   8.572  21.342  0.00  0.00    +0.000 A 
ATOM      9  C   UNL     1       1.706   7.766  20.606  0.00  0.00    +0.000 A 
ATOM     10  C   UNL     1       1.966   8.044  19.263  0.00  0.00    +0.000 A 
ATOM     11  C   UNL     1       1.348   9.142  18.658  0.00  0.00    +0.000 A 
BRANCH   6  13
ATOM     12  C   UNL     1      -1.304  10.830  18.088  0.00  0.00    +0.000 C 
ATOM     13  O   UNL     1      -0.168  11.065  18.910  0.00  0.00    +0.000 OA
ENDBRANCH   6  13
ENDBRANCH   5  10
ENDBRANCH   4   5
ENDBRANCH   1   4
BRANCH   1  14
ATOM     14  C   UNL     1       5.433   6.191  17.993  0.00  0.00    +0.000 C 
BRANCH  14  15
ATOM     15  N   UNL     1       5.834   4.769  18.176  0.00  0.00    +0.000 NA
BRANCH  15  16
ATOM     16  C   UNL     1       7.315   4.677  18.269  0.00  0.00    +0.000 C 
BRANCH  16  17
ATOM     17  C   UNL     1       8.002   5.791  19.079  0.00  0.00    +0.000 C 
BRANCH  17  18
ATOM     18  O   UNL     1       8.171   5.404  20.438  0.00  0.00    +0.000 OA
ATOM     19  H   UNL     1       9.088   5.082  20.513  0.00  0.00    +0.000 HD
ENDBRANCH  17  18
ENDBRANCH  16  17
ENDBRANCH  15  16
BRANCH  15  20
ATOM     20  C   UNL     1       5.187   4.234  19.407  0.00  0.00    +0.000 C 
BRANCH  20  21
ATOM     21  C   UNL     1       3.809   3.655  19.138  0.00  0.00    +0.000 A 
ATOM     22  C   UNL     1       3.602   2.798  18.047  0.00  0.00    +0.000 A 
ATOM     23  C   UNL     1       2.311   2.392  17.703  0.00  0.00    +0.000 A 
ATOM     24  C   UNL     1       1.220   2.825  18.453  0.00  0.00    +0.000 A 
ATOM     25  C   UNL     1       1.417   3.644  19.563  0.00  0.00    +0.000 A 
ATOM     26  C   UNL     1       2.706   4.053  19.910  0.00  0.00    +0.000 A 
ENDBRANCH  20  21
ENDBRANCH  15  20
ENDBRANCH  14  15
ENDBRANCH   1  14
TORSDOF 12
ENDMDL
MODEL 9
REMARK VINA RESULT:      -6.0      2.346      6.071
REMARK  Name = 
REMARK  13 active torsions:
REMARK  status: ('A' for Active; 'I' for Inactive)
REMARK    1  A    between atoms: C_1  and  O_2
REMARK    2  A    between atoms: O_2  and  C_3
REMARK    3  A    between atoms: C_7  and  O_8
REMARK    4  A    between atoms: O_8  and  C_9
REMARK    5  A    between atoms: C_9  and  C_10
REMARK    6  A    between atoms: C_10  and  O_11
REMARK    7  A    between atoms: C_10  and  C_12
REMARK    8  A    between atoms: C_12  and  N_13
REMARK    9  A    between atoms: N_13  and  C_14
REMARK   10  A    between atoms: N_13  and  C_17
REMARK   11  A    between atoms: C_14  and  C_15
REMARK   12  A    between atoms: C_15  and  O_16
REMARK   13  A    between atoms: C_17  and  C_18
REMARK                            x       y       z     vdW  Elec       q    Type
REMARK                         _______ _______ _______ _____ _____    ______ ____
ROOT
ATOM      1  C   UNL     1       5.044   5.874  18.830  0.00  0.00    +0.000 C 
ENDROOT
BRANCH   1   2
ATOM      2  O   UNL     1       4.340   5.568  20.050  0.00  0.00    +0.000 OA
ATOM      3  H   UNL     1       4.869   4.920  20.546  0.00  0.00    +0.000 HD
ENDBRANCH   1   2
BRANCH   1   4
ATOM      4  C   UNL     1       4.148   6.685  17.883  0.00  0.00    +0.000 C 
BRANCH   4   5
ATOM      5  O   UNL     1       2.787   6.541  18.311  0.00  0.00    +0.000 OA
BRANCH   5  10
ATOM      6  C   UNL     1       1.198   9.075  20.512  0.00  0.00    +0.000 A 
ATOM      7  C   UNL     1       0.871  10.022  19.540  0.00  0.00    +0.000 A 
ATOM      8  C   UNL     1       1.192   9.793  18.200  0.00  0.00    +0.000 A 
ATOM      9  C   UNL     1       1.835   8.615  17.835  0.00  0.00    +0.000 A 
ATOM     10  C   UNL     1       2.164   7.659  18.796  0.00  0.00    +0.000 A 
ATOM     11  C   UNL     1       1.847   7.895  20.137  0.00  0.00    +0.000 A 
BRANCH   6  13
ATOM     12  C   UNL     1      -0.464   8.993  22.210  0.00  0.00    +0.000 C 
ATOM     13  O   UNL     1       0.829   9.409  21.788  0.00  0.00    +0.000 OA
ENDBRANCH   6  13
ENDBRANCH   5  10
ENDBRANCH   4   5
ENDBRANCH   1   4
BRANCH   1  14
ATOM     14  C   UNL     1       5.485   4.532  18.210  0.00  0.00    +0.000 C 
BRANCH  14  15
ATOM     15  N   UNL     1       4.717   4.006  17.048  0.00  0.00    +0.000 NA
BRANCH  15  16
ATOM     16  C   UNL     1       5.616   3.889  15.869  0.00  0.00    +0.000 C 
BRANCH  16  17
ATOM     17  C   UNL     1       7.021   4.493  16.040  0.00  0.00    +0.000 C 
BRANCH  17  18
ATOM     18  O   UNL     1       7.382   5.276  14.908  0.00  0.00    +0.000 OA
ATOM     19  H   UNL     1       6.571   5.741  14.634  0.00  0.00    +0.000 HD
ENDBRANCH  17  18
ENDBRANCH  16  17
ENDBRANCH  15  16
BRANCH  15  20
ATOM     20  C   UNL     1       4.132   2.684  17.408  0.00  0.00    +0.000 C 
BRANCH  20  21
ATOM     21  C   UNL     1       3.074   2.789  18.492  0.00  0.00    +0.000 A 
ATOM     22  C   UNL     1       1.842   3.404  18.222  0.00  0.00    +0.000 A 
ATOM     23  C   UNL     1       0.932   3.644  19.252  0.00  0.00    +0.000 A 
ATOM     24  C   UNL     1       1.236   3.260  20.556  0.00  0.00    +0.000 A 
ATOM     25  C   UNL     1       2.439   2.613  20.831  0.00  0.00    +0.000 A 
ATOM     26  C   UNL     1       3.352   2.371  19.803  0.00  0.00    +0.000 A 
ENDBRANCH  20  21
ENDBRANCH  15  20
ENDBRANCH  14  15
ENDBRANCH   1  14
TORSDOF 12
ENDMDL
