MODEL 1
REMARK VINA RESULT:      -7.0      0.000      0.000
REMARK  Name = 
REMARK  6 active torsions:
REMARK  status: ('A' for Active; 'I' for Inactive)
REMARK    1  A    between atoms: C_1  and  C_2
REMARK    2  A    between atoms: C_2  and  C_3
REMARK    3  A    between atoms: C_9  and  C_11
REMARK    4  A    between atoms: C_17  and  C_18
REMARK    5  A    between atoms: C_18  and  O_19
REMARK    6  A    between atoms: O_19  and  C_20
REMARK                            x       y       z     vdW  Elec       q    Type
REMARK                         _______ _______ _______ _____ _____    ______ ____
ROOT
ATOM      1  C   UNL     1       6.465   4.771  14.581  0.00  0.00    +0.000 C 
ATOM      2  O   UNL     1       7.103   5.723  14.130  0.00  0.00    +0.000 OA
ATOM      3  N   UNL     1       5.852   4.816  15.825  0.00  0.00    +0.000 N 
ATOM      4  C   UNL     1       5.879   6.053  16.604  0.00  0.00    +0.000 C 
ATOM      5  C   UNL     1       4.463   6.456  17.058  0.00  0.00    +0.000 C 
ATOM      6  N   UNL     1       3.754   5.337  17.724  0.00  0.00    +0.000 N 
ATOM      7  C   UNL     1       3.047   5.701  18.880  0.00  0.00    +0.000 C 
ATOM      8  O   UNL     1       2.954   6.881  19.227  0.00  0.00    +0.000 OA
ATOM      9  C   UNL     1       3.685   4.129  16.831  0.00  0.00    +0.000 C 
ATOM     10  C   UNL     1       5.134   3.711  16.469  0.00  0.00    +0.000 C 
ENDROOT
BRANCH   7  11
ATOM     11  C   UNL     1       2.403   4.735  19.796  0.00  0.00    +0.000 A 
ATOM     12  C   UNL     1       2.943   4.409  21.041  0.00  0.00    +0.000 A 
ATOM     13  C   UNL     1       2.369   3.391  21.805  0.00  0.00    +0.000 A 
ATOM     14  C   UNL     1       1.171   2.802  21.402  0.00  0.00    +0.000 A 
ATOM     15  C   UNL     1       0.535   3.246  20.246  0.00  0.00    +0.000 A 
ATOM     16  C   UNL     1       1.156   4.201  19.439  0.00  0.00    +0.000 A 
ENDBRANCH   7  11
BRANCH   1  18
ATOM     17  C   UNL     1       6.538   3.682  12.296  0.00  0.00    +0.000 C 
ATOM     18  C   UNL     1       6.275   3.495  13.777  0.00  0.00    +0.000 C 
ENDBRANCH   1  18
BRANCH   9  19
ATOM     19  C   UNL     1       2.891   2.846  17.144  0.00  0.00    +0.000 C 
BRANCH  19  20
ATOM     20  O   UNL     1       3.675   1.723  17.515  0.00  0.00    +0.000 OA
ATOM     21  C   UNL     1       3.580   1.376  18.884  0.00  0.00    +0.000 C 
ENDBRANCH  19  20
ENDBRANCH   9  19
TORSDOF 4
ENDMDL
MODEL 2
REMARK VINA RESULT:      -6.6      0.287      1.079
REMARK  Name = 
REMARK  6 active torsions:
REMARK  status: ('A' for Active; 'I' for Inactive)
REMARK    1  A    between atoms: C_1  and  C_2
REMARK    2  A    between atoms: C_2  and  C_3
REMARK    3  A    between atoms: C_9  and  C_11
REMARK    4  A    between atoms: C_17  and  C_18
REMARK    5  A    between atoms: C_18  and  O_19
REMARK    6  A    between atoms: O_19  and  C_20
REMARK                            x       y       z     vdW  Elec       q    Type
REMARK                         _______ _______ _______ _____ _____    ______ ____
ROOT
ATOM      1  C   UNL     1       6.638   4.729  14.668  0.00  0.00    +0.000 C 
ATOM      2  O   UNL     1       7.371   5.654  14.316  0.00  0.00    +0.000 OA
ATOM      3  N   UNL     1       6.019   4.708  15.909  0.00  0.00    +0.000 N 
ATOM      4  C   UNL     1       6.156   5.853  16.809  0.00  0.00    +0.000 C 
ATOM      5  C   UNL     1       4.781   6.344  17.299  0.00  0.00    +0.000 C 
ATOM      6  N   UNL     1       3.961   5.238  17.849  0.00  0.00    +0.000 N 
ATOM      7  C   UNL     1       3.279   5.552  19.035  0.00  0.00    +0.000 C 
ATOM      8  O   UNL     1       3.296   6.695  19.498  0.00  0.00    +0.000 OA
ATOM      9  C   UNL     1       3.785   4.138  16.839  0.00  0.00    +0.000 C 
ATOM     10  C   UNL     1       5.191   3.619  16.439  0.00  0.00    +0.000 C 
ENDROOT
BRANCH   7  11
ATOM     11  C   UNL     1       2.535   4.566  19.848  0.00  0.00    +0.000 A 
ATOM     12  C   UNL     1       1.235   4.166  19.533  0.00  0.00    +0.000 A 
ATOM     13  C   UNL     1       0.529   3.338  20.409  0.00  0.00    +0.000 A 
ATOM     14  C   UNL     1       1.167   2.787  21.519  0.00  0.00    +0.000 A 
ATOM     15  C   UNL     1       2.517   3.045  21.743  0.00  0.00    +0.000 A 
ATOM     16  C   UNL     1       3.195   3.942  20.916  0.00  0.00    +0.000 A 
ENDBRANCH   7  11
BRANCH   1  18
ATOM     17  C   UNL     1       6.774   3.813  12.310  0.00  0.00    +0.000 C 
ATOM     18  C   UNL     1       6.335   3.563  13.740  0.00  0.00    +0.000 C 
ENDBRANCH   1  18
BRANCH   9  19
ATOM     19  C   UNL     1       2.868   2.913  17.021  0.00  0.00    +0.000 C 
BRANCH  19  20
ATOM     20  O   UNL     1       3.535   1.688  17.280  0.00  0.00    +0.000 OA
ATOM     21  C   UNL     1       3.613   1.348  18.652  0.00  0.00    +0.000 C 
ENDBRANCH  19  20
ENDBRANCH   9  19
TORSDOF 4
ENDMDL
MODEL 3
REMARK VINA RESULT:      -6.4      1.509      1.861
REMARK  Name = 
REMARK  6 active torsions:
REMARK  status: ('A' for Active; 'I' for Inactive)
REMARK    1  A    between atoms: C_1  and  C_2
REMARK    2  A    between atoms: C_2  and  C_3
REMARK    3  A    between atoms: C_9  and  C_11
REMARK    4  A    between atoms: C_17  and  C_18
REMARK    5  A    between atoms: C_18  and  O_19
REMARK    6  A    between atoms: O_19  and  C_20
REMARK                            x       y       z     vdW  Elec       q    Type
REMARK                         _______ _______ _______ _____ _____    ______ ____
ROOT
ATOM      1  C   UNL     1       6.351   4.156  13.770  0.00  0.00    +0.000 C 
ATOM      2  O   UNL     1       7.416   4.607  13.350  0.00  0.00    +0.000 OA
ATOM      3  N   UNL     1       6.096   4.002  15.124  0.00  0.00    +0.000 N 
ATOM      4  C   UNL     1       7.077   4.467  16.106  0.00  0.00    +0.000 C 
ATOM      5  C   UNL     1       6.421   5.384  17.156  0.00  0.00    +0.000 C 
ATOM      6  N   UNL     1       5.213   4.767  17.755  0.00  0.00    +0.000 N 
ATOM      7  C   UNL     1       5.108   4.923  19.145  0.00  0.00    +0.000 C 
ATOM      8  O   UNL     1       5.915   5.612  19.774  0.00  0.00    +0.000 OA
ATOM      9  C   UNL     1       4.211   4.399  16.697  0.00  0.00    +0.000 C 
ATOM     10  C   UNL     1       4.888   3.411  15.711  0.00  0.00    +0.000 C 
ENDROOT
BRANCH   7  11
ATOM     11  C   UNL     1       4.081   4.260  19.977  0.00  0.00    +0.000 A 
ATOM     12  C   UNL     1       2.892   4.893  20.344  0.00  0.00    +0.000 A 
ATOM     13  C   UNL     1       2.020   4.273  21.242  0.00  0.00    +0.000 A 
ATOM     14  C   UNL     1       2.256   2.962  21.656  0.00  0.00    +0.000 A 
ATOM     15  C   UNL     1       3.352   2.263  21.156  0.00  0.00    +0.000 A 
ATOM     16  C   UNL     1       4.268   2.915  20.329  0.00  0.00    +0.000 A 
ENDBRANCH   7  11
BRANCH   1  18
ATOM     17  C   UNL     1       5.638   2.734  11.798  0.00  0.00    +0.000 C 
ATOM     18  C   UNL     1       5.225   3.774  12.821  0.00  0.00    +0.000 C 
ENDBRANCH   1  18
BRANCH   9  19
ATOM     19  C   UNL     1       2.786   3.880  16.974  0.00  0.00    +0.000 C 
BRANCH  19  20
ATOM     20  O   UNL     1       2.699   2.511  17.337  0.00  0.00    +0.000 OA
ATOM     21  C   UNL     1       1.568   2.191  18.125  0.00  0.00    +0.000 C 
ENDBRANCH  19  20
ENDBRANCH   9  19
TORSDOF 4
ENDMDL
MODEL 4
REMARK VINA RESULT:      -6.3      1.325      1.577
REMARK  Name = 
REMARK  6 active torsions:
REMARK  status: ('A' for Active; 'I' for Inactive)
REMARK    1  A    between atoms: C_1  and  C_2
REMARK    2  A    between atoms: C_2  and  C_3
REMARK    3  A    between atoms: C_9  and  C_11
REMARK    4  A    between atoms: C_17  and  C_18
REMARK    5  A    between atoms: C_18  and  O_19
REMARK    6  A    between atoms: O_19  and  C_20
REMARK                            x       y       z     vdW  Elec       q    Type
REMARK                         _______ _______ _______ _____ _____    ______ ____
ROOT
ATOM      1  C   UNL     1       6.651   4.530  14.028  0.00  0.00    +0.000 C 
ATOM      2  O   UNL     1       7.502   5.326  13.630  0.00  0.00    +0.000 OA
ATOM      3  N   UNL     1       6.316   4.415  15.369  0.00  0.00    +0.000 N 
ATOM      4  C   UNL     1       6.918   5.320  16.348  0.00  0.00    +0.000 C 
ATOM      5  C   UNL     1       5.841   5.996  17.218  0.00  0.00    +0.000 C 
ATOM      6  N   UNL     1       4.901   5.009  17.804  0.00  0.00    +0.000 N 
ATOM      7  C   UNL     1       4.580   5.239  19.150  0.00  0.00    +0.000 C 
ATOM      8  O   UNL     1       4.978   6.247  19.739  0.00  0.00    +0.000 OA
ATOM      9  C   UNL     1       4.252   4.177  16.734  0.00  0.00    +0.000 C 
ATOM     10  C   UNL     1       5.369   3.451  15.939  0.00  0.00    +0.000 C 
ENDROOT
BRANCH   7  11
ATOM     11  C   UNL     1       3.797   4.304  19.986  0.00  0.00    +0.000 A 
ATOM     12  C   UNL     1       4.208   2.992  20.225  0.00  0.00    +0.000 A 
ATOM     13  C   UNL     1       3.364   2.111  20.907  0.00  0.00    +0.000 A 
ATOM     14  C   UNL     1       2.182   2.575  21.481  0.00  0.00    +0.000 A 
ATOM     15  C   UNL     1       1.852   3.925  21.393  0.00  0.00    +0.000 A 
ATOM     16  C   UNL     1       2.651   4.784  20.636  0.00  0.00    +0.000 A 
ENDBRANCH   7  11
BRANCH   1  18
ATOM     17  C   UNL     1       6.695   3.247  11.844  0.00  0.00    +0.000 C 
ATOM     18  C   UNL     1       5.881   3.647  13.059  0.00  0.00    +0.000 C 
ENDBRANCH   1  18
BRANCH   9  19
ATOM     19  C   UNL     1       3.115   3.164  16.974  0.00  0.00    +0.000 C 
BRANCH  19  20
ATOM     20  O   UNL     1       1.827   3.731  17.158  0.00  0.00    +0.000 OA
ATOM     21  C   UNL     1       1.013   3.033  18.082  0.00  0.00    +0.000 C 
ENDBRANCH  19  20
ENDBRANCH   9  19
TORSDOF 4
ENDMDL
MODEL 5
REMARK VINA RESULT:      -5.9      3.080      6.062
REMARK  Name = 
REMARK  6 active torsions:
REMARK  status: ('A' for Active; 'I' for Inactive)
REMARK    1  A    between atoms: C_1  and  C_2
REMARK    2  A    between atoms: C_2  and  C_3
REMARK    3  A    between atoms: C_9  and  C_11
REMARK    4  A    between atoms: C_17  and  C_18
REMARK    5  A    between atoms: C_18  and  O_19
REMARK    6  A    between atoms: O_19  and  C_20
REMARK                            x       y       z     vdW  Elec       q    Type
REMARK                         _______ _______ _______ _____ _____    ______ ____
ROOT
ATOM      1  C   UNL     1       1.169  10.123  19.781  0.00  0.00    +0.000 C 
ATOM      2  O   UNL     1       1.289  11.203  19.201  0.00  0.00    +0.000 OA
ATOM      3  N   UNL     1       1.480   8.918  19.170  0.00  0.00    +0.000 N 
ATOM      4  C   UNL     1       2.053   8.912  17.823  0.00  0.00    +0.000 C 
ATOM      5  C   UNL     1       3.341   8.069  17.770  0.00  0.00    +0.000 C 
ATOM      6  N   UNL     1       3.144   6.718  18.349  0.00  0.00    +0.000 N 
ATOM      7  C   UNL     1       3.731   5.677  17.613  0.00  0.00    +0.000 C 
ATOM      8  O   UNL     1       4.435   5.910  16.628  0.00  0.00    +0.000 OA
ATOM      9  C   UNL     1       2.642   6.801  19.764  0.00  0.00    +0.000 C 
ATOM     10  C   UNL     1       1.303   7.585  19.757  0.00  0.00    +0.000 C 
ENDROOT
BRANCH   7  11
ATOM     11  C   UNL     1       3.531   4.241  17.905  0.00  0.00    +0.000 A 
ATOM     12  C   UNL     1       2.522   3.489  17.303  0.00  0.00    +0.000 A 
ATOM     13  C   UNL     1       2.291   2.174  17.716  0.00  0.00    +0.000 A 
ATOM     14  C   UNL     1       3.160   1.561  18.618  0.00  0.00    +0.000 A 
ATOM     15  C   UNL     1       4.272   2.253  19.090  0.00  0.00    +0.000 A 
ATOM     16  C   UNL     1       4.450   3.594  18.744  0.00  0.00    +0.000 A 
ENDBRANCH   7  11
BRANCH   1  18
ATOM     17  C   UNL     1      -0.727  10.500  21.418  0.00  0.00    +0.000 C 
ATOM     18  C   UNL     1       0.709  10.050  21.228  0.00  0.00    +0.000 C 
ENDBRANCH   1  18
BRANCH   9  19
ATOM     19  C   UNL     1       2.475   5.598  20.712  0.00  0.00    +0.000 C 
BRANCH  19  20
ATOM     20  O   UNL     1       1.295   4.834  20.521  0.00  0.00    +0.000 OA
ATOM     21  C   UNL     1       1.351   3.532  21.074  0.00  0.00    +0.000 C 
ENDBRANCH  19  20
ENDBRANCH   9  19
TORSDOF 4
ENDMDL
MODEL 6
REMARK VINA RESULT:      -5.9      2.038      6.389
REMARK  Name = 
REMARK  6 active torsions:
REMARK  status: ('A' for Active; 'I' for Inactive)
REMARK    1  A    between atoms: C_1  and  C_2
REMARK    2  A    between atoms: C_2  and  C_3
REMARK    3  A    between atoms: C_9  and  C_11
REMARK    4  A    between atoms: C_17  and  C_18
REMARK    5  A    between atoms: C_18  and  O_19
REMARK    6  A    between atoms: O_19  and  C_20
REMARK                            x       y       z     vdW  Elec       q    Type
REMARK                         _______ _______ _______ _____ _____    ______ ____
ROOT
ATOM      1  C   UNL     1       1.589   2.169  19.286  0.00  0.00    +0.000 C 
ATOM      2  O   UNL     1       1.177   1.134  18.761  0.00  0.00    +0.000 OA
ATOM      3  N   UNL     1       2.831   2.707  18.984  0.00  0.00    +0.000 N 
ATOM      4  C   UNL     1       3.658   2.089  17.947  0.00  0.00    +0.000 C 
ATOM      5  C   UNL     1       4.122   3.131  16.912  0.00  0.00    +0.000 C 
ATOM      6  N   UNL     1       4.743   4.315  17.555  0.00  0.00    +0.000 N 
ATOM      7  C   UNL     1       5.910   4.775  16.926  0.00  0.00    +0.000 C 
ATOM      8  O   UNL     1       6.301   4.280  15.866  0.00  0.00    +0.000 OA
ATOM      9  C   UNL     1       3.803   4.952  18.541  0.00  0.00    +0.000 C 
ATOM     10  C   UNL     1       3.430   3.891  19.610  0.00  0.00    +0.000 C 
ENDROOT
BRANCH   7  11
ATOM     11  C   UNL     1       6.785   5.832  17.476  0.00  0.00    +0.000 A 
ATOM     12  C   UNL     1       7.665   5.599  18.533  0.00  0.00    +0.000 A 
ATOM     13  C   UNL     1       8.368   6.664  19.103  0.00  0.00    +0.000 A 
ATOM     14  C   UNL     1       8.310   7.931  18.525  0.00  0.00    +0.000 A 
ATOM     15  C   UNL     1       7.567   8.130  17.364  0.00  0.00    +0.000 A 
ATOM     16  C   UNL     1       6.797   7.087  16.849  0.00  0.00    +0.000 A 
ENDBRANCH   7  11
BRANCH   1  18
ATOM     17  C   UNL     1       1.193   2.784  21.711  0.00  0.00    +0.000 C 
ATOM     18  C   UNL     1       0.735   2.947  20.275  0.00  0.00    +0.000 C 
ENDBRANCH   1  18
BRANCH   9  19
ATOM     19  C   UNL     1       4.064   6.283  19.273  0.00  0.00    +0.000 C 
BRANCH  19  20
ATOM     20  O   UNL     1       2.920   7.097  19.477  0.00  0.00    +0.000 OA
ATOM     21  C   UNL     1       2.519   7.831  18.335  0.00  0.00    +0.000 C 
ENDBRANCH  19  20
ENDBRANCH   9  19
TORSDOF 4
ENDMDL
MODEL 7
REMARK VINA RESULT:      -5.9      2.049      6.459
REMARK  Name = 
REMARK  6 active torsions:
REMARK  status: ('A' for Active; 'I' for Inactive)
REMARK    1  A    between atoms: C_1  and  C_2
REMARK    2  A    between atoms: C_2  and  C_3
REMARK    3  A    between atoms: C_9  and  C_11
REMARK    4  A    between atoms: C_17  and  C_18
REMARK    5  A    between atoms: C_18  and  O_19
REMARK    6  A    between atoms: O_19  and  C_20
REMARK                            x       y       z     vdW  Elec       q    Type
REMARK                         _______ _______ _______ _____ _____    ______ ____
ROOT
ATOM      1  C   UNL     1       1.719   2.267  19.298  0.00  0.00    +0.000 C 
ATOM      2  O   UNL     1       1.353   1.210  18.783  0.00  0.00    +0.000 OA
ATOM      3  N   UNL     1       2.941   2.851  18.997  0.00  0.00    +0.000 N 
ATOM      4  C   UNL     1       3.799   2.255  17.973  0.00  0.00    +0.000 C 
ATOM      5  C   UNL     1       4.227   3.301  16.927  0.00  0.00    +0.000 C 
ATOM      6  N   UNL     1       4.795   4.517  17.559  0.00  0.00    +0.000 N 
ATOM      7  C   UNL     1       5.947   5.016  16.931  0.00  0.00    +0.000 C 
ATOM      8  O   UNL     1       6.365   4.524  15.880  0.00  0.00    +0.000 OA
ATOM      9  C   UNL     1       3.825   5.127  18.531  0.00  0.00    +0.000 C 
ATOM     10  C   UNL     1       3.487   4.066  19.611  0.00  0.00    +0.000 C 
ENDROOT
BRANCH   7  11
ATOM     11  C   UNL     1       6.775   6.114  17.472  0.00  0.00    +0.000 A 
ATOM     12  C   UNL     1       6.741   7.406  16.945  0.00  0.00    +0.000 A 
ATOM     13  C   UNL     1       7.642   8.370  17.404  0.00  0.00    +0.000 A 
ATOM     14  C   UNL     1       8.472   8.094  18.490  0.00  0.00    +0.000 A 
ATOM     15  C   UNL     1       8.386   6.861  19.132  0.00  0.00    +0.000 A 
ATOM     16  C   UNL     1       7.549   5.870  18.616  0.00  0.00    +0.000 A 
ENDBRANCH   7  11
BRANCH   1  18
ATOM     17  C   UNL     1       1.173   2.752  21.723  0.00  0.00    +0.000 C 
ATOM     18  C   UNL     1       0.829   3.022  20.272  0.00  0.00    +0.000 C 
ENDBRANCH   1  18
BRANCH   9  19
ATOM     19  C   UNL     1       4.027   6.477  19.247  0.00  0.00    +0.000 C 
BRANCH  19  20
ATOM     20  O   UNL     1       2.856   7.265  19.397  0.00  0.00    +0.000 OA
ATOM     21  C   UNL     1       2.431   7.905  18.208  0.00  0.00    +0.000 C 
ENDBRANCH  19  20
ENDBRANCH   9  19
TORSDOF 4
ENDMDL
MODEL 8
REMARK VINA RESULT:      -5.9      3.210      6.166
REMARK  Name = 
REMARK  6 active torsions:
REMARK  status: ('A' for Active; 'I' for Inactive)
REMARK    1  A    between atoms: C_1  and  C_2
REMARK    2  A    between atoms: C_2  and  C_3
REMARK    3  A    between atoms: C_9  and  C_11
REMARK    4  A    between atoms: C_17  and  C_18
REMARK    5  A    between atoms: C_18  and  O_19
REMARK    6  A    between atoms: O_19  and  C_20
REMARK                            x       y       z     vdW  Elec       q    Type
REMARK                         _______ _______ _______ _____ _____    ______ ____
ROOT
ATOM      1  C   UNL     1       0.916  10.064  20.196  0.00  0.00    +0.000 C 
ATOM      2  O   UNL     1       0.971  11.166  19.650  0.00  0.00    +0.000 OA
ATOM      3  N   UNL     1       1.250   8.893  19.531  0.00  0.00    +0.000 N 
ATOM      4  C   UNL     1       1.769   8.956  18.165  0.00  0.00    +0.000 C 
ATOM      5  C   UNL     1       3.086   8.167  18.033  0.00  0.00    +0.000 C 
ATOM      6  N   UNL     1       2.965   6.791  18.571  0.00  0.00    +0.000 N 
ATOM      7  C   UNL     1       3.562   5.800  17.777  0.00  0.00    +0.000 C 
ATOM      8  O   UNL     1       4.219   6.095  16.775  0.00  0.00    +0.000 OA
ATOM      9  C   UNL     1       2.515   6.806  20.005  0.00  0.00    +0.000 C 
ATOM     10  C   UNL     1       1.147   7.535  20.077  0.00  0.00    +0.000 C 
ENDROOT
BRANCH   7  11
ATOM     11  C   UNL     1       3.430   4.348  18.025  0.00  0.00    +0.000 A 
ATOM     12  C   UNL     1       4.327   3.643  18.829  0.00  0.00    +0.000 A 
ATOM     13  C   UNL     1       4.236   2.252  18.920  0.00  0.00    +0.000 A 
ATOM     14  C   UNL     1       3.164   1.580  18.334  0.00  0.00    +0.000 A 
ATOM     15  C   UNL     1       2.171   2.300  17.676  0.00  0.00    +0.000 A 
ATOM     16  C   UNL     1       2.311   3.679  17.511  0.00  0.00    +0.000 A 
ENDBRANCH   7  11
BRANCH   1  18
ATOM     17  C   UNL     1      -0.654  10.809  22.038  0.00  0.00    +0.000 C 
ATOM     18  C   UNL     1       0.515   9.923  21.656  0.00  0.00    +0.000 C 
ENDBRANCH   1  18
BRANCH   9  19
ATOM     19  C   UNL     1       2.432   5.565  20.916  0.00  0.00    +0.000 C 
BRANCH  19  20
ATOM     20  O   UNL     1       1.291   4.745  20.722  0.00  0.00    +0.000 OA
ATOM     21  C   UNL     1       1.456   3.409  21.158  0.00  0.00    +0.000 C 
ENDBRANCH  19  20
ENDBRANCH   9  19
TORSDOF 4
ENDMDL
MODEL 9
REMARK VINA RESULT:      -5.8      1.352      6.137
REMARK  Name = 
REMARK  6 active torsions:
REMARK  status: ('A' for Active; 'I' for Inactive)
REMARK    1  A    between atoms: C_1  and  C_2
REMARK    2  A    between atoms: C_2  and  C_3
REMARK    3  A    between atoms: C_9  and  C_11
REMARK    4  A    between atoms: C_17  and  C_18
REMARK    5  A    between atoms: C_18  and  O_19
REMARK    6  A    between atoms: O_19  and  C_20
REMARK                            x       y       z     vdW  Elec       q    Type
REMARK                         _______ _______ _______ _____ _____    ______ ____
ROOT
ATOM      1  C   UNL     1       1.573   5.336  20.225  0.00  0.00    +0.000 C 
ATOM      2  O   UNL     1       1.308   6.287  20.961  0.00  0.00    +0.000 OA
ATOM      3  N   UNL     1       2.287   5.491  19.046  0.00  0.00    +0.000 N 
ATOM      4  C   UNL     1       2.827   6.803  18.690  0.00  0.00    +0.000 C 
ATOM      5  C   UNL     1       4.329   6.715  18.358  0.00  0.00    +0.000 C 
ATOM      6  N   UNL     1       4.616   5.654  17.364  0.00  0.00    +0.000 N 
ATOM      7  C   UNL     1       5.531   6.023  16.365  0.00  0.00    +0.000 C 
ATOM      8  O   UNL     1       6.111   7.110  16.401  0.00  0.00    +0.000 OA
ATOM      9  C   UNL     1       4.114   4.318  17.836  0.00  0.00    +0.000 C 
ATOM     10  C   UNL     1       2.586   4.431  18.077  0.00  0.00    +0.000 C 
ENDROOT
BRANCH   7  11
ATOM     11  C   UNL     1       5.846   5.192  15.183  0.00  0.00    +0.000 A 
ATOM     12  C   UNL     1       7.156   4.929  14.782  0.00  0.00    +0.000 A 
ATOM     13  C   UNL     1       7.396   4.254  13.583  0.00  0.00    +0.000 A 
ATOM     14  C   UNL     1       6.335   3.710  12.861  0.00  0.00    +0.000 A 
ATOM     15  C   UNL     1       5.035   3.821  13.348  0.00  0.00    +0.000 A 
ATOM     16  C   UNL     1       4.791   4.571  14.500  0.00  0.00    +0.000 A 
ENDBRANCH   7  11
BRANCH   1  18
ATOM     17  C   UNL     1       2.082   3.280  21.614  0.00  0.00    +0.000 C 
ATOM     18  C   UNL     1       1.165   3.917  20.589  0.00  0.00    +0.000 C 
ENDBRANCH   1  18
BRANCH   9  19
ATOM     19  C   UNL     1       4.378   2.976  17.125  0.00  0.00    +0.000 C 
BRANCH  19  20
ATOM     20  O   UNL     1       3.510   1.915  17.491  0.00  0.00    +0.000 OA
ATOM     21  C   UNL     1       3.797   1.339  18.751  0.00  0.00    +0.000 C 
ENDBRANCH  19  20
ENDBRANCH   9  19
TORSDOF 4
ENDMDL
