MODEL 1
REMARK VINA RESULT:      -7.4      0.000      0.000
REMARK  Name = 
REMARK  5 active torsions:
REMARK  status: ('A' for Active; 'I' for Inactive)
REMARK    1  A    between atoms: C_1  and  C_2
REMARK    2  A    between atoms: C_2  and  C_3
REMARK    3  A    between atoms: C_12  and  C_14
REMARK    4  A    between atoms: C_16  and  C_17
REMARK    5  A    between atoms: C_19  and  C_20
REMARK                            x       y       z     vdW  Elec       q    Type
REMARK                         _______ _______ _______ _____ _____    ______ ____
ROOT
ATOM      1  C   UNL     1       1.889   4.340  18.773  0.00  0.00    +0.000 C 
ATOM      2  C   UNL     1       2.195   3.611  20.063  0.00  0.00    +0.000 A 
ATOM      3  C   UNL     1       1.477   3.526  21.242  0.00  0.00    +0.000 A 
ATOM      4  C   UNL     1       2.184   2.668  22.119  0.00  0.00    +0.000 A 
ATOM      5  C   UNL     1       3.328   2.264  21.468  0.00  0.00    +0.000 A 
ATOM      6  N   UNL     1       3.334   2.854  20.236  0.00  0.00    +0.000 N 
ATOM      7  C   UNL     1       4.397   2.745  19.246  0.00  0.00    +0.000 C 
ATOM      8  C   UNL     1       3.870   3.150  17.875  0.00  0.00    +0.000 C 
ATOM      9  N   UNL     1       3.130   4.413  17.983  0.00  0.00    +0.000 N 
ATOM     10  C   UNL     1       3.591   5.673  17.578  0.00  0.00    +0.000 C 
ATOM     11  O   UNL     1       2.871   6.673  17.611  0.00  0.00    +0.000 OA
ENDROOT
BRANCH  10  12
ATOM     12  C   UNL     1       4.991   5.851  17.064  0.00  0.00    +0.000 A 
ATOM     13  C   UNL     1       5.341   5.239  15.877  0.00  0.00    +0.000 A 
ATOM     14  C   UNL     1       6.640   5.425  15.460  0.00  0.00    +0.000 A 
ATOM     15  C   UNL     1       7.147   4.806  14.193  0.00  0.00    +0.000 C 
ATOM     16  N   UNL     1       7.522   6.163  16.165  0.00  0.00    +0.000 NA
ATOM     17  C   UNL     1       7.083   6.745  17.294  0.00  0.00    +0.000 A 
ATOM     18  C   UNL     1       8.063   7.532  18.107  0.00  0.00    +0.000 C 
ATOM     19  N   UNL     1       5.837   6.632  17.773  0.00  0.00    +0.000 NA
ENDBRANCH  10  12
BRANCH   1  21
ATOM     20  C   UNL     1       0.519   2.191  18.489  0.00  0.00    +0.000 C 
ATOM     21  C   UNL     1       0.750   3.619  18.020  0.00  0.00    +0.000 C 
ENDBRANCH   1  21
TORSDOF 2
ENDMDL
MODEL 2
REMARK VINA RESULT:      -7.3      0.595      1.817
REMARK  Name = 
REMARK  5 active torsions:
REMARK  status: ('A' for Active; 'I' for Inactive)
REMARK    1  A    between atoms: C_1  and  C_2
REMARK    2  A    between atoms: C_2  and  C_3
REMARK    3  A    between atoms: C_12  and  C_14
REMARK    4  A    between atoms: C_16  and  C_17
REMARK    5  A    between atoms: C_19  and  C_20
REMARK                            x       y       z     vdW  Elec       q    Type
REMARK                         _______ _______ _______ _____ _____    ______ ____
ROOT
ATOM      1  C   UNL     1       1.876   4.331  18.757  0.00  0.00    +0.000 C 
ATOM      2  C   UNL     1       2.174   3.609  20.053  0.00  0.00    +0.000 A 
ATOM      3  C   UNL     1       1.437   3.510  21.220  0.00  0.00    +0.000 A 
ATOM      4  C   UNL     1       2.145   2.667  22.110  0.00  0.00    +0.000 A 
ATOM      5  C   UNL     1       3.308   2.284  21.479  0.00  0.00    +0.000 A 
ATOM      6  N   UNL     1       3.324   2.873  20.246  0.00  0.00    +0.000 N 
ATOM      7  C   UNL     1       4.405   2.784  19.274  0.00  0.00    +0.000 C 
ATOM      8  C   UNL     1       3.894   3.177  17.895  0.00  0.00    +0.000 C 
ATOM      9  N   UNL     1       3.128   4.426  17.988  0.00  0.00    +0.000 N 
ATOM     10  C   UNL     1       3.573   5.694  17.589  0.00  0.00    +0.000 C 
ATOM     11  O   UNL     1       2.833   6.680  17.609  0.00  0.00    +0.000 OA
ENDROOT
BRANCH  10  12
ATOM     12  C   UNL     1       4.977   5.898  17.099  0.00  0.00    +0.000 A 
ATOM     13  C   UNL     1       5.805   6.747  17.805  0.00  0.00    +0.000 A 
ATOM     14  C   UNL     1       7.078   6.907  17.303  0.00  0.00    +0.000 A 
ATOM     15  C   UNL     1       8.070   7.808  17.972  0.00  0.00    +0.000 C 
ATOM     16  N   UNL     1       7.496   6.272  16.189  0.00  0.00    +0.000 NA
ATOM     17  C   UNL     1       6.629   5.442  15.585  0.00  0.00    +0.000 A 
ATOM     18  C   UNL     1       7.066   4.764  14.324  0.00  0.00    +0.000 C 
ATOM     19  N   UNL     1       5.377   5.213  16.004  0.00  0.00    +0.000 NA
ENDBRANCH  10  12
BRANCH   1  21
ATOM     20  C   UNL     1       0.493   2.184  18.508  0.00  0.00    +0.000 C 
ATOM     21  C   UNL     1       0.764   3.587  17.985  0.00  0.00    +0.000 C 
ENDBRANCH   1  21
TORSDOF 2
ENDMDL
MODEL 3
REMARK VINA RESULT:      -7.0      2.357      3.830
REMARK  Name = 
REMARK  5 active torsions:
REMARK  status: ('A' for Active; 'I' for Inactive)
REMARK    1  A    between atoms: C_1  and  C_2
REMARK    2  A    between atoms: C_2  and  C_3
REMARK    3  A    between atoms: C_12  and  C_14
REMARK    4  A    between atoms: C_16  and  C_17
REMARK    5  A    between atoms: C_19  and  C_20
REMARK                            x       y       z     vdW  Elec       q    Type
REMARK                         _______ _______ _______ _____ _____    ______ ____
ROOT
ATOM      1  C   UNL     1       5.559   4.314  18.507  0.00  0.00    +0.000 C 
ATOM      2  C   UNL     1       4.440   3.309  18.683  0.00  0.00    +0.000 A 
ATOM      3  C   UNL     1       4.136   2.476  19.745  0.00  0.00    +0.000 A 
ATOM      4  C   UNL     1       2.950   1.775  19.420  0.00  0.00    +0.000 A 
ATOM      5  C   UNL     1       2.565   2.176  18.160  0.00  0.00    +0.000 A 
ATOM      6  N   UNL     1       3.481   3.089  17.718  0.00  0.00    +0.000 N 
ATOM      7  C   UNL     1       3.488   3.720  16.405  0.00  0.00    +0.000 C 
ATOM      8  C   UNL     1       4.363   4.966  16.435  0.00  0.00    +0.000 C 
ATOM      9  N   UNL     1       5.646   4.654  17.077  0.00  0.00    +0.000 N 
ATOM     10  C   UNL     1       6.870   4.471  16.420  0.00  0.00    +0.000 C 
ATOM     11  O   UNL     1       7.924   4.309  17.037  0.00  0.00    +0.000 OA
ENDROOT
BRANCH  10  12
ATOM     12  C   UNL     1       6.948   4.484  14.920  0.00  0.00    +0.000 A 
ATOM     13  C   UNL     1       6.153   3.606  14.211  0.00  0.00    +0.000 A 
ATOM     14  C   UNL     1       6.274   3.652  12.840  0.00  0.00    +0.000 A 
ATOM     15  C   UNL     1       5.473   2.744  11.957  0.00  0.00    +0.000 C 
ATOM     16  N   UNL     1       7.118   4.504  12.222  0.00  0.00    +0.000 NA
ATOM     17  C   UNL     1       7.830   5.342  12.992  0.00  0.00    +0.000 A 
ATOM     18  C   UNL     1       8.800   6.263  12.322  0.00  0.00    +0.000 C 
ATOM     19  N   UNL     1       7.771   5.380  14.331  0.00  0.00    +0.000 NA
ENDBRANCH  10  12
BRANCH   1  21
ATOM     20  C   UNL     1       3.822   5.877  19.567  0.00  0.00    +0.000 C 
ATOM     21  C   UNL     1       5.298   5.551  19.394  0.00  0.00    +0.000 C 
ENDBRANCH   1  21
TORSDOF 2
ENDMDL
MODEL 4
REMARK VINA RESULT:      -7.0      3.866      5.891
REMARK  Name = 
REMARK  5 active torsions:
REMARK  status: ('A' for Active; 'I' for Inactive)
REMARK    1  A    between atoms: C_1  and  C_2
REMARK    2  A    between atoms: C_2  and  C_3
REMARK    3  A    between atoms: C_12  and  C_14
REMARK    4  A    between atoms: C_16  and  C_17
REMARK    5  A    between atoms: C_19  and  C_20
REMARK                            x       y       z     vdW  Elec       q    Type
REMARK                         _______ _______ _______ _____ _____    ______ ____
ROOT
ATOM      1  C   UNL     1       3.726   5.491  18.552  0.00  0.00    +0.000 C 
ATOM      2  C   UNL     1       2.956   4.198  18.392  0.00  0.00    +0.000 A 
ATOM      3  C   UNL     1       3.155   3.131  17.534  0.00  0.00    +0.000 A 
ATOM      4  C   UNL     1       2.183   2.146  17.835  0.00  0.00    +0.000 A 
ATOM      5  C   UNL     1       1.398   2.639  18.853  0.00  0.00    +0.000 A 
ATOM      6  N   UNL     1       1.862   3.884  19.169  0.00  0.00    +0.000 N 
ATOM      7  C   UNL     1       1.277   4.786  20.152  0.00  0.00    +0.000 C 
ATOM      8  C   UNL     1       2.290   5.856  20.539  0.00  0.00    +0.000 C 
ATOM      9  N   UNL     1       2.894   6.425  19.328  0.00  0.00    +0.000 N 
ATOM     10  C   UNL     1       2.596   7.677  18.772  0.00  0.00    +0.000 C 
ATOM     11  O   UNL     1       3.219   8.127  17.808  0.00  0.00    +0.000 OA
ENDROOT
BRANCH  10  12
ATOM     12  C   UNL     1       1.507   8.536  19.348  0.00  0.00    +0.000 A 
ATOM     13  C   UNL     1       0.737   9.289  18.486  0.00  0.00    +0.000 A 
ATOM     14  C   UNL     1      -0.238  10.067  19.069  0.00  0.00    +0.000 A 
ATOM     15  C   UNL     1      -1.136  10.938  18.244  0.00  0.00    +0.000 C 
ATOM     16  N   UNL     1      -0.433  10.094  20.404  0.00  0.00    +0.000 NA
ATOM     17  C   UNL     1       0.345   9.304  21.162  0.00  0.00    +0.000 A 
ATOM     18  C   UNL     1       0.167   9.355  22.647  0.00  0.00    +0.000 C 
ATOM     19  N   UNL     1       1.310   8.505  20.685  0.00  0.00    +0.000 NA
ENDBRANCH  10  12
BRANCH   1  21
ATOM     20  C   UNL     1       6.282   5.619  18.374  0.00  0.00    +0.000 C 
ATOM     21  C   UNL     1       5.088   5.212  19.224  0.00  0.00    +0.000 C 
ENDBRANCH   1  21
TORSDOF 2
ENDMDL
MODEL 5
REMARK VINA RESULT:      -6.9      3.922      6.114
REMARK  Name = 
REMARK  5 active torsions:
REMARK  status: ('A' for Active; 'I' for Inactive)
REMARK    1  A    between atoms: C_1  and  C_2
REMARK    2  A    between atoms: C_2  and  C_3
REMARK    3  A    between atoms: C_12  and  C_14
REMARK    4  A    between atoms: C_16  and  C_17
REMARK    5  A    between atoms: C_19  and  C_20
REMARK                            x       y       z     vdW  Elec       q    Type
REMARK                         _______ _______ _______ _____ _____    ______ ____
ROOT
ATOM      1  C   UNL     1       3.662   5.538  18.597  0.00  0.00    +0.000 C 
ATOM      2  C   UNL     1       2.892   4.247  18.416  0.00  0.00    +0.000 A 
ATOM      3  C   UNL     1       3.088   3.196  17.538  0.00  0.00    +0.000 A 
ATOM      4  C   UNL     1       2.117   2.206  17.824  0.00  0.00    +0.000 A 
ATOM      5  C   UNL     1       1.336   2.679  18.855  0.00  0.00    +0.000 A 
ATOM      6  N   UNL     1       1.801   3.919  19.192  0.00  0.00    +0.000 N 
ATOM      7  C   UNL     1       1.220   4.802  20.194  0.00  0.00    +0.000 C 
ATOM      8  C   UNL     1       2.233   5.865  20.596  0.00  0.00    +0.000 C 
ATOM      9  N   UNL     1       2.833   6.457  19.394  0.00  0.00    +0.000 N 
ATOM     10  C   UNL     1       2.532   7.718  18.862  0.00  0.00    +0.000 C 
ATOM     11  O   UNL     1       3.151   8.186  17.904  0.00  0.00    +0.000 OA
ENDROOT
BRANCH  10  12
ATOM     12  C   UNL     1       1.445   8.566  19.458  0.00  0.00    +0.000 A 
ATOM     13  C   UNL     1       1.262   8.537  20.825  0.00  0.00    +0.000 A 
ATOM     14  C   UNL     1       0.243   9.324  21.316  0.00  0.00    +0.000 A 
ATOM     15  C   UNL     1      -0.065   9.374  22.781  0.00  0.00    +0.000 C 
ATOM     16  N   UNL     1      -0.532  10.080  20.511  0.00  0.00    +0.000 NA
ATOM     17  C   UNL     1      -0.260  10.068  19.195  0.00  0.00    +0.000 A 
ATOM     18  C   UNL     1      -1.138  10.870  18.287  0.00  0.00    +0.000 C 
ATOM     19  N   UNL     1       0.716   9.345  18.628  0.00  0.00    +0.000 NA
ENDBRANCH  10  12
BRANCH   1  21
ATOM     20  C   UNL     1       6.209   5.413  18.315  0.00  0.00    +0.000 C 
ATOM     21  C   UNL     1       5.026   5.247  19.258  0.00  0.00    +0.000 C 
ENDBRANCH   1  21
TORSDOF 2
ENDMDL
MODEL 6
REMARK VINA RESULT:      -6.3      4.389      6.212
REMARK  Name = 
REMARK  5 active torsions:
REMARK  status: ('A' for Active; 'I' for Inactive)
REMARK    1  A    between atoms: C_1  and  C_2
REMARK    2  A    between atoms: C_2  and  C_3
REMARK    3  A    between atoms: C_12  and  C_14
REMARK    4  A    between atoms: C_16  and  C_17
REMARK    5  A    between atoms: C_19  and  C_20
REMARK                            x       y       z     vdW  Elec       q    Type
REMARK                         _______ _______ _______ _____ _____    ______ ____
ROOT
ATOM      1  C   UNL     1       2.968   6.223  18.015  0.00  0.00    +0.000 C 
ATOM      2  C   UNL     1       2.243   4.938  18.352  0.00  0.00    +0.000 A 
ATOM      3  C   UNL     1       2.075   3.778  17.616  0.00  0.00    +0.000 A 
ATOM      4  C   UNL     1       1.362   2.855  18.418  0.00  0.00    +0.000 A 
ATOM      5  C   UNL     1       1.091   3.474  19.618  0.00  0.00    +0.000 A 
ATOM      6  N   UNL     1       1.611   4.737  19.560  0.00  0.00    +0.000 N 
ATOM      7  C   UNL     1       1.493   5.754  20.596  0.00  0.00    +0.000 C 
ATOM      8  C   UNL     1       2.541   6.837  20.379  0.00  0.00    +0.000 C 
ATOM      9  N   UNL     1       2.536   7.256  18.972  0.00  0.00    +0.000 N 
ATOM     10  C   UNL     1       1.988   8.444  18.471  0.00  0.00    +0.000 C 
ATOM     11  O   UNL     1       2.110   8.771  17.288  0.00  0.00    +0.000 OA
ENDROOT
BRANCH  10  12
ATOM     12  C   UNL     1       1.239   9.386  19.370  0.00  0.00    +0.000 A 
ATOM     13  C   UNL     1       1.079  10.696  18.966  0.00  0.00    +0.000 A 
ATOM     14  C   UNL     1       0.395  11.518  19.835  0.00  0.00    +0.000 A 
ATOM     15  C   UNL     1       0.163  12.963  19.518  0.00  0.00    +0.000 C 
ATOM     16  N   UNL     1      -0.092  11.072  21.011  0.00  0.00    +0.000 NA
ATOM     17  C   UNL     1       0.085   9.774  21.306  0.00  0.00    +0.000 A 
ATOM     18  C   UNL     1      -0.414   9.277  22.626  0.00  0.00    +0.000 C 
ATOM     19  N   UNL     1       0.726   8.896  20.521  0.00  0.00    +0.000 NA
ENDBRANCH  10  12
BRANCH   1  21
ATOM     20  C   UNL     1       4.925   4.914  19.031  0.00  0.00    +0.000 C 
ATOM     21  C   UNL     1       4.493   5.989  18.046  0.00  0.00    +0.000 C 
ENDBRANCH   1  21
TORSDOF 2
ENDMDL
MODEL 7
REMARK VINA RESULT:      -6.2      3.643      6.115
REMARK  Name = 
REMARK  5 active torsions:
REMARK  status: ('A' for Active; 'I' for Inactive)
REMARK    1  A    between atoms: C_1  and  C_2
REMARK    2  A    between atoms: C_2  and  C_3
REMARK    3  A    between atoms: C_12  and  C_14
REMARK    4  A    between atoms: C_16  and  C_17
REMARK    5  A    between atoms: C_19  and  C_20
REMARK                            x       y       z     vdW  Elec       q    Type
REMARK                         _______ _______ _______ _____ _____    ______ ____
ROOT
ATOM      1  C   UNL     1       3.559   4.735  18.769  0.00  0.00    +0.000 C 
ATOM      2  C   UNL     1       4.924   5.130  18.248  0.00  0.00    +0.000 A 
ATOM      3  C   UNL     1       6.122   4.438  18.241  0.00  0.00    +0.000 A 
ATOM      4  C   UNL     1       7.083   5.241  17.580  0.00  0.00    +0.000 A 
ATOM      5  C   UNL     1       6.461   6.414  17.216  0.00  0.00    +0.000 A 
ATOM      6  N   UNL     1       5.163   6.344  17.640  0.00  0.00    +0.000 N 
ATOM      7  C   UNL     1       4.170   7.402  17.515  0.00  0.00    +0.000 C 
ATOM      8  C   UNL     1       2.772   6.820  17.684  0.00  0.00    +0.000 C 
ATOM      9  N   UNL     1       2.737   5.952  18.867  0.00  0.00    +0.000 N 
ATOM     10  C   UNL     1       2.164   6.274  20.105  0.00  0.00    +0.000 C 
ATOM     11  O   UNL     1       2.088   5.453  21.022  0.00  0.00    +0.000 OA
ENDROOT
BRANCH  10  12
ATOM     12  C   UNL     1       1.598   7.642  20.359  0.00  0.00    +0.000 A 
ATOM     13  C   UNL     1       1.075   7.917  21.606  0.00  0.00    +0.000 A 
ATOM     14  C   UNL     1       0.557   9.182  21.779  0.00  0.00    +0.000 A 
ATOM     15  C   UNL     1      -0.048   9.603  23.083  0.00  0.00    +0.000 C 
ATOM     16  N   UNL     1       0.562  10.101  20.792  0.00  0.00    +0.000 NA
ATOM     17  C   UNL     1       1.120   9.753  19.621  0.00  0.00    +0.000 A 
ATOM     18  C   UNL     1       1.094  10.749  18.504  0.00  0.00    +0.000 C 
ATOM     19  N   UNL     1       1.658   8.553  19.362  0.00  0.00    +0.000 NA
ENDBRANCH  10  12
BRANCH   1  21
ATOM     20  C   UNL     1       1.489   3.334  18.191  0.00  0.00    +0.000 C 
ATOM     21  C   UNL     1       2.932   3.670  17.843  0.00  0.00    +0.000 C 
ENDBRANCH   1  21
TORSDOF 2
ENDMDL
MODEL 8
REMARK VINA RESULT:      -6.0      9.730     11.918
REMARK  Name = 
REMARK  5 active torsions:
REMARK  status: ('A' for Active; 'I' for Inactive)
REMARK    1  A    between atoms: C_1  and  C_2
REMARK    2  A    between atoms: C_2  and  C_3
REMARK    3  A    between atoms: C_12  and  C_14
REMARK    4  A    between atoms: C_16  and  C_17
REMARK    5  A    between atoms: C_19  and  C_20
REMARK                            x       y       z     vdW  Elec       q    Type
REMARK                         _______ _______ _______ _____ _____    ______ ____
ROOT
ATOM      1  C   UNL     1       0.561  11.850  19.971  0.00  0.00    +0.000 C 
ATOM      2  C   UNL     1       1.285  13.026  19.351  0.00  0.00    +0.000 A 
ATOM      3  C   UNL     1       2.534  13.106  18.762  0.00  0.00    +0.000 A 
ATOM      4  C   UNL     1       2.706  14.430  18.291  0.00  0.00    +0.000 A 
ATOM      5  C   UNL     1       1.570  15.137  18.619  0.00  0.00    +0.000 A 
ATOM      6  N   UNL     1       0.727  14.284  19.275  0.00  0.00    +0.000 N 
ATOM      7  C   UNL     1      -0.561  14.639  19.853  0.00  0.00    +0.000 C 
ATOM      8  C   UNL     1      -1.384  13.381  20.094  0.00  0.00    +0.000 C 
ATOM      9  N   UNL     1      -0.560  12.372  20.770  0.00  0.00    +0.000 N 
ATOM     10  C   UNL     1      -0.633  12.026  22.126  0.00  0.00    +0.000 C 
ATOM     11  O   UNL     1       0.027  11.098  22.599  0.00  0.00    +0.000 OA
ENDROOT
BRANCH  10  12
ATOM     12  C   UNL     1      -1.542  12.770  23.063  0.00  0.00    +0.000 A 
ATOM     13  C   UNL     1      -2.786  12.238  23.334  0.00  0.00    +0.000 A 
ATOM     14  C   UNL     1      -3.582  12.968  24.189  0.00  0.00    +0.000 A 
ATOM     15  C   UNL     1      -4.959  12.504  24.556  0.00  0.00    +0.000 C 
ATOM     16  N   UNL     1      -3.174  14.133  24.732  0.00  0.00    +0.000 NA
ATOM     17  C   UNL     1      -1.934  14.557  24.434  0.00  0.00    +0.000 A 
ATOM     18  C   UNL     1      -1.484  15.869  24.998  0.00  0.00    +0.000 C 
ATOM     19  N   UNL     1      -1.084  13.912  23.624  0.00  0.00    +0.000 NA
ENDBRANCH  10  12
BRANCH   1  21
ATOM     20  C   UNL     1       1.001   9.666  18.700  0.00  0.00    +0.000 C 
ATOM     21  C   UNL     1       0.096  10.877  18.866  0.00  0.00    +0.000 C 
ENDBRANCH   1  21
TORSDOF 2
ENDMDL
MODEL 9
REMARK VINA RESULT:      -6.0      4.251      5.909
REMARK  Name = 
REMARK  5 active torsions:
REMARK  status: ('A' for Active; 'I' for Inactive)
REMARK    1  A    between atoms: C_1  and  C_2
REMARK    2  A    between atoms: C_2  and  C_3
REMARK    3  A    between atoms: C_12  and  C_14
REMARK    4  A    between atoms: C_16  and  C_17
REMARK    5  A    between atoms: C_19  and  C_20
REMARK                            x       y       z     vdW  Elec       q    Type
REMARK                         _______ _______ _______ _____ _____    ______ ____
ROOT
ATOM      1  C   UNL     1       3.337   5.930  18.448  0.00  0.00    +0.000 C 
ATOM      2  C   UNL     1       2.514   4.691  18.730  0.00  0.00    +0.000 A 
ATOM      3  C   UNL     1       2.597   3.414  18.204  0.00  0.00    +0.000 A 
ATOM      4  C   UNL     1       1.626   2.614  18.853  0.00  0.00    +0.000 A 
ATOM      5  C   UNL     1       0.954   3.421  19.744  0.00  0.00    +0.000 A 
ATOM      6  N   UNL     1       1.486   4.676  19.649  0.00  0.00    +0.000 N 
ATOM      7  C   UNL     1       1.025   5.853  20.373  0.00  0.00    +0.000 C 
ATOM      8  C   UNL     1       2.103   6.928  20.352  0.00  0.00    +0.000 C 
ATOM      9  N   UNL     1       2.612   7.093  18.985  0.00  0.00    +0.000 N 
ATOM     10  C   UNL     1       2.305   8.149  18.117  0.00  0.00    +0.000 C 
ATOM     11  O   UNL     1       2.849   8.269  17.017  0.00  0.00    +0.000 OA
ENDROOT
BRANCH  10  12
ATOM     12  C   UNL     1       1.302   9.198  18.504  0.00  0.00    +0.000 A 
ATOM     13  C   UNL     1       0.102   9.245  17.825  0.00  0.00    +0.000 A 
ATOM     14  C   UNL     1      -0.775  10.235  18.213  0.00  0.00    +0.000 A 
ATOM     15  C   UNL     1      -2.107  10.398  17.548  0.00  0.00    +0.000 C 
ATOM     16  N   UNL     1      -0.481  11.107  19.199  0.00  0.00    +0.000 NA
ATOM     17  C   UNL     1       0.699  10.966  19.824  0.00  0.00    +0.000 A 
ATOM     18  C   UNL     1       1.054  11.953  20.891  0.00  0.00    +0.000 C 
ATOM     19  N   UNL     1       1.610  10.029  19.526  0.00  0.00    +0.000 NA
ENDBRANCH  10  12
BRANCH   1  21
ATOM     20  C   UNL     1       5.848   5.616  18.026  0.00  0.00    +0.000 C 
ATOM     21  C   UNL     1       4.745   5.775  19.062  0.00  0.00    +0.000 C 
ENDBRANCH   1  21
TORSDOF 2
ENDMDL
