MODEL 1
REMARK VINA RESULT:      -9.1      0.000      0.000
REMARK  Name = 
REMARK  7 active torsions:
REMARK  status: ('A' for Active; 'I' for Inactive)
REMARK    1  A    between atoms: C_1  and  O_2
REMARK    2  A    between atoms: O_2  and  C_3
REMARK    3  A    between atoms: C_7  and  O_8
REMARK    4  A    between atoms: O_8  and  C_9
REMARK    5  A    between atoms: C_9  and  C_10
REMARK    6  A    between atoms: C_16  and  C_17
REMARK    7  A    between atoms: C_19  and  C_20
REMARK                            x       y       z     vdW  Elec       q    Type
REMARK                         _______ _______ _______ _____ _____    ______ ____
ROOT
ATOM      1  C   UNL     1       1.543   4.173  19.949  0.00  0.00    +0.000 A 
ATOM      2  N   UNL     1       0.696   3.159  19.910  0.00  0.00    +0.000 NA
ATOM      3  N   UNL     1       1.187   2.226  19.030  0.00  0.00    +0.000 NA
ATOM      4  C   UNL     1       2.317   2.692  18.548  0.00  0.00    +0.000 A 
ATOM      5  C   UNL     1       3.228   2.180  17.611  0.00  0.00    +0.000 A 
ATOM      6  C   UNL     1       4.294   2.916  17.274  0.00  0.00    +0.000 A 
ATOM      7  C   UNL     1       4.451   4.271  17.904  0.00  0.00    +0.000 A 
ATOM      8  N   UNL     1       3.645   4.750  18.806  0.00  0.00    +0.000 NA
ATOM      9  N   UNL     1       2.595   3.924  19.102  0.00  0.00    +0.000 N 
ENDROOT
BRANCH   7  10
ATOM     10  C   UNL     1       5.566   5.102  17.488  0.00  0.00    +0.000 A 
ATOM     11  C   UNL     1       6.059   6.269  18.049  0.00  0.00    +0.000 A 
ATOM     12  C   UNL     1       7.149   6.787  17.275  0.00  0.00    +0.000 A 
ATOM     13  C   UNL     1       7.928   8.021  17.565  0.00  0.00    +0.000 C 
ATOM     14  N   UNL     1       7.474   6.083  16.192  0.00  0.00    +0.000 NA
ATOM     15  S   UNL     1       6.459   4.789  16.066  0.00  0.00    +0.000 S 
ENDBRANCH   7  10
BRANCH   1  16
ATOM     16  C   UNL     1       1.322   5.471  20.615  0.00  0.00    +0.000 C 
BRANCH  16  17
ATOM     17  O   UNL     1       2.249   6.429  20.133  0.00  0.00    +0.000 OA
BRANCH  17  22
ATOM     18  C   UNL     1      -0.039  10.756  22.234  0.00  0.00    +0.000 A 
ATOM     19  C   UNL     1       0.269   9.551  22.837  0.00  0.00    +0.000 A 
ATOM     20  C   UNL     1       0.868   8.540  22.093  0.00  0.00    +0.000 A 
ATOM     21  C   UNL     1       1.189   8.672  20.713  0.00  0.00    +0.000 A 
ATOM     22  C   UNL     1       1.808   7.704  19.857  0.00  0.00    +0.000 A 
ATOM     23  C   UNL     1       2.041   8.023  18.518  0.00  0.00    +0.000 A 
ATOM     24  C   UNL     1       1.669   9.263  18.054  0.00  0.00    +0.000 A 
ATOM     25  N   UNL     1       1.087  10.199  18.825  0.00  0.00    +0.000 NA
ATOM     26  C   UNL     1       0.856   9.915  20.116  0.00  0.00    +0.000 A 
ATOM     27  C   UNL     1       0.259  10.916  20.882  0.00  0.00    +0.000 A 
BRANCH  18  29
ATOM     28  C   UNL     1      -2.017  11.704  23.129  0.00  0.00    +0.000 C 
ATOM     29  O   UNL     1      -0.619  11.818  22.869  0.00  0.00    +0.000 OA
ENDBRANCH  18  29
ENDBRANCH  17  22
ENDBRANCH  16  17
ENDBRANCH   1  16
TORSDOF 5
ENDMDL
MODEL 2
REMARK VINA RESULT:      -9.1      1.589      1.873
REMARK  Name = 
REMARK  7 active torsions:
REMARK  status: ('A' for Active; 'I' for Inactive)
REMARK    1  A    between atoms: C_1  and  O_2
REMARK    2  A    between atoms: O_2  and  C_3
REMARK    3  A    between atoms: C_7  and  O_8
REMARK    4  A    between atoms: O_8  and  C_9
REMARK    5  A    between atoms: C_9  and  C_10
REMARK    6  A    between atoms: C_16  and  C_17
REMARK    7  A    between atoms: C_19  and  C_20
REMARK                            x       y       z     vdW  Elec       q    Type
REMARK                         _______ _______ _______ _____ _____    ______ ____
ROOT
ATOM      1  C   UNL     1       2.315   5.409  19.791  0.00  0.00    +0.000 A 
ATOM      2  N   UNL     1       1.353   4.688  20.341  0.00  0.00    +0.000 NA
ATOM      3  N   UNL     1       1.374   3.441  19.766  0.00  0.00    +0.000 NA
ATOM      4  C   UNL     1       2.341   3.431  18.877  0.00  0.00    +0.000 A 
ATOM      5  C   UNL     1       2.800   2.445  17.990  0.00  0.00    +0.000 A 
ATOM      6  C   UNL     1       3.798   2.742  17.149  0.00  0.00    +0.000 A 
ATOM      7  C   UNL     1       4.366   4.132  17.182  0.00  0.00    +0.000 A 
ATOM      8  N   UNL     1       3.987   5.051  18.022  0.00  0.00    +0.000 NA
ATOM      9  N   UNL     1       2.977   4.654  18.855  0.00  0.00    +0.000 N 
ENDROOT
BRANCH   7  10
ATOM     10  C   UNL     1       5.398   4.482  16.223  0.00  0.00    +0.000 A 
ATOM     11  C   UNL     1       5.500   4.167  14.878  0.00  0.00    +0.000 A 
ATOM     12  C   UNL     1       6.720   4.679  14.325  0.00  0.00    +0.000 A 
ATOM     13  C   UNL     1       7.177   4.540  12.916  0.00  0.00    +0.000 C 
ATOM     14  N   UNL     1       7.509   5.335  15.175  0.00  0.00    +0.000 NA
ATOM     15  S   UNL     1       6.811   5.331  16.670  0.00  0.00    +0.000 S 
ENDBRANCH   7  10
BRANCH   1  16
ATOM     16  C   UNL     1       2.533   6.857  19.974  0.00  0.00    +0.000 C 
BRANCH  16  17
ATOM     17  O   UNL     1       1.825   7.584  18.985  0.00  0.00    +0.000 OA
BRANCH  17  22
ATOM     18  C   UNL     1      -0.545  10.858  22.456  0.00  0.00    +0.000 A 
ATOM     19  C   UNL     1      -0.390   9.486  22.515  0.00  0.00    +0.000 A 
ATOM     20  C   UNL     1       0.265   8.820  21.485  0.00  0.00    +0.000 A 
ATOM     21  C   UNL     1       0.798   9.481  20.342  0.00  0.00    +0.000 A 
ATOM     22  C   UNL     1       1.492   8.899  19.233  0.00  0.00    +0.000 A 
ATOM     23  C   UNL     1       1.942   9.720  18.197  0.00  0.00    +0.000 A 
ATOM     24  C   UNL     1       1.705  11.073  18.270  0.00  0.00    +0.000 A 
ATOM     25  N   UNL     1       1.058  11.658  19.295  0.00  0.00    +0.000 NA
ATOM     26  C   UNL     1       0.620  10.887  20.302  0.00  0.00    +0.000 A 
ATOM     27  C   UNL     1      -0.037  11.535  21.348  0.00  0.00    +0.000 A 
BRANCH  18  29
ATOM     28  C   UNL     1      -1.317  12.999  23.111  0.00  0.00    +0.000 C 
ATOM     29  O   UNL     1      -1.162  11.614  23.412  0.00  0.00    +0.000 OA
ENDBRANCH  18  29
ENDBRANCH  17  22
ENDBRANCH  16  17
ENDBRANCH   1  16
TORSDOF 5
ENDMDL
MODEL 3
REMARK VINA RESULT:      -9.0      3.285      4.128
REMARK  Name = 
REMARK  7 active torsions:
REMARK  status: ('A' for Active; 'I' for Inactive)
REMARK    1  A    between atoms: C_1  and  O_2
REMARK    2  A    between atoms: O_2  and  C_3
REMARK    3  A    between atoms: C_7  and  O_8
REMARK    4  A    between atoms: O_8  and  C_9
REMARK    5  A    between atoms: C_9  and  C_10
REMARK    6  A    between atoms: C_16  and  C_17
REMARK    7  A    between atoms: C_19  and  C_20
REMARK                            x       y       z     vdW  Elec       q    Type
REMARK                         _______ _______ _______ _____ _____    ______ ____
ROOT
ATOM      1  C   UNL     1       2.326   7.545  19.310  0.00  0.00    +0.000 A 
ATOM      2  N   UNL     1       1.569   7.174  20.328  0.00  0.00    +0.000 NA
ATOM      3  N   UNL     1       1.822   5.850  20.587  0.00  0.00    +0.000 NA
ATOM      4  C   UNL     1       2.722   5.441  19.722  0.00  0.00    +0.000 A 
ATOM      5  C   UNL     1       3.333   4.196  19.508  0.00  0.00    +0.000 A 
ATOM      6  C   UNL     1       4.200   4.062  18.498  0.00  0.00    +0.000 A 
ATOM      7  C   UNL     1       4.462   5.256  17.624  0.00  0.00    +0.000 A 
ATOM      8  N   UNL     1       3.942   6.432  17.825  0.00  0.00    +0.000 NA
ATOM      9  N   UNL     1       3.083   6.480  18.889  0.00  0.00    +0.000 N 
ENDROOT
BRANCH   7  10
ATOM     10  C   UNL     1       5.345   5.097  16.483  0.00  0.00    +0.000 A 
ATOM     11  C   UNL     1       5.145   4.413  15.295  0.00  0.00    +0.000 A 
ATOM     12  C   UNL     1       6.312   4.478  14.465  0.00  0.00    +0.000 A 
ATOM     13  C   UNL     1       6.472   3.863  13.120  0.00  0.00    +0.000 C 
ATOM     14  N   UNL     1       7.343   5.153  14.970  0.00  0.00    +0.000 NA
ATOM     15  S   UNL     1       6.940   5.709  16.470  0.00  0.00    +0.000 S 
ENDBRANCH   7  10
BRANCH   1  16
ATOM     16  C   UNL     1       2.243   8.825  18.580  0.00  0.00    +0.000 C 
BRANCH  16  17
ATOM     17  O   UNL     1       0.979   8.945  17.951  0.00  0.00    +0.000 OA
BRANCH  17  22
ATOM     18  C   UNL     1      -3.799  11.151  17.121  0.00  0.00    +0.000 A 
ATOM     19  C   UNL     1      -3.167  10.144  16.416  0.00  0.00    +0.000 A 
ATOM     20  C   UNL     1      -1.903   9.716  16.806  0.00  0.00    +0.000 A 
ATOM     21  C   UNL     1      -1.198  10.269  17.912  0.00  0.00    +0.000 A 
ATOM     22  C   UNL     1       0.097   9.903  18.403  0.00  0.00    +0.000 A 
ATOM     23  C   UNL     1       0.624  10.569  19.511  0.00  0.00    +0.000 A 
ATOM     24  C   UNL     1      -0.118  11.563  20.106  0.00  0.00    +0.000 A 
ATOM     25  N   UNL     1      -1.338  11.934  19.676  0.00  0.00    +0.000 NA
ATOM     26  C   UNL     1      -1.865  11.306  18.614  0.00  0.00    +0.000 A 
ATOM     27  C   UNL     1      -3.134  11.716  18.208  0.00  0.00    +0.000 A 
BRANCH  18  29
ATOM     28  C   UNL     1      -6.000  11.570  17.886  0.00  0.00    +0.000 C 
ATOM     29  O   UNL     1      -5.041  11.642  16.833  0.00  0.00    +0.000 OA
ENDBRANCH  18  29
ENDBRANCH  17  22
ENDBRANCH  16  17
ENDBRANCH   1  16
TORSDOF 5
ENDMDL
MODEL 4
REMARK VINA RESULT:      -8.9      3.626      8.584
REMARK  Name = 
REMARK  7 active torsions:
REMARK  status: ('A' for Active; 'I' for Inactive)
REMARK    1  A    between atoms: C_1  and  O_2
REMARK    2  A    between atoms: O_2  and  C_3
REMARK    3  A    between atoms: C_7  and  O_8
REMARK    4  A    between atoms: O_8  and  C_9
REMARK    5  A    between atoms: C_9  and  C_10
REMARK    6  A    between atoms: C_16  and  C_17
REMARK    7  A    between atoms: C_19  and  C_20
REMARK                            x       y       z     vdW  Elec       q    Type
REMARK                         _______ _______ _______ _____ _____    ______ ____
ROOT
ATOM      1  C   UNL     1       1.105   8.745  20.943  0.00  0.00    +0.000 A 
ATOM      2  N   UNL     1       1.575   9.129  22.118  0.00  0.00    +0.000 NA
ATOM      3  N   UNL     1       0.861  10.230  22.522  0.00  0.00    +0.000 NA
ATOM      4  C   UNL     1      -0.023  10.495  21.587  0.00  0.00    +0.000 A 
ATOM      5  C   UNL     1      -0.992  11.503  21.458  0.00  0.00    +0.000 A 
ATOM      6  C   UNL     1      -1.735  11.551  20.346  0.00  0.00    +0.000 A 
ATOM      7  C   UNL     1      -1.479  10.529  19.275  0.00  0.00    +0.000 A 
ATOM      8  N   UNL     1      -0.617   9.560  19.387  0.00  0.00    +0.000 NA
ATOM      9  N   UNL     1       0.084   9.579  20.562  0.00  0.00    +0.000 N 
ENDROOT
BRANCH   7  10
ATOM     10  C   UNL     1      -2.232  10.620  18.038  0.00  0.00    +0.000 A 
ATOM     11  C   UNL     1      -1.949  10.094  16.788  0.00  0.00    +0.000 A 
ATOM     12  C   UNL     1      -2.950  10.476  15.834  0.00  0.00    +0.000 A 
ATOM     13  C   UNL     1      -2.985  10.103  14.395  0.00  0.00    +0.000 C 
ATOM     14  N   UNL     1      -3.930  11.246  16.304  0.00  0.00    +0.000 NA
ATOM     15  S   UNL     1      -3.660  11.547  17.903  0.00  0.00    +0.000 S 
ENDBRANCH   7  10
BRANCH   1  16
ATOM     16  C   UNL     1       1.698   7.723  20.058  0.00  0.00    +0.000 C 
BRANCH  16  17
ATOM     17  O   UNL     1       1.741   6.471  20.721  0.00  0.00    +0.000 OA
BRANCH  17  22
ATOM     18  C   UNL     1       4.587   4.369  16.738  0.00  0.00    +0.000 A 
ATOM     19  C   UNL     1       4.624   5.649  17.258  0.00  0.00    +0.000 A 
ATOM     20  C   UNL     1       3.781   5.993  18.308  0.00  0.00    +0.000 A 
ATOM     21  C   UNL     1       2.854   5.085  18.895  0.00  0.00    +0.000 A 
ATOM     22  C   UNL     1       1.948   5.329  19.977  0.00  0.00    +0.000 A 
ATOM     23  C   UNL     1       1.109   4.303  20.414  0.00  0.00    +0.000 A 
ATOM     24  C   UNL     1       1.175   3.078  19.791  0.00  0.00    +0.000 A 
ATOM     25  N   UNL     1       2.012   2.809  18.773  0.00  0.00    +0.000 NA
ATOM     26  C   UNL     1       2.830   3.781  18.338  0.00  0.00    +0.000 A 
ATOM     27  C   UNL     1       3.687   3.457  17.288  0.00  0.00    +0.000 A 
BRANCH  18  29
ATOM     28  C   UNL     1       6.713   4.412  15.696  0.00  0.00    +0.000 C 
ATOM     29  O   UNL     1       5.374   3.921  15.715  0.00  0.00    +0.000 OA
ENDBRANCH  18  29
ENDBRANCH  17  22
ENDBRANCH  16  17
ENDBRANCH   1  16
TORSDOF 5
ENDMDL
MODEL 5
REMARK VINA RESULT:      -8.6      3.829      8.756
REMARK  Name = 
REMARK  7 active torsions:
REMARK  status: ('A' for Active; 'I' for Inactive)
REMARK    1  A    between atoms: C_1  and  O_2
REMARK    2  A    between atoms: O_2  and  C_3
REMARK    3  A    between atoms: C_7  and  O_8
REMARK    4  A    between atoms: O_8  and  C_9
REMARK    5  A    between atoms: C_9  and  C_10
REMARK    6  A    between atoms: C_16  and  C_17
REMARK    7  A    between atoms: C_19  and  C_20
REMARK                            x       y       z     vdW  Elec       q    Type
REMARK                         _______ _______ _______ _____ _____    ______ ____
ROOT
ATOM      1  C   UNL     1       0.596   9.286  21.053  0.00  0.00    +0.000 A 
ATOM      2  N   UNL     1       1.275   9.917  21.996  0.00  0.00    +0.000 NA
ATOM      3  N   UNL     1       0.910  11.240  21.971  0.00  0.00    +0.000 NA
ATOM      4  C   UNL     1       0.023  11.389  21.014  0.00  0.00    +0.000 A 
ATOM      5  C   UNL     1      -0.670  12.510  20.532  0.00  0.00    +0.000 A 
ATOM      6  C   UNL     1      -1.497  12.364  19.490  0.00  0.00    +0.000 A 
ATOM      7  C   UNL     1      -1.627  11.001  18.871  0.00  0.00    +0.000 A 
ATOM      8  N   UNL     1      -1.028   9.938  19.324  0.00  0.00    +0.000 NA
ATOM      9  N   UNL     1      -0.219  10.177  20.401  0.00  0.00    +0.000 N 
ENDROOT
BRANCH   7  10
ATOM     10  C   UNL     1      -2.466  10.851  17.696  0.00  0.00    +0.000 A 
ATOM     11  C   UNL     1      -2.155  10.346  16.444  0.00  0.00    +0.000 A 
ATOM     12  C   UNL     1      -3.283  10.435  15.563  0.00  0.00    +0.000 A 
ATOM     13  C   UNL     1      -3.330   9.993  14.143  0.00  0.00    +0.000 C 
ATOM     14  N   UNL     1      -4.383  10.974  16.086  0.00  0.00    +0.000 NA
ATOM     15  S   UNL     1      -4.079  11.409  17.647  0.00  0.00    +0.000 S 
ENDBRANCH   7  10
BRANCH   1  16
ATOM     16  C   UNL     1       0.811   7.897  20.603  0.00  0.00    +0.000 C 
BRANCH  16  17
ATOM     17  O   UNL     1       1.874   7.848  19.667  0.00  0.00    +0.000 OA
BRANCH  17  22
ATOM     18  C   UNL     1       5.464   5.368  16.611  0.00  0.00    +0.000 A 
ATOM     19  C   UNL     1       5.020   6.675  16.551  0.00  0.00    +0.000 A 
ATOM     20  C   UNL     1       4.061   7.121  17.454  0.00  0.00    +0.000 A 
ATOM     21  C   UNL     1       3.491   6.291  18.461  0.00  0.00    +0.000 A 
ATOM     22  C   UNL     1       2.507   6.645  19.440  0.00  0.00    +0.000 A 
ATOM     23  C   UNL     1       2.069   5.682  20.351  0.00  0.00    +0.000 A 
ATOM     24  C   UNL     1       2.595   4.413  20.283  0.00  0.00    +0.000 A 
ATOM     25  N   UNL     1       3.520   4.042  19.379  0.00  0.00    +0.000 NA
ATOM     26  C   UNL     1       3.958   4.952  18.496  0.00  0.00    +0.000 A 
ATOM     27  C   UNL     1       4.922   4.528  17.583  0.00  0.00    +0.000 A 
BRANCH  18  29
ATOM     28  C   UNL     1       5.910   4.034  14.706  0.00  0.00    +0.000 C 
ATOM     29  O   UNL     1       6.406   4.827  15.782  0.00  0.00    +0.000 OA
ENDBRANCH  18  29
ENDBRANCH  17  22
ENDBRANCH  16  17
ENDBRANCH   1  16
TORSDOF 5
ENDMDL
MODEL 6
REMARK VINA RESULT:      -8.6      2.450      3.541
REMARK  Name = 
REMARK  7 active torsions:
REMARK  status: ('A' for Active; 'I' for Inactive)
REMARK    1  A    between atoms: C_1  and  O_2
REMARK    2  A    between atoms: O_2  and  C_3
REMARK    3  A    between atoms: C_7  and  O_8
REMARK    4  A    between atoms: O_8  and  C_9
REMARK    5  A    between atoms: C_9  and  C_10
REMARK    6  A    between atoms: C_16  and  C_17
REMARK    7  A    between atoms: C_19  and  C_20
REMARK                            x       y       z     vdW  Elec       q    Type
REMARK                         _______ _______ _______ _____ _____    ______ ____
ROOT
ATOM      1  C   UNL     1       4.386   5.573  18.615  0.00  0.00    +0.000 A 
ATOM      2  N   UNL     1       4.950   5.611  19.809  0.00  0.00    +0.000 NA
ATOM      3  N   UNL     1       6.271   5.265  19.668  0.00  0.00    +0.000 NA
ATOM      4  C   UNL     1       6.483   5.020  18.395  0.00  0.00    +0.000 A 
ATOM      5  C   UNL     1       7.624   4.613  17.687  0.00  0.00    +0.000 A 
ATOM      6  C   UNL     1       7.527   4.391  16.371  0.00  0.00    +0.000 A 
ATOM      7  C   UNL     1       6.186   4.571  15.716  0.00  0.00    +0.000 A 
ATOM      8  N   UNL     1       5.123   4.987  16.341  0.00  0.00    +0.000 NA
ATOM      9  N   UNL     1       5.319   5.206  17.678  0.00  0.00    +0.000 N 
ENDROOT
BRANCH   7  10
ATOM     10  C   UNL     1       6.058   4.262  14.304  0.00  0.00    +0.000 A 
ATOM     11  C   UNL     1       4.978   3.751  13.603  0.00  0.00    +0.000 A 
ATOM     12  C   UNL     1       5.312   3.554  12.222  0.00  0.00    +0.000 A 
ATOM     13  C   UNL     1       4.411   3.022  11.164  0.00  0.00    +0.000 C 
ATOM     14  N   UNL     1       6.557   3.879  11.878  0.00  0.00    +0.000 NA
ATOM     15  S   UNL     1       7.365   4.410  13.214  0.00  0.00    +0.000 S 
ENDBRANCH   7  10
BRANCH   1  16
ATOM     16  C   UNL     1       2.943   5.689  18.326  0.00  0.00    +0.000 C 
BRANCH  16  17
ATOM     17  O   UNL     1       2.276   6.301  19.416  0.00  0.00    +0.000 OA
BRANCH  17  22
ATOM     18  C   UNL     1       0.201  10.420  22.082  0.00  0.00    +0.000 A 
ATOM     19  C   UNL     1       0.427   9.126  22.511  0.00  0.00    +0.000 A 
ATOM     20  C   UNL     1       0.981   8.196  21.639  0.00  0.00    +0.000 A 
ATOM     21  C   UNL     1       1.337   8.501  20.295  0.00  0.00    +0.000 A 
ATOM     22  C   UNL     1       1.915   7.628  19.318  0.00  0.00    +0.000 A 
ATOM     23  C   UNL     1       2.194   8.117  18.041  0.00  0.00    +0.000 A 
ATOM     24  C   UNL     1       1.904   9.430  17.753  0.00  0.00    +0.000 A 
ATOM     25  N   UNL     1       1.362  10.282  18.642  0.00  0.00    +0.000 NA
ATOM     26  C   UNL     1       1.088   9.833  19.877  0.00  0.00    +0.000 A 
ATOM     27  C   UNL     1       0.535  10.751  20.770  0.00  0.00    +0.000 A 
BRANCH  18  29
ATOM     28  C   UNL     1      -0.850  12.541  22.151  0.00  0.00    +0.000 C 
ATOM     29  O   UNL     1      -0.328  11.415  22.854  0.00  0.00    +0.000 OA
ENDBRANCH  18  29
ENDBRANCH  17  22
ENDBRANCH  16  17
ENDBRANCH   1  16
TORSDOF 5
ENDMDL
MODEL 7
REMARK VINA RESULT:      -8.6      1.999      2.906
REMARK  Name = 
REMARK  7 active torsions:
REMARK  status: ('A' for Active; 'I' for Inactive)
REMARK    1  A    between atoms: C_1  and  O_2
REMARK    2  A    between atoms: O_2  and  C_3
REMARK    3  A    between atoms: C_7  and  O_8
REMARK    4  A    between atoms: O_8  and  C_9
REMARK    5  A    between atoms: C_9  and  C_10
REMARK    6  A    between atoms: C_16  and  C_17
REMARK    7  A    between atoms: C_19  and  C_20
REMARK                            x       y       z     vdW  Elec       q    Type
REMARK                         _______ _______ _______ _____ _____    ______ ____
ROOT
ATOM      1  C   UNL     1       1.992   5.170  20.151  0.00  0.00    +0.000 A 
ATOM      2  N   UNL     1       1.076   4.364  20.660  0.00  0.00    +0.000 NA
ATOM      3  N   UNL     1       1.243   3.122  20.099  0.00  0.00    +0.000 NA
ATOM      4  C   UNL     1       2.250   3.198  19.259  0.00  0.00    +0.000 A 
ATOM      5  C   UNL     1       2.844   2.255  18.406  0.00  0.00    +0.000 A 
ATOM      6  C   UNL     1       3.849   2.640  17.612  0.00  0.00    +0.000 A 
ATOM      7  C   UNL     1       4.282   4.078  17.659  0.00  0.00    +0.000 A 
ATOM      8  N   UNL     1       3.777   4.962  18.470  0.00  0.00    +0.000 NA
ATOM      9  N   UNL     1       2.768   4.476  19.256  0.00  0.00    +0.000 N 
ENDROOT
BRANCH   7  10
ATOM     10  C   UNL     1       5.323   4.518  16.748  0.00  0.00    +0.000 A 
ATOM     11  C   UNL     1       5.476   4.273  15.393  0.00  0.00    +0.000 A 
ATOM     12  C   UNL     1       6.687   4.865  14.901  0.00  0.00    +0.000 A 
ATOM     13  C   UNL     1       7.188   4.813  13.501  0.00  0.00    +0.000 C 
ATOM     14  N   UNL     1       7.421   5.512  15.804  0.00  0.00    +0.000 NA
ATOM     15  S   UNL     1       6.683   5.407  17.275  0.00  0.00    +0.000 S 
ENDBRANCH   7  10
BRANCH   1  16
ATOM     16  C   UNL     1       2.064   6.633  20.328  0.00  0.00    +0.000 C 
BRANCH  16  17
ATOM     17  O   UNL     1       0.810   7.133  20.760  0.00  0.00    +0.000 OA
BRANCH  17  22
ATOM     18  C   UNL     1       1.457  12.054  18.822  0.00  0.00    +0.000 A 
ATOM     19  C   UNL     1       1.704  10.836  18.216  0.00  0.00    +0.000 A 
ATOM     20  C   UNL     1       1.467   9.657  18.913  0.00  0.00    +0.000 A 
ATOM     21  C   UNL     1       0.976   9.624  20.249  0.00  0.00    +0.000 A 
ATOM     22  C   UNL     1       0.692   8.474  21.055  0.00  0.00    +0.000 A 
ATOM     23  C   UNL     1       0.212   8.649  22.354  0.00  0.00    +0.000 A 
ATOM     24  C   UNL     1       0.024   9.927  22.828  0.00  0.00    +0.000 A 
ATOM     25  N   UNL     1       0.277  11.031  22.103  0.00  0.00    +0.000 NA
ATOM     26  C   UNL     1       0.737  10.886  20.850  0.00  0.00    +0.000 A 
ATOM     27  C   UNL     1       0.978  12.056  20.131  0.00  0.00    +0.000 A 
BRANCH  18  29
ATOM     28  C   UNL     1       0.966  14.370  18.833  0.00  0.00    +0.000 C 
ATOM     29  O   UNL     1       1.644  13.270  18.230  0.00  0.00    +0.000 OA
ENDBRANCH  18  29
ENDBRANCH  17  22
ENDBRANCH  16  17
ENDBRANCH   1  16
TORSDOF 5
ENDMDL
MODEL 8
REMARK VINA RESULT:      -8.6      2.030      2.757
REMARK  Name = 
REMARK  7 active torsions:
REMARK  status: ('A' for Active; 'I' for Inactive)
REMARK    1  A    between atoms: C_1  and  O_2
REMARK    2  A    between atoms: O_2  and  C_3
REMARK    3  A    between atoms: C_7  and  O_8
REMARK    4  A    between atoms: O_8  and  C_9
REMARK    5  A    between atoms: C_9  and  C_10
REMARK    6  A    between atoms: C_16  and  C_17
REMARK    7  A    between atoms: C_19  and  C_20
REMARK                            x       y       z     vdW  Elec       q    Type
REMARK                         _______ _______ _______ _____ _____    ______ ____
ROOT
ATOM      1  C   UNL     1       2.219   5.796  19.897  0.00  0.00    +0.000 A 
ATOM      2  N   UNL     1       1.209   5.133  20.433  0.00  0.00    +0.000 NA
ATOM      3  N   UNL     1       1.172   3.882  19.866  0.00  0.00    +0.000 NA
ATOM      4  C   UNL     1       2.154   3.812  18.997  0.00  0.00    +0.000 A 
ATOM      5  C   UNL     1       2.576   2.795  18.126  0.00  0.00    +0.000 A 
ATOM      6  C   UNL     1       3.604   3.031  17.302  0.00  0.00    +0.000 A 
ATOM      7  C   UNL     1       4.246   4.388  17.338  0.00  0.00    +0.000 A 
ATOM      8  N   UNL     1       3.902   5.333  18.164  0.00  0.00    +0.000 NA
ATOM      9  N   UNL     1       2.856   4.999  18.979  0.00  0.00    +0.000 N 
ENDROOT
BRANCH   7  10
ATOM     10  C   UNL     1       5.314   4.673  16.397  0.00  0.00    +0.000 A 
ATOM     11  C   UNL     1       5.419   4.356  15.052  0.00  0.00    +0.000 A 
ATOM     12  C   UNL     1       6.678   4.790  14.521  0.00  0.00    +0.000 A 
ATOM     13  C   UNL     1       7.148   4.625  13.119  0.00  0.00    +0.000 C 
ATOM     14  N   UNL     1       7.492   5.393  15.386  0.00  0.00    +0.000 NA
ATOM     15  S   UNL     1       6.771   5.430  16.869  0.00  0.00    +0.000 S 
ENDBRANCH   7  10
BRANCH   1  16
ATOM     16  C   UNL     1       2.512   7.231  20.074  0.00  0.00    +0.000 C 
BRANCH  16  17
ATOM     17  O   UNL     1       1.396   8.009  19.678  0.00  0.00    +0.000 OA
BRANCH  17  22
ATOM     18  C   UNL     1      -1.899  12.166  20.173  0.00  0.00    +0.000 A 
ATOM     19  C   UNL     1      -1.545  11.462  19.037  0.00  0.00    +0.000 A 
ATOM     20  C   UNL     1      -0.653  10.400  19.133  0.00  0.00    +0.000 A 
ATOM     21  C   UNL     1      -0.064   9.983  20.360  0.00  0.00    +0.000 A 
ATOM     22  C   UNL     1       0.855   8.905  20.574  0.00  0.00    +0.000 A 
ATOM     23  C   UNL     1       1.325   8.651  21.864  0.00  0.00    +0.000 A 
ATOM     24  C   UNL     1       0.891   9.445  22.900  0.00  0.00    +0.000 A 
ATOM     25  N   UNL     1       0.028  10.464  22.740  0.00  0.00    +0.000 NA
ATOM     26  C   UNL     1      -0.439  10.725  21.510  0.00  0.00    +0.000 A 
ATOM     27  C   UNL     1      -1.337  11.785  21.391  0.00  0.00    +0.000 A 
BRANCH  18  29
ATOM     28  C   UNL     1      -2.712  14.052  21.352  0.00  0.00    +0.000 C 
ATOM     29  O   UNL     1      -2.771  13.218  20.197  0.00  0.00    +0.000 OA
ENDBRANCH  18  29
ENDBRANCH  17  22
ENDBRANCH  16  17
ENDBRANCH   1  16
TORSDOF 5
ENDMDL
MODEL 9
REMARK VINA RESULT:      -8.5      2.215      2.899
REMARK  Name = 
REMARK  7 active torsions:
REMARK  status: ('A' for Active; 'I' for Inactive)
REMARK    1  A    between atoms: C_1  and  O_2
REMARK    2  A    between atoms: O_2  and  C_3
REMARK    3  A    between atoms: C_7  and  O_8
REMARK    4  A    between atoms: O_8  and  C_9
REMARK    5  A    between atoms: C_9  and  C_10
REMARK    6  A    between atoms: C_16  and  C_17
REMARK    7  A    between atoms: C_19  and  C_20
REMARK                            x       y       z     vdW  Elec       q    Type
REMARK                         _______ _______ _______ _____ _____    ______ ____
ROOT
ATOM      1  C   UNL     1       2.145   5.253  20.096  0.00  0.00    +0.000 A 
ATOM      2  N   UNL     1       1.038   4.641  20.477  0.00  0.00    +0.000 NA
ATOM      3  N   UNL     1       0.883   3.519  19.701  0.00  0.00    +0.000 NA
ATOM      4  C   UNL     1       1.893   3.474  18.862  0.00  0.00    +0.000 A 
ATOM      5  C   UNL     1       2.236   2.575  17.840  0.00  0.00    +0.000 A 
ATOM      6  C   UNL     1       3.325   2.816  17.102  0.00  0.00    +0.000 A 
ATOM      7  C   UNL     1       4.121   4.057  17.392  0.00  0.00    +0.000 A 
ATOM      8  N   UNL     1       3.849   4.884  18.359  0.00  0.00    +0.000 NA
ATOM      9  N   UNL     1       2.730   4.550  19.073  0.00  0.00    +0.000 N 
ENDROOT
BRANCH   7  10
ATOM     10  C   UNL     1       5.262   4.361  16.547  0.00  0.00    +0.000 A 
ATOM     11  C   UNL     1       5.378   4.322  15.167  0.00  0.00    +0.000 A 
ATOM     12  C   UNL     1       6.711   4.654  14.758  0.00  0.00    +0.000 A 
ATOM     13  C   UNL     1       7.214   4.716  13.359  0.00  0.00    +0.000 C 
ATOM     14  N   UNL     1       7.567   4.923  15.742  0.00  0.00    +0.000 NA
ATOM     15  S   UNL     1       6.793   4.761  17.189  0.00  0.00    +0.000 S 
ENDBRANCH   7  10
BRANCH   1  16
ATOM     16  C   UNL     1       2.597   6.590  20.528  0.00  0.00    +0.000 C 
BRANCH  16  17
ATOM     17  O   UNL     1       2.058   7.585  19.676  0.00  0.00    +0.000 OA
BRANCH  17  22
ATOM     18  C   UNL     1      -1.669  11.210  18.512  0.00  0.00    +0.000 A 
ATOM     19  C   UNL     1      -0.979  10.363  17.665  0.00  0.00    +0.000 A 
ATOM     20  C   UNL     1      -0.033   9.487  18.185  0.00  0.00    +0.000 A 
ATOM     21  C   UNL     1       0.281   9.408  19.571  0.00  0.00    +0.000 A 
ATOM     22  C   UNL     1       1.227   8.545  20.212  0.00  0.00    +0.000 A 
ATOM     23  C   UNL     1       1.394   8.618  21.596  0.00  0.00    +0.000 A 
ATOM     24  C   UNL     1       0.642   9.521  22.311  0.00  0.00    +0.000 A 
ATOM     25  N   UNL     1      -0.257  10.348  21.747  0.00  0.00    +0.000 NA
ATOM     26  C   UNL     1      -0.436  10.292  20.418  0.00  0.00    +0.000 A 
ATOM     27  C   UNL     1      -1.383  11.160  19.875  0.00  0.00    +0.000 A 
BRANCH  18  29
ATOM     28  C   UNL     1      -3.877  11.543  17.724  0.00  0.00    +0.000 C 
ATOM     29  O   UNL     1      -2.624  12.102  18.113  0.00  0.00    +0.000 OA
ENDBRANCH  18  29
ENDBRANCH  17  22
ENDBRANCH  16  17
ENDBRANCH   1  16
TORSDOF 5
ENDMDL
