MODEL 1
REMARK VINA RESULT:      -7.3      0.000      0.000
REMARK  Name = 
REMARK  15 active torsions:
REMARK  status: ('A' for Active; 'I' for Inactive)
REMARK    1  A    between atoms: C_1  and  C_2
REMARK    2  A    between atoms: C_2  and  O_3
REMARK    3  A    between atoms: O_3  and  C_4
REMARK    4  A    between atoms: C_4  and  C_6
REMARK    5  A    between atoms: C_9  and  C_10
REMARK    6  A    between atoms: C_10  and  C_12
REMARK    7  A    between atoms: C_12  and  C_13
REMARK    8  A    between atoms: C_12  and  C_16
REMARK    9  A    between atoms: C_13  and  C_14
REMARK   10  A    between atoms: C_16  and  O_18
REMARK   11  A    between atoms: O_18  and  C_19
REMARK   12  A    between atoms: C_19  and  C_20
REMARK   13  A    between atoms: C_19  and  C_21
REMARK   14  A    between atoms: C_19  and  C_22
REMARK   15  A    between atoms: N_23  and  C_24
REMARK                            x       y       z     vdW  Elec       q    Type
REMARK                         _______ _______ _______ _____ _____    ______ ____
ROOT
ATOM      1  C   UNL     1       6.132   5.559  18.864  0.00  0.00    +0.000 C 
ATOM      2  O   UNL     1       6.754   5.369  19.916  0.00  0.00    +0.000 OA
ENDROOT
BRANCH   1   6
ATOM      3  C   UNL     1       2.532   4.503  18.792  0.00  0.00    +0.000 A 
ATOM      4  C   UNL     1       2.479   5.855  18.518  0.00  0.00    +0.000 A 
ATOM      5  C   UNL     1       3.790   6.344  18.537  0.00  0.00    +0.000 A 
ATOM      6  C   UNL     1       4.677   5.308  18.832  0.00  0.00    +0.000 A 
ATOM      7  N   UNL     1       3.875   4.182  19.018  0.00  0.00    +0.000 N 
ATOM      8  C   UNL     1       4.245   2.819  19.350  0.00  0.00    +0.000 C 
BRANCH   3   9
ATOM      9  C   UNL     1       1.419   3.563  18.780  0.00  0.00    +0.000 C 
ATOM     10  O   UNL     1       1.052   2.894  17.822  0.00  0.00    +0.000 OA
BRANCH   9  11
ATOM     11  O   UNL     1       0.760   3.633  19.970  0.00  0.00    +0.000 OA
BRANCH  11  13
ATOM     12  C   UNL     1       1.997   3.216  21.968  0.00  0.00    +0.000 C 
ATOM     13  C   UNL     1       1.091   2.605  20.912  0.00  0.00    +0.000 C 
ENDBRANCH  11  13
ENDBRANCH   9  11
ENDBRANCH   3   9
ENDBRANCH   1   6
BRANCH   1  14
ATOM     14  C   UNL     1       6.911   6.111  17.707  0.00  0.00    +0.000 C 
BRANCH  14  15
ATOM     15  C   UNL     1       7.844   7.198  18.196  0.00  0.00    +0.000 C 
ATOM     16  C   UNL     1       7.824   8.565  17.551  0.00  0.00    +0.000 C 
ATOM     17  O   UNL     1       8.652   6.951  19.099  0.00  0.00    +0.000 OA
ENDBRANCH  14  15
BRANCH  14  18
ATOM     18  C   UNL     1       7.608   5.033  16.920  0.00  0.00    +0.000 C 
ATOM     19  O   UNL     1       8.305   4.158  17.413  0.00  0.00    +0.000 OA
BRANCH  18  20
ATOM     20  O   UNL     1       7.453   5.231  15.576  0.00  0.00    +0.000 OA
BRANCH  20  21
ATOM     21  C   UNL     1       6.273   4.692  14.917  0.00  0.00    +0.000 C 
ATOM     22  C   UNL     1       5.687   3.524  15.720  0.00  0.00    +0.000 C 
ATOM     23  C   UNL     1       5.239   5.828  14.892  0.00  0.00    +0.000 C 
ATOM     24  C   UNL     1       6.578   4.307  13.461  0.00  0.00    +0.000 C 
ENDBRANCH  20  21
ENDBRANCH  18  20
ENDBRANCH  14  18
ENDBRANCH   1  14
TORSDOF 9
ENDMDL
MODEL 2
REMARK VINA RESULT:      -7.0      0.826      1.644
REMARK  Name = 
REMARK  15 active torsions:
REMARK  status: ('A' for Active; 'I' for Inactive)
REMARK    1  A    between atoms: C_1  and  C_2
REMARK    2  A    between atoms: C_2  and  O_3
REMARK    3  A    between atoms: O_3  and  C_4
REMARK    4  A    between atoms: C_4  and  C_6
REMARK    5  A    between atoms: C_9  and  C_10
REMARK    6  A    between atoms: C_10  and  C_12
REMARK    7  A    between atoms: C_12  and  C_13
REMARK    8  A    between atoms: C_12  and  C_16
REMARK    9  A    between atoms: C_13  and  C_14
REMARK   10  A    between atoms: C_16  and  O_18
REMARK   11  A    between atoms: O_18  and  C_19
REMARK   12  A    between atoms: C_19  and  C_20
REMARK   13  A    between atoms: C_19  and  C_21
REMARK   14  A    between atoms: C_19  and  C_22
REMARK   15  A    between atoms: N_23  and  C_24
REMARK                            x       y       z     vdW  Elec       q    Type
REMARK                         _______ _______ _______ _____ _____    ______ ____
ROOT
ATOM      1  C   UNL     1       6.234   5.436  19.131  0.00  0.00    +0.000 C 
ATOM      2  O   UNL     1       6.970   5.176  20.091  0.00  0.00    +0.000 OA
ENDROOT
BRANCH   1   6
ATOM      3  C   UNL     1       2.581   4.743  19.636  0.00  0.00    +0.000 A 
ATOM      4  C   UNL     1       2.598   6.007  19.079  0.00  0.00    +0.000 A 
ATOM      5  C   UNL     1       3.935   6.359  18.865  0.00  0.00    +0.000 A 
ATOM      6  C   UNL     1       4.770   5.327  19.293  0.00  0.00    +0.000 A 
ATOM      7  N   UNL     1       3.914   4.348  19.797  0.00  0.00    +0.000 N 
ATOM      8  C   UNL     1       4.217   3.056  20.381  0.00  0.00    +0.000 C 
BRANCH   3   9
ATOM      9  C   UNL     1       1.408   3.934  19.935  0.00  0.00    +0.000 C 
ATOM     10  O   UNL     1       0.997   3.646  21.053  0.00  0.00    +0.000 OA
BRANCH   9  11
ATOM     11  O   UNL     1       0.900   3.433  18.774  0.00  0.00    +0.000 OA
BRANCH  11  13
ATOM     12  C   UNL     1       2.398   1.990  17.604  0.00  0.00    +0.000 C 
ATOM     13  C   UNL     1       1.192   2.053  18.527  0.00  0.00    +0.000 C 
ENDBRANCH  11  13
ENDBRANCH   9  11
ENDBRANCH   3   9
ENDBRANCH   1   6
BRANCH   1  14
ATOM     14  C   UNL     1       6.903   5.923  17.879  0.00  0.00    +0.000 C 
BRANCH  14  15
ATOM     15  C   UNL     1       7.778   7.115  18.202  0.00  0.00    +0.000 C 
ATOM     16  C   UNL     1       7.643   8.396  17.410  0.00  0.00    +0.000 C 
ATOM     17  O   UNL     1       8.633   7.023  19.090  0.00  0.00    +0.000 OA
ENDBRANCH  14  15
BRANCH  14  18
ATOM     18  C   UNL     1       7.632   4.823  17.155  0.00  0.00    +0.000 C 
ATOM     19  O   UNL     1       8.377   4.017  17.691  0.00  0.00    +0.000 OA
BRANCH  18  20
ATOM     20  O   UNL     1       7.442   4.918  15.803  0.00  0.00    +0.000 OA
BRANCH  20  21
ATOM     21  C   UNL     1       6.115   4.669  15.260  0.00  0.00    +0.000 C 
ATOM     22  C   UNL     1       5.299   5.966  15.197  0.00  0.00    +0.000 C 
ATOM     23  C   UNL     1       6.329   4.162  13.825  0.00  0.00    +0.000 C 
ATOM     24  C   UNL     1       5.395   3.560  16.043  0.00  0.00    +0.000 C 
ENDBRANCH  20  21
ENDBRANCH  18  20
ENDBRANCH  14  18
ENDBRANCH   1  14
TORSDOF 9
ENDMDL
MODEL 3
REMARK VINA RESULT:      -6.6      3.777      6.103
REMARK  Name = 
REMARK  15 active torsions:
REMARK  status: ('A' for Active; 'I' for Inactive)
REMARK    1  A    between atoms: C_1  and  C_2
REMARK    2  A    between atoms: C_2  and  O_3
REMARK    3  A    between atoms: O_3  and  C_4
REMARK    4  A    between atoms: C_4  and  C_6
REMARK    5  A    between atoms: C_9  and  C_10
REMARK    6  A    between atoms: C_10  and  C_12
REMARK    7  A    between atoms: C_12  and  C_13
REMARK    8  A    between atoms: C_12  and  C_16
REMARK    9  A    between atoms: C_13  and  C_14
REMARK   10  A    between atoms: C_16  and  O_18
REMARK   11  A    between atoms: O_18  and  C_19
REMARK   12  A    between atoms: C_19  and  C_20
REMARK   13  A    between atoms: C_19  and  C_21
REMARK   14  A    between atoms: C_19  and  C_22
REMARK   15  A    between atoms: N_23  and  C_24
REMARK                            x       y       z     vdW  Elec       q    Type
REMARK                         _______ _______ _______ _____ _____    ______ ____
ROOT
ATOM      1  C   UNL     1       3.251   6.095  19.035  0.00  0.00    +0.000 C 
ATOM      2  O   UNL     1       4.216   5.728  19.716  0.00  0.00    +0.000 OA
ENDROOT
BRANCH   1   6
ATOM      3  C   UNL     1       1.121   9.023  20.023  0.00  0.00    +0.000 A 
ATOM      4  C   UNL     1       1.052   8.186  21.120  0.00  0.00    +0.000 A 
ATOM      5  C   UNL     1       1.814   7.048  20.835  0.00  0.00    +0.000 A 
ATOM      6  C   UNL     1       2.362   7.154  19.556  0.00  0.00    +0.000 A 
ATOM      7  N   UNL     1       1.895   8.370  19.057  0.00  0.00    +0.000 N 
ATOM      8  C   UNL     1       2.132   9.003  17.774  0.00  0.00    +0.000 C 
BRANCH   3   9
ATOM      9  C   UNL     1       0.563  10.363  19.908  0.00  0.00    +0.000 C 
ATOM     10  O   UNL     1       1.107  11.403  20.261  0.00  0.00    +0.000 OA
BRANCH   9  11
ATOM     11  O   UNL     1      -0.721  10.277  19.460  0.00  0.00    +0.000 OA
BRANCH  11  13
ATOM     12  C   UNL     1      -1.718  11.887  18.008  0.00  0.00    +0.000 C 
ATOM     13  C   UNL     1      -1.448  11.511  19.456  0.00  0.00    +0.000 C 
ENDBRANCH  11  13
ENDBRANCH   9  11
ENDBRANCH   3   9
ENDBRANCH   1   6
BRANCH   1  14
ATOM     14  C   UNL     1       3.105   5.475  17.677  0.00  0.00    +0.000 C 
BRANCH  14  15
ATOM     15  C   UNL     1       4.474   5.259  17.069  0.00  0.00    +0.000 C 
ATOM     16  C   UNL     1       5.145   6.367  16.289  0.00  0.00    +0.000 C 
ATOM     17  O   UNL     1       5.026   4.157  17.177  0.00  0.00    +0.000 OA
ENDBRANCH  14  15
BRANCH  14  18
ATOM     18  C   UNL     1       2.259   4.230  17.704  0.00  0.00    +0.000 C 
ATOM     19  O   UNL     1       2.110   3.474  16.757  0.00  0.00    +0.000 OA
BRANCH  18  20
ATOM     20  O   UNL     1       1.588   4.122  18.892  0.00  0.00    +0.000 OA
BRANCH  20  21
ATOM     21  C   UNL     1       1.677   2.876  19.639  0.00  0.00    +0.000 C 
ATOM     22  C   UNL     1       3.118   2.349  19.649  0.00  0.00    +0.000 C 
ATOM     23  C   UNL     1       1.277   3.214  21.083  0.00  0.00    +0.000 C 
ATOM     24  C   UNL     1       0.677   1.838  19.108  0.00  0.00    +0.000 C 
ENDBRANCH  20  21
ENDBRANCH  18  20
ENDBRANCH  14  18
ENDBRANCH   1  14
TORSDOF 9
ENDMDL
MODEL 4
REMARK VINA RESULT:      -6.6      3.786      6.013
REMARK  Name = 
REMARK  15 active torsions:
REMARK  status: ('A' for Active; 'I' for Inactive)
REMARK    1  A    between atoms: C_1  and  C_2
REMARK    2  A    between atoms: C_2  and  O_3
REMARK    3  A    between atoms: O_3  and  C_4
REMARK    4  A    between atoms: C_4  and  C_6
REMARK    5  A    between atoms: C_9  and  C_10
REMARK    6  A    between atoms: C_10  and  C_12
REMARK    7  A    between atoms: C_12  and  C_13
REMARK    8  A    between atoms: C_12  and  C_16
REMARK    9  A    between atoms: C_13  and  C_14
REMARK   10  A    between atoms: C_16  and  O_18
REMARK   11  A    between atoms: O_18  and  C_19
REMARK   12  A    between atoms: C_19  and  C_20
REMARK   13  A    between atoms: C_19  and  C_21
REMARK   14  A    between atoms: C_19  and  C_22
REMARK   15  A    between atoms: N_23  and  C_24
REMARK                            x       y       z     vdW  Elec       q    Type
REMARK                         _______ _______ _______ _____ _____    ______ ____
ROOT
ATOM      1  C   UNL     1       3.218   6.253  18.716  0.00  0.00    +0.000 C 
ATOM      2  O   UNL     1       3.845   5.866  19.709  0.00  0.00    +0.000 OA
ENDROOT
BRANCH   1   6
ATOM      3  C   UNL     1       1.262   9.421  19.189  0.00  0.00    +0.000 A 
ATOM      4  C   UNL     1       1.815   9.566  17.933  0.00  0.00    +0.000 A 
ATOM      5  C   UNL     1       2.582   8.425  17.672  0.00  0.00    +0.000 A 
ATOM      6  C   UNL     1       2.526   7.557  18.763  0.00  0.00    +0.000 A 
ATOM      7  N   UNL     1       1.729   8.206  19.706  0.00  0.00    +0.000 N 
ATOM      8  C   UNL     1       1.326   7.785  21.034  0.00  0.00    +0.000 C 
BRANCH   3   9
ATOM      9  C   UNL     1       0.313  10.316  19.837  0.00  0.00    +0.000 C 
ATOM     10  O   UNL     1       0.544  11.034  20.803  0.00  0.00    +0.000 OA
BRANCH   9  11
ATOM     11  O   UNL     1      -0.919  10.141  19.283  0.00  0.00    +0.000 OA
BRANCH  11  13
ATOM     12  C   UNL     1      -2.503  11.925  19.257  0.00  0.00    +0.000 C 
ATOM     13  C   UNL     1      -1.390  11.234  18.487  0.00  0.00    +0.000 C 
ENDBRANCH  11  13
ENDBRANCH   9  11
ENDBRANCH   3   9
ENDBRANCH   1   6
BRANCH   1  14
ATOM     14  C   UNL     1       3.277   5.382  17.496  0.00  0.00    +0.000 C 
BRANCH  14  15
ATOM     15  C   UNL     1       4.721   5.066  17.168  0.00  0.00    +0.000 C 
ATOM     16  C   UNL     1       5.539   6.024  16.333  0.00  0.00    +0.000 C 
ATOM     17  O   UNL     1       5.217   4.001  17.553  0.00  0.00    +0.000 OA
ENDBRANCH  14  15
BRANCH  14  18
ATOM     18  C   UNL     1       2.411   4.158  17.625  0.00  0.00    +0.000 C 
ATOM     19  O   UNL     1       2.294   3.299  16.764  0.00  0.00    +0.000 OA
BRANCH  18  20
ATOM     20  O   UNL     1       1.683   4.194  18.783  0.00  0.00    +0.000 OA
BRANCH  20  21
ATOM     21  C   UNL     1       1.703   3.035  19.662  0.00  0.00    +0.000 C 
ATOM     22  C   UNL     1       1.261   3.419  21.080  0.00  0.00    +0.000 C 
ATOM     23  C   UNL     1       0.677   2.045  19.088  0.00  0.00    +0.000 C 
ATOM     24  C   UNL     1       3.076   2.347  19.643  0.00  0.00    +0.000 C 
ENDBRANCH  20  21
ENDBRANCH  18  20
ENDBRANCH  14  18
ENDBRANCH   1  14
TORSDOF 9
ENDMDL
MODEL 5
REMARK VINA RESULT:      -6.5      1.872      2.702
REMARK  Name = 
REMARK  15 active torsions:
REMARK  status: ('A' for Active; 'I' for Inactive)
REMARK    1  A    between atoms: C_1  and  C_2
REMARK    2  A    between atoms: C_2  and  O_3
REMARK    3  A    between atoms: O_3  and  C_4
REMARK    4  A    between atoms: C_4  and  C_6
REMARK    5  A    between atoms: C_9  and  C_10
REMARK    6  A    between atoms: C_10  and  C_12
REMARK    7  A    between atoms: C_12  and  C_13
REMARK    8  A    between atoms: C_12  and  C_16
REMARK    9  A    between atoms: C_13  and  C_14
REMARK   10  A    between atoms: C_16  and  O_18
REMARK   11  A    between atoms: O_18  and  C_19
REMARK   12  A    between atoms: C_19  and  C_20
REMARK   13  A    between atoms: C_19  and  C_21
REMARK   14  A    between atoms: C_19  and  C_22
REMARK   15  A    between atoms: N_23  and  C_24
REMARK                            x       y       z     vdW  Elec       q    Type
REMARK                         _______ _______ _______ _____ _____    ______ ____
ROOT
ATOM      1  C   UNL     1       5.218   4.225  16.619  0.00  0.00    +0.000 C 
ATOM      2  O   UNL     1       6.191   3.632  17.101  0.00  0.00    +0.000 OA
ENDROOT
BRANCH   1   6
ATOM      3  C   UNL     1       1.965   3.710  18.418  0.00  0.00    +0.000 A 
ATOM      4  C   UNL     1       1.968   5.061  18.132  0.00  0.00    +0.000 A 
ATOM      5  C   UNL     1       3.163   5.352  17.466  0.00  0.00    +0.000 A 
ATOM      6  C   UNL     1       3.926   4.191  17.334  0.00  0.00    +0.000 A 
ATOM      7  N   UNL     1       3.181   3.191  17.958  0.00  0.00    +0.000 N 
ATOM      8  C   UNL     1       3.477   1.782  18.135  0.00  0.00    +0.000 C 
BRANCH   3   9
ATOM      9  C   UNL     1       0.881   2.944  19.016  0.00  0.00    +0.000 C 
ATOM     10  O   UNL     1       0.275   2.019  18.487  0.00  0.00    +0.000 OA
BRANCH   9  11
ATOM     11  O   UNL     1       0.550   3.496  20.216  0.00  0.00    +0.000 OA
BRANCH  11  13
ATOM     12  C   UNL     1       1.908   2.388  21.836  0.00  0.00    +0.000 C 
ATOM     13  C   UNL     1       1.646   3.700  21.116  0.00  0.00    +0.000 C 
ENDBRANCH  11  13
ENDBRANCH   9  11
ENDBRANCH   3   9
ENDBRANCH   1   6
BRANCH   1  14
ATOM     14  C   UNL     1       5.459   5.009  15.362  0.00  0.00    +0.000 C 
BRANCH  14  15
ATOM     15  C   UNL     1       5.521   6.485  15.690  0.00  0.00    +0.000 C 
ATOM     16  C   UNL     1       6.273   6.963  16.911  0.00  0.00    +0.000 C 
ATOM     17  O   UNL     1       4.920   7.297  14.975  0.00  0.00    +0.000 OA
ENDBRANCH  14  15
BRANCH  14  18
ATOM     18  C   UNL     1       6.658   4.513  14.600  0.00  0.00    +0.000 C 
ATOM     19  O   UNL     1       7.739   5.081  14.567  0.00  0.00    +0.000 OA
BRANCH  18  20
ATOM     20  O   UNL     1       6.343   3.408  13.858  0.00  0.00    +0.000 OA
BRANCH  20  21
ATOM     21  C   UNL     1       6.237   3.539  12.413  0.00  0.00    +0.000 C 
ATOM     22  C   UNL     1       7.153   4.656  11.898  0.00  0.00    +0.000 C 
ATOM     23  C   UNL     1       6.725   2.205  11.826  0.00  0.00    +0.000 C 
ATOM     24  C   UNL     1       4.776   3.732  11.979  0.00  0.00    +0.000 C 
ENDBRANCH  20  21
ENDBRANCH  18  20
ENDBRANCH  14  18
ENDBRANCH   1  14
TORSDOF 9
ENDMDL
MODEL 6
REMARK VINA RESULT:      -6.5      3.475      5.540
REMARK  Name = 
REMARK  15 active torsions:
REMARK  status: ('A' for Active; 'I' for Inactive)
REMARK    1  A    between atoms: C_1  and  C_2
REMARK    2  A    between atoms: C_2  and  O_3
REMARK    3  A    between atoms: O_3  and  C_4
REMARK    4  A    between atoms: C_4  and  C_6
REMARK    5  A    between atoms: C_9  and  C_10
REMARK    6  A    between atoms: C_10  and  C_12
REMARK    7  A    between atoms: C_12  and  C_13
REMARK    8  A    between atoms: C_12  and  C_16
REMARK    9  A    between atoms: C_13  and  C_14
REMARK   10  A    between atoms: C_16  and  O_18
REMARK   11  A    between atoms: O_18  and  C_19
REMARK   12  A    between atoms: C_19  and  C_20
REMARK   13  A    between atoms: C_19  and  C_21
REMARK   14  A    between atoms: C_19  and  C_22
REMARK   15  A    between atoms: N_23  and  C_24
REMARK                            x       y       z     vdW  Elec       q    Type
REMARK                         _______ _______ _______ _____ _____    ______ ____
ROOT
ATOM      1  C   UNL     1       2.576   5.431  18.732  0.00  0.00    +0.000 C 
ATOM      2  O   UNL     1       1.821   4.668  18.117  0.00  0.00    +0.000 OA
ENDROOT
BRANCH   1   6
ATOM      3  C   UNL     1       1.579   9.024  19.154  0.00  0.00    +0.000 A 
ATOM      4  C   UNL     1       2.166   8.995  17.904  0.00  0.00    +0.000 A 
ATOM      5  C   UNL     1       2.586   7.682  17.663  0.00  0.00    +0.000 A 
ATOM      6  C   UNL     1       2.276   6.877  18.759  0.00  0.00    +0.000 A 
ATOM      7  N   UNL     1       1.681   7.733  19.686  0.00  0.00    +0.000 N 
ATOM      8  C   UNL     1       1.160   7.456  21.010  0.00  0.00    +0.000 C 
BRANCH   3   9
ATOM      9  C   UNL     1       0.910  10.155  19.781  0.00  0.00    +0.000 C 
ATOM     10  O   UNL     1       1.430  10.976  20.527  0.00  0.00    +0.000 OA
BRANCH   9  11
ATOM     11  O   UNL     1      -0.424  10.093  19.513  0.00  0.00    +0.000 OA
BRANCH  11  13
ATOM     12  C   UNL     1      -1.843  10.139  17.594  0.00  0.00    +0.000 C 
ATOM     13  C   UNL     1      -0.871  10.939  18.447  0.00  0.00    +0.000 C 
ENDBRANCH  11  13
ENDBRANCH   9  11
ENDBRANCH   3   9
ENDBRANCH   1   6
BRANCH   1  14
ATOM     14  C   UNL     1       3.715   4.799  19.476  0.00  0.00    +0.000 C 
BRANCH  14  15
ATOM     15  C   UNL     1       3.187   3.702  20.376  0.00  0.00    +0.000 C 
ATOM     16  C   UNL     1       2.066   3.989  21.349  0.00  0.00    +0.000 C 
ATOM     17  O   UNL     1       3.704   2.579  20.340  0.00  0.00    +0.000 OA
ENDBRANCH  14  15
BRANCH  14  18
ATOM     18  C   UNL     1       4.816   4.342  18.557  0.00  0.00    +0.000 C 
ATOM     19  O   UNL     1       4.640   3.696  17.535  0.00  0.00    +0.000 OA
BRANCH  18  20
ATOM     20  O   UNL     1       6.044   4.645  19.078  0.00  0.00    +0.000 OA
BRANCH  20  21
ATOM     21  C   UNL     1       6.949   5.482  18.304  0.00  0.00    +0.000 C 
ATOM     22  C   UNL     1       8.059   6.053  19.196  0.00  0.00    +0.000 C 
ATOM     23  C   UNL     1       7.595   4.560  17.258  0.00  0.00    +0.000 C 
ATOM     24  C   UNL     1       6.182   6.578  17.549  0.00  0.00    +0.000 C 
ENDBRANCH  20  21
ENDBRANCH  18  20
ENDBRANCH  14  18
ENDBRANCH   1  14
TORSDOF 9
ENDMDL
MODEL 7
REMARK VINA RESULT:      -6.5      3.861      6.172
REMARK  Name = 
REMARK  15 active torsions:
REMARK  status: ('A' for Active; 'I' for Inactive)
REMARK    1  A    between atoms: C_1  and  C_2
REMARK    2  A    between atoms: C_2  and  O_3
REMARK    3  A    between atoms: O_3  and  C_4
REMARK    4  A    between atoms: C_4  and  C_6
REMARK    5  A    between atoms: C_9  and  C_10
REMARK    6  A    between atoms: C_10  and  C_12
REMARK    7  A    between atoms: C_12  and  C_13
REMARK    8  A    between atoms: C_12  and  C_16
REMARK    9  A    between atoms: C_13  and  C_14
REMARK   10  A    between atoms: C_16  and  O_18
REMARK   11  A    between atoms: O_18  and  C_19
REMARK   12  A    between atoms: C_19  and  C_20
REMARK   13  A    between atoms: C_19  and  C_21
REMARK   14  A    between atoms: C_19  and  C_22
REMARK   15  A    between atoms: N_23  and  C_24
REMARK                            x       y       z     vdW  Elec       q    Type
REMARK                         _______ _______ _______ _____ _____    ______ ____
ROOT
ATOM      1  C   UNL     1       3.140   6.295  18.749  0.00  0.00    +0.000 C 
ATOM      2  O   UNL     1       3.789   5.920  19.732  0.00  0.00    +0.000 OA
ENDROOT
BRANCH   1   6
ATOM      3  C   UNL     1       1.179   9.456  19.245  0.00  0.00    +0.000 A 
ATOM      4  C   UNL     1       1.669   9.577  17.960  0.00  0.00    +0.000 A 
ATOM      5  C   UNL     1       2.433   8.437  17.688  0.00  0.00    +0.000 A 
ATOM      6  C   UNL     1       2.438   7.594  18.800  0.00  0.00    +0.000 A 
ATOM      7  N   UNL     1       1.682   8.258  19.766  0.00  0.00    +0.000 N 
ATOM      8  C   UNL     1       1.348   7.864  21.121  0.00  0.00    +0.000 C 
BRANCH   3   9
ATOM      9  C   UNL     1       0.254  10.357  19.918  0.00  0.00    +0.000 C 
ATOM     10  O   UNL     1      -0.969  10.295  19.881  0.00  0.00    +0.000 OA
BRANCH   9  11
ATOM     11  O   UNL     1       0.957  11.369  20.500  0.00  0.00    +0.000 OA
BRANCH  11  13
ATOM     12  C   UNL     1       0.993  13.237  19.015  0.00  0.00    +0.000 C 
ATOM     13  C   UNL     1       0.414  12.680  20.305  0.00  0.00    +0.000 C 
ENDBRANCH  11  13
ENDBRANCH   9  11
ENDBRANCH   3   9
ENDBRANCH   1   6
BRANCH   1  14
ATOM     14  C   UNL     1       3.183   5.416  17.534  0.00  0.00    +0.000 C 
BRANCH  14  15
ATOM     15  C   UNL     1       4.624   5.139  17.159  0.00  0.00    +0.000 C 
ATOM     16  C   UNL     1       5.403   6.143  16.339  0.00  0.00    +0.000 C 
ATOM     17  O   UNL     1       5.149   4.070  17.492  0.00  0.00    +0.000 OA
ENDBRANCH  14  15
BRANCH  14  18
ATOM     18  C   UNL     1       2.358   4.168  17.701  0.00  0.00    +0.000 C 
ATOM     19  O   UNL     1       2.237   3.300  16.851  0.00  0.00    +0.000 OA
BRANCH  18  20
ATOM     20  O   UNL     1       1.670   4.193  18.883  0.00  0.00    +0.000 OA
BRANCH  20  21
ATOM     21  C   UNL     1       1.588   2.974  19.674  0.00  0.00    +0.000 C 
ATOM     22  C   UNL     1       0.595   1.986  19.050  0.00  0.00    +0.000 C 
ATOM     23  C   UNL     1       2.988   2.342  19.633  0.00  0.00    +0.000 C 
ATOM     24  C   UNL     1       1.260   3.287  21.142  0.00  0.00    +0.000 C 
ENDBRANCH  20  21
ENDBRANCH  18  20
ENDBRANCH  14  18
ENDBRANCH   1  14
TORSDOF 9
ENDMDL
MODEL 8
REMARK VINA RESULT:      -6.4      3.862      5.980
REMARK  Name = 
REMARK  15 active torsions:
REMARK  status: ('A' for Active; 'I' for Inactive)
REMARK    1  A    between atoms: C_1  and  C_2
REMARK    2  A    between atoms: C_2  and  O_3
REMARK    3  A    between atoms: O_3  and  C_4
REMARK    4  A    between atoms: C_4  and  C_6
REMARK    5  A    between atoms: C_9  and  C_10
REMARK    6  A    between atoms: C_10  and  C_12
REMARK    7  A    between atoms: C_12  and  C_13
REMARK    8  A    between atoms: C_12  and  C_16
REMARK    9  A    between atoms: C_13  and  C_14
REMARK   10  A    between atoms: C_16  and  O_18
REMARK   11  A    between atoms: O_18  and  C_19
REMARK   12  A    between atoms: C_19  and  C_20
REMARK   13  A    between atoms: C_19  and  C_21
REMARK   14  A    between atoms: C_19  and  C_22
REMARK   15  A    between atoms: N_23  and  C_24
REMARK                            x       y       z     vdW  Elec       q    Type
REMARK                         _______ _______ _______ _____ _____    ______ ____
ROOT
ATOM      1  C   UNL     1       3.175   6.150  19.088  0.00  0.00    +0.000 C 
ATOM      2  O   UNL     1       4.109   5.730  19.781  0.00  0.00    +0.000 OA
ENDROOT
BRANCH   1   6
ATOM      3  C   UNL     1       1.103   9.107  20.109  0.00  0.00    +0.000 A 
ATOM      4  C   UNL     1       1.006   8.255  21.191  0.00  0.00    +0.000 A 
ATOM      5  C   UNL     1       1.745   7.105  20.892  0.00  0.00    +0.000 A 
ATOM      6  C   UNL     1       2.305   7.219  19.619  0.00  0.00    +0.000 A 
ATOM      7  N   UNL     1       1.869   8.453  19.137  0.00  0.00    +0.000 N 
ATOM      8  C   UNL     1       2.131   9.103  17.867  0.00  0.00    +0.000 C 
BRANCH   3   9
ATOM      9  C   UNL     1       0.576  10.461  20.012  0.00  0.00    +0.000 C 
ATOM     10  O   UNL     1       1.204  11.457  19.673  0.00  0.00    +0.000 OA
BRANCH   9  11
ATOM     11  O   UNL     1      -0.703  10.480  20.481  0.00  0.00    +0.000 OA
BRANCH  11  13
ATOM     12  C   UNL     1      -0.997  10.967  22.799  0.00  0.00    +0.000 C 
ATOM     13  C   UNL     1      -1.003  11.543  21.392  0.00  0.00    +0.000 C 
ENDBRANCH  11  13
ENDBRANCH   9  11
ENDBRANCH   3   9
ENDBRANCH   1   6
BRANCH   1  14
ATOM     14  C   UNL     1       3.046   5.578  17.707  0.00  0.00    +0.000 C 
BRANCH  14  15
ATOM     15  C   UNL     1       4.421   5.425  17.091  0.00  0.00    +0.000 C 
ATOM     16  C   UNL     1       5.025   6.555  16.288  0.00  0.00    +0.000 C 
ATOM     17  O   UNL     1       5.032   4.358  17.215  0.00  0.00    +0.000 OA
ENDBRANCH  14  15
BRANCH  14  18
ATOM     18  C   UNL     1       2.237   4.308  17.686  0.00  0.00    +0.000 C 
ATOM     19  O   UNL     1       2.155   3.556  16.728  0.00  0.00    +0.000 OA
BRANCH  18  20
ATOM     20  O   UNL     1       1.516   4.171  18.840  0.00  0.00    +0.000 OA
BRANCH  20  21
ATOM     21  C   UNL     1       1.684   2.964  19.635  0.00  0.00    +0.000 C 
ATOM     22  C   UNL     1       1.420   3.248  21.119  0.00  0.00    +0.000 C 
ATOM     23  C   UNL     1       0.620   1.972  19.137  0.00  0.00    +0.000 C 
ATOM     24  C   UNL     1       3.062   2.329  19.395  0.00  0.00    +0.000 C 
ENDBRANCH  20  21
ENDBRANCH  18  20
ENDBRANCH  14  18
ENDBRANCH   1  14
TORSDOF 9
ENDMDL
MODEL 9
REMARK VINA RESULT:      -6.4      3.910      5.732
REMARK  Name = 
REMARK  15 active torsions:
REMARK  status: ('A' for Active; 'I' for Inactive)
REMARK    1  A    between atoms: C_1  and  C_2
REMARK    2  A    between atoms: C_2  and  O_3
REMARK    3  A    between atoms: O_3  and  C_4
REMARK    4  A    between atoms: C_4  and  C_6
REMARK    5  A    between atoms: C_9  and  C_10
REMARK    6  A    between atoms: C_10  and  C_12
REMARK    7  A    between atoms: C_12  and  C_13
REMARK    8  A    between atoms: C_12  and  C_16
REMARK    9  A    between atoms: C_13  and  C_14
REMARK   10  A    between atoms: C_16  and  O_18
REMARK   11  A    between atoms: O_18  and  C_19
REMARK   12  A    between atoms: C_19  and  C_20
REMARK   13  A    between atoms: C_19  and  C_21
REMARK   14  A    between atoms: C_19  and  C_22
REMARK   15  A    between atoms: N_23  and  C_24
REMARK                            x       y       z     vdW  Elec       q    Type
REMARK                         _______ _______ _______ _____ _____    ______ ____
ROOT
ATOM      1  C   UNL     1       2.666   6.165  18.755  0.00  0.00    +0.000 C 
ATOM      2  O   UNL     1       2.182   5.397  17.915  0.00  0.00    +0.000 OA
ENDROOT
BRANCH   1   6
ATOM      3  C   UNL     1       1.321   9.639  19.209  0.00  0.00    +0.000 A 
ATOM      4  C   UNL     1       1.842   9.657  17.930  0.00  0.00    +0.000 A 
ATOM      5  C   UNL     1       2.384   8.392  17.674  0.00  0.00    +0.000 A 
ATOM      6  C   UNL     1       2.217   7.572  18.791  0.00  0.00    +0.000 A 
ATOM      7  N   UNL     1       1.586   8.372  19.743  0.00  0.00    +0.000 N 
ATOM      8  C   UNL     1       1.168   8.057  21.095  0.00  0.00    +0.000 C 
BRANCH   3   9
ATOM      9  C   UNL     1       0.572  10.702  19.865  0.00  0.00    +0.000 C 
ATOM     10  O   UNL     1      -0.645  10.754  19.989  0.00  0.00    +0.000 OA
BRANCH   9  11
ATOM     11  O   UNL     1       1.427  11.704  20.212  0.00  0.00    +0.000 OA
BRANCH  11  13
ATOM     12  C   UNL     1       1.403  13.375  18.508  0.00  0.00    +0.000 C 
ATOM     13  C   UNL     1       0.964  13.028  19.921  0.00  0.00    +0.000 C 
ENDBRANCH  11  13
ENDBRANCH   9  11
ENDBRANCH   3   9
ENDBRANCH   1   6
BRANCH   1  14
ATOM     14  C   UNL     1       3.632   5.571  19.738  0.00  0.00    +0.000 C 
BRANCH  14  15
ATOM     15  C   UNL     1       3.024   4.333  20.362  0.00  0.00    +0.000 C 
ATOM     16  C   UNL     1       3.398   2.960  19.850  0.00  0.00    +0.000 C 
ATOM     17  O   UNL     1       2.188   4.450  21.266  0.00  0.00    +0.000 OA
ENDBRANCH  14  15
BRANCH  14  18
ATOM     18  C   UNL     1       4.989   5.331  19.132  0.00  0.00    +0.000 C 
ATOM     19  O   UNL     1       5.914   4.776  19.705  0.00  0.00    +0.000 OA
BRANCH  18  20
ATOM     20  O   UNL     1       5.084   5.919  17.900  0.00  0.00    +0.000 OA
BRANCH  20  21
ATOM     21  C   UNL     1       5.604   5.139  16.787  0.00  0.00    +0.000 C 
ATOM     22  C   UNL     1       4.864   3.800  16.668  0.00  0.00    +0.000 C 
ATOM     23  C   UNL     1       5.321   5.961  15.520  0.00  0.00    +0.000 C 
ATOM     24  C   UNL     1       7.126   4.960  16.897  0.00  0.00    +0.000 C 
ENDBRANCH  20  21
ENDBRANCH  18  20
ENDBRANCH  14  18
ENDBRANCH   1  14
TORSDOF 9
ENDMDL
