MODEL 1
REMARK VINA RESULT:      -6.4      0.000      0.000
REMARK  Name = 
REMARK  8 active torsions:
REMARK  status: ('A' for Active; 'I' for Inactive)
REMARK    1  A    between atoms: C_1  and  N_2
REMARK    2  A    between atoms: N_2  and  C_3
REMARK    3  A    between atoms: N_2  and  N_4
REMARK    4  A    between atoms: C_5  and  C_6
REMARK    5  A    between atoms: C_13  and  C_14
REMARK    6  A    between atoms: N_15  and  N_16
REMARK    7  A    between atoms: N_16  and  C_17
REMARK    8  A    between atoms: N_16  and  C_18
REMARK                            x       y       z     vdW  Elec       q    Type
REMARK                         _______ _______ _______ _____ _____    ______ ____
ROOT
ATOM      1  C   UNL     1      -3.710  12.250  19.524  0.00  0.00    +0.000 A 
ATOM      2  C   UNL     1      -2.810  12.368  20.632  0.00  0.00    +0.000 A 
ATOM      3  C   UNL     1      -3.166  12.978  21.865  0.00  0.00    +0.000 A 
ATOM      4  C   UNL     1      -2.279  13.128  22.932  0.00  0.00    +0.000 A 
ATOM      5  C   UNL     1      -0.995  12.655  22.801  0.00  0.00    +0.000 A 
ATOM      6  C   UNL     1      -0.617  12.026  21.614  0.00  0.00    +0.000 A 
ATOM      7  C   UNL     1      -1.499  11.834  20.510  0.00  0.00    +0.000 A 
ATOM      8  C   UNL     1      -1.142  11.149  19.303  0.00  0.00    +0.000 A 
ATOM      9  C   UNL     1      -2.063  10.993  18.211  0.00  0.00    +0.000 A 
ATOM     10  C   UNL     1      -1.779  10.272  17.011  0.00  0.00    +0.000 A 
ATOM     11  C   UNL     1      -2.677  10.142  15.956  0.00  0.00    +0.000 A 
ATOM     12  C   UNL     1      -3.919  10.736  16.054  0.00  0.00    +0.000 A 
ATOM     13  C   UNL     1      -4.249  11.436  17.213  0.00  0.00    +0.000 A 
ATOM     14  C   UNL     1      -3.360  11.568  18.318  0.00  0.00    +0.000 A 
ENDROOT
BRANCH   1  16
ATOM     15  N   UNL     1      -6.121  12.114  19.954  0.00  0.00    +0.000 NA
ATOM     16  C   UNL     1      -5.094  12.831  19.611  0.00  0.00    +0.000 C 
BRANCH  15  18
ATOM     17  C   UNL     1      -7.797  13.249  18.729  0.00  0.00    +0.000 C 
ATOM     18  N   UNL     1      -7.359  12.677  20.008  0.00  0.00    +0.000 N 
ATOM     19  C   UNL     1      -7.834  13.462  21.148  0.00  0.00    +0.000 C 
ENDBRANCH  15  18
ENDBRANCH   1  16
BRANCH   8  20
ATOM     20  C   UNL     1       0.206  10.495  19.149  0.00  0.00    +0.000 C 
ATOM     21  N   UNL     1       0.531   9.389  19.741  0.00  0.00    +0.000 NA
BRANCH  21  22
ATOM     22  N   UNL     1       1.676   8.766  19.365  0.00  0.00    +0.000 N 
ATOM     23  C   UNL     1       2.116   7.459  19.852  0.00  0.00    +0.000 C 
ATOM     24  C   UNL     1       2.032   8.923  17.951  0.00  0.00    +0.000 C 
ENDBRANCH  21  22
ENDBRANCH   8  20
TORSDOF 4
ENDMDL
MODEL 2
REMARK VINA RESULT:      -6.2      0.243      3.825
REMARK  Name = 
REMARK  8 active torsions:
REMARK  status: ('A' for Active; 'I' for Inactive)
REMARK    1  A    between atoms: C_1  and  N_2
REMARK    2  A    between atoms: N_2  and  C_3
REMARK    3  A    between atoms: N_2  and  N_4
REMARK    4  A    between atoms: C_5  and  C_6
REMARK    5  A    between atoms: C_13  and  C_14
REMARK    6  A    between atoms: N_15  and  N_16
REMARK    7  A    between atoms: N_16  and  C_17
REMARK    8  A    between atoms: N_16  and  C_18
REMARK                            x       y       z     vdW  Elec       q    Type
REMARK                         _______ _______ _______ _____ _____    ______ ____
ROOT
ATOM      1  C   UNL     1      -3.694  12.145  19.396  0.00  0.00    +0.000 A 
ATOM      2  C   UNL     1      -3.405  11.444  18.181  0.00  0.00    +0.000 A 
ATOM      3  C   UNL     1      -4.311  11.366  17.090  0.00  0.00    +0.000 A 
ATOM      4  C   UNL     1      -4.046  10.652  15.921  0.00  0.00    +0.000 A 
ATOM      5  C   UNL     1      -2.845   9.994  15.801  0.00  0.00    +0.000 A 
ATOM      6  C   UNL     1      -1.918  10.069  16.842  0.00  0.00    +0.000 A 
ATOM      7  C   UNL     1      -2.142  10.806  18.043  0.00  0.00    +0.000 A 
ATOM      8  C   UNL     1      -1.184  10.934  19.100  0.00  0.00    +0.000 A 
ATOM      9  C   UNL     1      -1.462  11.676  20.298  0.00  0.00    +0.000 A 
ATOM     10  C   UNL     1      -0.524  11.883  21.356  0.00  0.00    +0.000 A 
ATOM     11  C   UNL     1      -0.813  12.593  22.518  0.00  0.00    +0.000 A 
ATOM     12  C   UNL     1      -2.071  13.139  22.676  0.00  0.00    +0.000 A 
ATOM     13  C   UNL     1      -3.015  12.979  21.663  0.00  0.00    +0.000 A 
ATOM     14  C   UNL     1      -2.742  12.276  20.454  0.00  0.00    +0.000 A 
ENDROOT
BRANCH   1  16
ATOM     15  N   UNL     1      -6.052  12.167  20.073  0.00  0.00    +0.000 NA
ATOM     16  C   UNL     1      -5.031  12.806  19.586  0.00  0.00    +0.000 C 
BRANCH  15  18
ATOM     17  C   UNL     1      -7.740  13.406  18.973  0.00  0.00    +0.000 C 
ATOM     18  N   UNL     1      -7.248  12.800  20.217  0.00  0.00    +0.000 N 
ATOM     19  C   UNL     1      -7.595  13.602  21.390  0.00  0.00    +0.000 C 
ENDBRANCH  15  18
ENDBRANCH   1  16
BRANCH   8  20
ATOM     20  C   UNL     1       0.197  10.346  18.974  0.00  0.00    +0.000 C 
ATOM     21  N   UNL     1       0.593   9.312  19.647  0.00  0.00    +0.000 NA
BRANCH  21  22
ATOM     22  N   UNL     1       1.766   8.724  19.302  0.00  0.00    +0.000 N 
ATOM     23  C   UNL     1       2.187   7.387  19.718  0.00  0.00    +0.000 C 
ATOM     24  C   UNL     1       2.212   8.988  17.930  0.00  0.00    +0.000 C 
ENDBRANCH  21  22
ENDBRANCH   8  20
TORSDOF 4
ENDMDL
MODEL 3
REMARK VINA RESULT:      -6.2      0.392      7.312
REMARK  Name = 
REMARK  8 active torsions:
REMARK  status: ('A' for Active; 'I' for Inactive)
REMARK    1  A    between atoms: C_1  and  N_2
REMARK    2  A    between atoms: N_2  and  C_3
REMARK    3  A    between atoms: N_2  and  N_4
REMARK    4  A    between atoms: C_5  and  C_6
REMARK    5  A    between atoms: C_13  and  C_14
REMARK    6  A    between atoms: N_15  and  N_16
REMARK    7  A    between atoms: N_16  and  C_17
REMARK    8  A    between atoms: N_16  and  C_18
REMARK                            x       y       z     vdW  Elec       q    Type
REMARK                         _______ _______ _______ _____ _____    ______ ____
ROOT
ATOM      1  C   UNL     1      -1.181  11.041  19.105  0.00  0.00    +0.000 A 
ATOM      2  C   UNL     1      -2.153  10.924  18.059  0.00  0.00    +0.000 A 
ATOM      3  C   UNL     1      -1.917  10.217  16.850  0.00  0.00    +0.000 A 
ATOM      4  C   UNL     1      -2.848  10.134  15.815  0.00  0.00    +0.000 A 
ATOM      5  C   UNL     1      -4.066  10.754  15.964  0.00  0.00    +0.000 A 
ATOM      6  C   UNL     1      -4.344  11.437  17.149  0.00  0.00    +0.000 A 
ATOM      7  C   UNL     1      -3.428  11.526  18.239  0.00  0.00    +0.000 A 
ATOM      8  C   UNL     1      -3.714  12.180  19.481  0.00  0.00    +0.000 A 
ATOM      9  C   UNL     1      -2.752  12.256  20.544  0.00  0.00    +0.000 A 
ATOM     10  C   UNL     1      -3.004  12.845  21.822  0.00  0.00    +0.000 A 
ATOM     11  C   UNL     1      -2.056  12.924  22.838  0.00  0.00    +0.000 A 
ATOM     12  C   UNL     1      -0.795  12.407  22.621  0.00  0.00    +0.000 A 
ATOM     13  C   UNL     1      -0.506  11.807  21.397  0.00  0.00    +0.000 A 
ATOM     14  C   UNL     1      -1.461  11.693  20.346  0.00  0.00    +0.000 A 
ENDROOT
BRANCH   1  16
ATOM     15  N   UNL     1       0.472   9.246  19.355  0.00  0.00    +0.000 NA
ATOM     16  C   UNL     1       0.187  10.441  18.934  0.00  0.00    +0.000 C 
BRANCH  15  18
ATOM     17  C   UNL     1       2.242   8.899  17.825  0.00  0.00    +0.000 C 
ATOM     18  N   UNL     1       1.727   8.746  19.191  0.00  0.00    +0.000 N 
ATOM     19  C   UNL     1       2.181   7.500  19.809  0.00  0.00    +0.000 C 
ENDBRANCH  15  18
ENDBRANCH   1  16
BRANCH   8  20
ATOM     20  C   UNL     1      -5.074  12.766  19.756  0.00  0.00    +0.000 C 
ATOM     21  N   UNL     1      -6.083  12.062  20.164  0.00  0.00    +0.000 NA
BRANCH  21  22
ATOM     22  N   UNL     1      -7.192  12.710  20.598  0.00  0.00    +0.000 N 
ATOM     23  C   UNL     1      -7.458  13.076  21.989  0.00  0.00    +0.000 C 
ATOM     24  C   UNL     1      -7.693  13.753  19.698  0.00  0.00    +0.000 C 
ENDBRANCH  21  22
ENDBRANCH   8  20
TORSDOF 4
ENDMDL
MODEL 4
REMARK VINA RESULT:      -6.1      0.325      6.266
REMARK  Name = 
REMARK  8 active torsions:
REMARK  status: ('A' for Active; 'I' for Inactive)
REMARK    1  A    between atoms: C_1  and  N_2
REMARK    2  A    between atoms: N_2  and  C_3
REMARK    3  A    between atoms: N_2  and  N_4
REMARK    4  A    between atoms: C_5  and  C_6
REMARK    5  A    between atoms: C_13  and  C_14
REMARK    6  A    between atoms: N_15  and  N_16
REMARK    7  A    between atoms: N_16  and  C_17
REMARK    8  A    between atoms: N_16  and  C_18
REMARK                            x       y       z     vdW  Elec       q    Type
REMARK                         _______ _______ _______ _____ _____    ______ ____
ROOT
ATOM      1  C   UNL     1      -1.267  10.984  19.031  0.00  0.00    +0.000 A 
ATOM      2  C   UNL     1      -1.537  11.699  20.243  0.00  0.00    +0.000 A 
ATOM      3  C   UNL     1      -0.581  11.869  21.279  0.00  0.00    +0.000 A 
ATOM      4  C   UNL     1      -0.854  12.532  22.475  0.00  0.00    +0.000 A 
ATOM      5  C   UNL     1      -2.106  13.064  22.671  0.00  0.00    +0.000 A 
ATOM      6  C   UNL     1      -3.066  12.939  21.664  0.00  0.00    +0.000 A 
ATOM      7  C   UNL     1      -2.819  12.288  20.419  0.00  0.00    +0.000 A 
ATOM      8  C   UNL     1      -3.775  12.193  19.356  0.00  0.00    +0.000 A 
ATOM      9  C   UNL     1      -3.484  11.514  18.125  0.00  0.00    +0.000 A 
ATOM     10  C   UNL     1      -4.378  11.438  17.012  0.00  0.00    +0.000 A 
ATOM     11  C   UNL     1      -4.087  10.763  15.830  0.00  0.00    +0.000 A 
ATOM     12  C   UNL     1      -2.869  10.126  15.704  0.00  0.00    +0.000 A 
ATOM     13  C   UNL     1      -1.957  10.186  16.755  0.00  0.00    +0.000 A 
ATOM     14  C   UNL     1      -2.217  10.886  17.968  0.00  0.00    +0.000 A 
ENDROOT
BRANCH   1  16
ATOM     15  N   UNL     1       0.454   9.314  19.546  0.00  0.00    +0.000 NA
ATOM     16  C   UNL     1       0.068  10.324  18.827  0.00  0.00    +0.000 C 
BRANCH  15  18
ATOM     17  C   UNL     1       2.139   8.867  17.946  0.00  0.00    +0.000 C 
ATOM     18  N   UNL     1       1.677   8.754  19.335  0.00  0.00    +0.000 N 
ATOM     19  C   UNL     1       2.099   7.496  19.950  0.00  0.00    +0.000 C 
ENDBRANCH  15  18
ENDBRANCH   1  16
BRANCH   8  20
ATOM     20  C   UNL     1      -5.119  12.865  19.457  0.00  0.00    +0.000 C 
ATOM     21  N   UNL     1      -6.152  12.310  20.007  0.00  0.00    +0.000 NA
BRANCH  21  22
ATOM     22  N   UNL     1      -7.246  13.074  20.250  0.00  0.00    +0.000 N 
ATOM     23  C   UNL     1      -7.404  13.969  21.397  0.00  0.00    +0.000 C 
ATOM     24  C   UNL     1      -7.868  13.664  19.061  0.00  0.00    +0.000 C 
ENDBRANCH  21  22
ENDBRANCH   8  20
TORSDOF 4
ENDMDL
MODEL 5
REMARK VINA RESULT:      -5.9      0.752      7.398
REMARK  Name = 
REMARK  8 active torsions:
REMARK  status: ('A' for Active; 'I' for Inactive)
REMARK    1  A    between atoms: C_1  and  N_2
REMARK    2  A    between atoms: N_2  and  C_3
REMARK    3  A    between atoms: N_2  and  N_4
REMARK    4  A    between atoms: C_5  and  C_6
REMARK    5  A    between atoms: C_13  and  C_14
REMARK    6  A    between atoms: N_15  and  N_16
REMARK    7  A    between atoms: N_16  and  C_17
REMARK    8  A    between atoms: N_16  and  C_18
REMARK                            x       y       z     vdW  Elec       q    Type
REMARK                         _______ _______ _______ _____ _____    ______ ____
ROOT
ATOM      1  C   UNL     1      -1.251  11.105  19.171  0.00  0.00    +0.000 A 
ATOM      2  C   UNL     1      -2.210  11.001  18.112  0.00  0.00    +0.000 A 
ATOM      3  C   UNL     1      -1.958  10.311  16.896  0.00  0.00    +0.000 A 
ATOM      4  C   UNL     1      -2.878  10.241  15.849  0.00  0.00    +0.000 A 
ATOM      5  C   UNL     1      -4.098  10.858  15.991  0.00  0.00    +0.000 A 
ATOM      6  C   UNL     1      -4.391  11.524  17.183  0.00  0.00    +0.000 A 
ATOM      7  C   UNL     1      -3.487  11.599  18.284  0.00  0.00    +0.000 A 
ATOM      8  C   UNL     1      -3.790  12.237  19.531  0.00  0.00    +0.000 A 
ATOM      9  C   UNL     1      -2.840  12.299  20.607  0.00  0.00    +0.000 A 
ATOM     10  C   UNL     1      -3.108  12.871  21.889  0.00  0.00    +0.000 A 
ATOM     11  C   UNL     1      -2.172  12.937  22.917  0.00  0.00    +0.000 A 
ATOM     12  C   UNL     1      -0.908  12.425  22.709  0.00  0.00    +0.000 A 
ATOM     13  C   UNL     1      -0.604  11.841  21.481  0.00  0.00    +0.000 A 
ATOM     14  C   UNL     1      -1.546  11.740  20.416  0.00  0.00    +0.000 A 
ENDROOT
BRANCH   1  16
ATOM     15  N   UNL     1       0.402   9.309  19.416  0.00  0.00    +0.000 NA
ATOM     16  C   UNL     1       0.120  10.509  19.008  0.00  0.00    +0.000 C 
BRANCH  15  18
ATOM     17  C   UNL     1       2.200   9.005  17.909  0.00  0.00    +0.000 C 
ATOM     18  N   UNL     1       1.659   8.813  19.260  0.00  0.00    +0.000 N 
ATOM     19  C   UNL     1       2.101   7.548  19.849  0.00  0.00    +0.000 C 
ENDBRANCH  15  18
ENDBRANCH   1  16
BRANCH   8  20
ATOM     20  C   UNL     1      -5.153  12.818  19.798  0.00  0.00    +0.000 C 
ATOM     21  N   UNL     1      -5.456  14.056  19.566  0.00  0.00    +0.000 NA
BRANCH  21  22
ATOM     22  N   UNL     1      -6.760  14.426  19.624  0.00  0.00    +0.000 N 
ATOM     23  C   UNL     1      -7.455  15.207  18.600  0.00  0.00    +0.000 C 
ATOM     24  C   UNL     1      -7.664  13.424  20.194  0.00  0.00    +0.000 C 
ENDBRANCH  21  22
ENDBRANCH   8  20
TORSDOF 4
ENDMDL
MODEL 6
REMARK VINA RESULT:      -5.7      1.080      3.967
REMARK  Name = 
REMARK  8 active torsions:
REMARK  status: ('A' for Active; 'I' for Inactive)
REMARK    1  A    between atoms: C_1  and  N_2
REMARK    2  A    between atoms: N_2  and  C_3
REMARK    3  A    between atoms: N_2  and  N_4
REMARK    4  A    between atoms: C_5  and  C_6
REMARK    5  A    between atoms: C_13  and  C_14
REMARK    6  A    between atoms: N_15  and  N_16
REMARK    7  A    between atoms: N_16  and  C_17
REMARK    8  A    between atoms: N_16  and  C_18
REMARK                            x       y       z     vdW  Elec       q    Type
REMARK                         _______ _______ _______ _____ _____    ______ ____
ROOT
ATOM      1  C   UNL     1      -4.018  12.528  19.947  0.00  0.00    +0.000 A 
ATOM      2  C   UNL     1      -3.735  11.858  18.713  0.00  0.00    +0.000 A 
ATOM      3  C   UNL     1      -4.658  11.782  17.636  0.00  0.00    +0.000 A 
ATOM      4  C   UNL     1      -4.398  11.097  16.448  0.00  0.00    +0.000 A 
ATOM      5  C   UNL     1      -3.185  10.469  16.294  0.00  0.00    +0.000 A 
ATOM      6  C   UNL     1      -2.242  10.544  17.321  0.00  0.00    +0.000 A 
ATOM      7  C   UNL     1      -2.461  11.251  18.540  0.00  0.00    +0.000 A 
ATOM      8  C   UNL     1      -1.487  11.379  19.583  0.00  0.00    +0.000 A 
ATOM      9  C   UNL     1      -1.760  12.090  20.801  0.00  0.00    +0.000 A 
ATOM     10  C   UNL     1      -0.810  12.297  21.847  0.00  0.00    +0.000 A 
ATOM     11  C   UNL     1      -1.094  12.976  23.028  0.00  0.00    +0.000 A 
ATOM     12  C   UNL     1      -2.361  13.491  23.218  0.00  0.00    +0.000 A 
ATOM     13  C   UNL     1      -3.318  13.330  22.219  0.00  0.00    +0.000 A 
ATOM     14  C   UNL     1      -3.051  12.658  20.991  0.00  0.00    +0.000 A 
ENDROOT
BRANCH   1  16
ATOM     15  N   UNL     1      -5.614  14.388  19.854  0.00  0.00    +0.000 NA
ATOM     16  C   UNL     1      -5.366  13.154  20.173  0.00  0.00    +0.000 C 
BRANCH  15  18
ATOM     17  C   UNL     1      -7.916  14.270  19.320  0.00  0.00    +0.000 C 
ATOM     18  N   UNL     1      -6.846  14.919  20.087  0.00  0.00    +0.000 N 
ATOM     19  C   UNL     1      -7.083  16.353  20.249  0.00  0.00    +0.000 C 
ENDBRANCH  15  18
ENDBRANCH   1  16
BRANCH   8  20
ATOM     20  C   UNL     1      -0.096  10.825  19.421  0.00  0.00    +0.000 C 
ATOM     21  N   UNL     1       0.229   9.614  19.749  0.00  0.00    +0.000 NA
BRANCH  21  22
ATOM     22  N   UNL     1       1.438   9.139  19.359  0.00  0.00    +0.000 N 
ATOM     23  C   UNL     1       1.980   7.830  19.721  0.00  0.00    +0.000 C 
ATOM     24  C   UNL     1       1.827   9.484  17.988  0.00  0.00    +0.000 C 
ENDBRANCH  21  22
ENDBRANCH   8  20
TORSDOF 4
ENDMDL
MODEL 7
REMARK VINA RESULT:      -5.6      1.580      7.280
REMARK  Name = 
REMARK  8 active torsions:
REMARK  status: ('A' for Active; 'I' for Inactive)
REMARK    1  A    between atoms: C_1  and  N_2
REMARK    2  A    between atoms: N_2  and  C_3
REMARK    3  A    between atoms: N_2  and  N_4
REMARK    4  A    between atoms: C_5  and  C_6
REMARK    5  A    between atoms: C_13  and  C_14
REMARK    6  A    between atoms: N_15  and  N_16
REMARK    7  A    between atoms: N_16  and  C_17
REMARK    8  A    between atoms: N_16  and  C_18
REMARK                            x       y       z     vdW  Elec       q    Type
REMARK                         _______ _______ _______ _____ _____    ______ ____
ROOT
ATOM      1  C   UNL     1      -1.480  12.215  19.352  0.00  0.00    +0.000 A 
ATOM      2  C   UNL     1      -2.667  11.863  18.632  0.00  0.00    +0.000 A 
ATOM      3  C   UNL     1      -2.650  11.178  17.388  0.00  0.00    +0.000 A 
ATOM      4  C   UNL     1      -3.803  10.867  16.667  0.00  0.00    +0.000 A 
ATOM      5  C   UNL     1      -5.026  11.226  17.180  0.00  0.00    +0.000 A 
ATOM      6  C   UNL     1      -5.084  11.878  18.413  0.00  0.00    +0.000 A 
ATOM      7  C   UNL     1      -3.931  12.194  19.191  0.00  0.00    +0.000 A 
ATOM      8  C   UNL     1      -3.974  12.818  20.479  0.00  0.00    +0.000 A 
ATOM      9  C   UNL     1      -2.783  13.129  21.219  0.00  0.00    +0.000 A 
ATOM     10  C   UNL     1      -2.770  13.699  22.529  0.00  0.00    +0.000 A 
ATOM     11  C   UNL     1      -1.606  14.008  23.227  0.00  0.00    +0.000 A 
ATOM     12  C   UNL     1      -0.383  13.756  22.638  0.00  0.00    +0.000 A 
ATOM     13  C   UNL     1      -0.344  13.185  21.368  0.00  0.00    +0.000 A 
ATOM     14  C   UNL     1      -1.517  12.838  20.637  0.00  0.00    +0.000 A 
ENDROOT
BRANCH   1  16
ATOM     15  N   UNL     1       0.523  10.824  19.084  0.00  0.00    +0.000 NA
ATOM     16  C   UNL     1      -0.127  11.906  18.774  0.00  0.00    +0.000 C 
BRANCH  15  18
ATOM     17  C   UNL     1       2.385  11.791  17.990  0.00  0.00    +0.000 C 
ATOM     18  N   UNL     1       1.751  10.590  18.547  0.00  0.00    +0.000 N 
ATOM     19  C   UNL     1       2.070   9.394  17.767  0.00  0.00    +0.000 C 
ENDBRANCH  15  18
ENDBRANCH   1  16
BRANCH   8  20
ATOM     20  C   UNL     1      -5.287  13.119  21.154  0.00  0.00    +0.000 C 
ATOM     21  N   UNL     1      -5.869  12.301  21.974  0.00  0.00    +0.000 NA
BRANCH  21  22
ATOM     22  N   UNL     1      -6.923  12.752  22.699  0.00  0.00    +0.000 N 
ATOM     23  C   UNL     1      -7.915  11.899  23.352  0.00  0.00    +0.000 C 
ATOM     24  C   UNL     1      -6.648  13.931  23.527  0.00  0.00    +0.000 C 
ENDBRANCH  21  22
ENDBRANCH   8  20
TORSDOF 4
ENDMDL
MODEL 8
REMARK VINA RESULT:      -5.5      2.588      5.034
REMARK  Name = 
REMARK  8 active torsions:
REMARK  status: ('A' for Active; 'I' for Inactive)
REMARK    1  A    between atoms: C_1  and  N_2
REMARK    2  A    between atoms: N_2  and  C_3
REMARK    3  A    between atoms: N_2  and  N_4
REMARK    4  A    between atoms: C_5  and  C_6
REMARK    5  A    between atoms: C_13  and  C_14
REMARK    6  A    between atoms: N_15  and  N_16
REMARK    7  A    between atoms: N_16  and  C_17
REMARK    8  A    between atoms: N_16  and  C_18
REMARK                            x       y       z     vdW  Elec       q    Type
REMARK                         _______ _______ _______ _____ _____    ______ ____
ROOT
ATOM      1  C   UNL     1      -3.426  12.273  19.813  0.00  0.00    +0.000 A 
ATOM      2  C   UNL     1      -2.363  11.493  19.253  0.00  0.00    +0.000 A 
ATOM      3  C   UNL     1      -1.128  11.266  19.917  0.00  0.00    +0.000 A 
ATOM      4  C   UNL     1      -0.078  10.537  19.358  0.00  0.00    +0.000 A 
ATOM      5  C   UNL     1      -0.237   9.996  18.104  0.00  0.00    +0.000 A 
ATOM      6  C   UNL     1      -1.446  10.176  17.431  0.00  0.00    +0.000 A 
ATOM      7  C   UNL     1      -2.551  10.895  17.978  0.00  0.00    +0.000 A 
ATOM      8  C   UNL     1      -3.816  11.048  17.322  0.00  0.00    +0.000 A 
ATOM      9  C   UNL     1      -4.894  11.795  17.908  0.00  0.00    +0.000 A 
ATOM     10  C   UNL     1      -6.192  11.932  17.326  0.00  0.00    +0.000 A 
ATOM     11  C   UNL     1      -7.223  12.671  17.899  0.00  0.00    +0.000 A 
ATOM     12  C   UNL     1      -7.001  13.314  19.099  0.00  0.00    +0.000 A 
ATOM     13  C   UNL     1      -5.757  13.196  19.715  0.00  0.00    +0.000 A 
ATOM     14  C   UNL     1      -4.689  12.430  19.164  0.00  0.00    +0.000 A 
ENDROOT
BRANCH   1  16
ATOM     15  N   UNL     1      -3.547  12.348  22.262  0.00  0.00    +0.000 NA
ATOM     16  C   UNL     1      -3.247  12.943  21.147  0.00  0.00    +0.000 C 
BRANCH  15  18
ATOM     17  C   UNL     1      -4.265  12.502  24.511  0.00  0.00    +0.000 C 
ATOM     18  N   UNL     1      -3.382  12.995  23.447  0.00  0.00    +0.000 N 
ATOM     19  C   UNL     1      -3.160  14.438  23.548  0.00  0.00    +0.000 C 
ENDBRANCH  15  18
ENDBRANCH   1  16
BRANCH   8  20
ATOM     20  C   UNL     1      -4.097  10.372  16.006  0.00  0.00    +0.000 C 
ATOM     21  N   UNL     1      -3.516  10.705  14.897  0.00  0.00    +0.000 NA
BRANCH  21  22
ATOM     22  N   UNL     1      -3.665   9.896  13.819  0.00  0.00    +0.000 N 
ATOM     23  C   UNL     1      -4.733  10.014  12.826  0.00  0.00    +0.000 C 
ATOM     24  C   UNL     1      -2.415   9.490  13.170  0.00  0.00    +0.000 C 
ENDBRANCH  21  22
ENDBRANCH   8  20
TORSDOF 4
ENDMDL
MODEL 9
REMARK VINA RESULT:      -5.5      2.346      7.443
REMARK  Name = 
REMARK  8 active torsions:
REMARK  status: ('A' for Active; 'I' for Inactive)
REMARK    1  A    between atoms: C_1  and  N_2
REMARK    2  A    between atoms: N_2  and  C_3
REMARK    3  A    between atoms: N_2  and  N_4
REMARK    4  A    between atoms: C_5  and  C_6
REMARK    5  A    between atoms: C_13  and  C_14
REMARK    6  A    between atoms: N_15  and  N_16
REMARK    7  A    between atoms: N_16  and  C_17
REMARK    8  A    between atoms: N_16  and  C_18
REMARK                            x       y       z     vdW  Elec       q    Type
REMARK                         _______ _______ _______ _____ _____    ______ ____
ROOT
ATOM      1  C   UNL     1      -1.115  12.793  20.490  0.00  0.00    +0.000 A 
ATOM      2  C   UNL     1      -1.924  12.250  19.441  0.00  0.00    +0.000 A 
ATOM      3  C   UNL     1      -1.387  11.636  18.278  0.00  0.00    +0.000 A 
ATOM      4  C   UNL     1      -2.173  11.140  17.238  0.00  0.00    +0.000 A 
ATOM      5  C   UNL     1      -3.541  11.235  17.334  0.00  0.00    +0.000 A 
ATOM      6  C   UNL     1      -4.107  11.810  18.473  0.00  0.00    +0.000 A 
ATOM      7  C   UNL     1      -3.339  12.308  19.567  0.00  0.00    +0.000 A 
ATOM      8  C   UNL     1      -3.904  12.856  20.765  0.00  0.00    +0.000 A 
ATOM      9  C   UNL     1      -3.087  13.358  21.834  0.00  0.00    +0.000 A 
ATOM     10  C   UNL     1      -3.595  13.863  23.071  0.00  0.00    +0.000 A 
ATOM     11  C   UNL     1      -2.792  14.360  24.093  0.00  0.00    +0.000 A 
ATOM     12  C   UNL     1      -1.422  14.373  23.923  0.00  0.00    +0.000 A 
ATOM     13  C   UNL     1      -0.878  13.876  22.741  0.00  0.00    +0.000 A 
ATOM     14  C   UNL     1      -1.673  13.342  21.686  0.00  0.00    +0.000 A 
ENDROOT
BRANCH   1  16
ATOM     15  N   UNL     1       1.034  13.685  19.712  0.00  0.00    +0.000 NA
ATOM     16  C   UNL     1       0.384  12.775  20.373  0.00  0.00    +0.000 C 
BRANCH  15  18
ATOM     17  C   UNL     1       3.069  13.746  20.917  0.00  0.00    +0.000 C 
ATOM     18  N   UNL     1       2.390  13.624  19.621  0.00  0.00    +0.000 N 
ATOM     19  C   UNL     1       3.151  14.259  18.545  0.00  0.00    +0.000 C 
ENDBRANCH  15  18
ENDBRANCH   1  16
BRANCH   8  20
ATOM     20  C   UNL     1      -5.393  12.870  20.987  0.00  0.00    +0.000 C 
ATOM     21  N   UNL     1      -6.035  11.903  21.564  0.00  0.00    +0.000 NA
BRANCH  21  22
ATOM     22  N   UNL     1      -7.328  12.105  21.919  0.00  0.00    +0.000 N 
ATOM     23  C   UNL     1      -7.916  11.709  23.199  0.00  0.00    +0.000 C 
ATOM     24  C   UNL     1      -7.903  13.378  21.472  0.00  0.00    +0.000 C 
ENDBRANCH  21  22
ENDBRANCH   8  20
TORSDOF 4
ENDMDL
