MODEL 1
REMARK VINA RESULT:      -7.3      0.000      0.000
REMARK  Name = 
REMARK  4 active torsions:
REMARK  status: ('A' for Active; 'I' for Inactive)
REMARK    1  A    between atoms: C_1  and  C_2
REMARK    2  A    between atoms: C_4  and  C_5
REMARK    3  A    between atoms: C_14  and  C_15
REMARK    4  A    between atoms: C_15  and  N_17
REMARK                            x       y       z     vdW  Elec       q    Type
REMARK                         _______ _______ _______ _____ _____    ______ ____
ROOT
ATOM      1  C   UNL     1       3.542   6.355  18.632  0.00  0.00    +0.000 C 
ATOM      2  C   UNL     1       4.105   5.291  17.774  0.00  0.00    +0.000 A 
ATOM      3  N   UNL     1       4.539   5.538  16.499  0.00  0.00    +0.000 N 
ATOM      4  C   UNL     1       5.091   4.390  15.987  0.00  0.00    +0.000 A 
ATOM      5  N   UNL     1       4.993   3.414  16.872  0.00  0.00    +0.000 NA
ATOM      6  C   UNL     1       4.335   3.939  17.984  0.00  0.00    +0.000 A 
ATOM      7  H   UNL     1       4.504   6.427  16.021  0.00  0.00    +0.000 HD
ENDROOT
BRANCH   4   8
ATOM      8  C   UNL     1       5.740   4.344  14.677  0.00  0.00    +0.000 A 
ATOM      9  C   UNL     1       5.267   3.464  13.696  0.00  0.00    +0.000 A 
ATOM     10  C   UNL     1       5.941   3.344  12.478  0.00  0.00    +0.000 A 
ATOM     11 CL   UNL     1       5.380   2.221  11.300  0.00  0.00    +0.000 Cl
ATOM     12  C   UNL     1       7.076   4.104  12.213  0.00  0.00    +0.000 A 
ATOM     13  C   UNL     1       7.527   5.004  13.172  0.00  0.00    +0.000 A 
ATOM     14 CL   UNL     1       8.929   5.955  12.866  0.00  0.00    +0.000 Cl
ATOM     15  C   UNL     1       6.867   5.132  14.394  0.00  0.00    +0.000 A 
ENDBRANCH   4   8
BRANCH   6  16
ATOM     16  C   UNL     1       3.927   3.168  19.170  0.00  0.00    +0.000 C 
ATOM     17  O   UNL     1       4.748   2.735  19.983  0.00  0.00    +0.000 OA
BRANCH  16  18
ATOM     18  N   UNL     1       2.578   2.930  19.217  0.00  0.00    +0.000 NA
ATOM     19  C   UNL     1       1.913   3.376  20.228  0.00  0.00    +0.000 C 
ATOM     20  N   UNL     1       2.340   4.134  21.264  0.00  0.00    +0.000 N 
ATOM     21  N   UNL     1       0.587   3.128  20.310  0.00  0.00    +0.000 N 
ATOM     22  H   UNL     1       3.352   4.158  21.378  0.00  0.00    +0.000 HD
ATOM     23  H   UNL     1       1.859   4.030  22.145  0.00  0.00    +0.000 HD
ATOM     24  H   UNL     1       0.292   2.411  19.654  0.00  0.00    +0.000 HD
ATOM     25  H   UNL     1       0.197   3.003  21.231  0.00  0.00    +0.000 HD
ENDBRANCH  16  18
ENDBRANCH   6  16
TORSDOF 3
ENDMDL
MODEL 2
REMARK VINA RESULT:      -7.2      4.225      7.231
REMARK  Name = 
REMARK  4 active torsions:
REMARK  status: ('A' for Active; 'I' for Inactive)
REMARK    1  A    between atoms: C_1  and  C_2
REMARK    2  A    between atoms: C_4  and  C_5
REMARK    3  A    between atoms: C_14  and  C_15
REMARK    4  A    between atoms: C_15  and  N_17
REMARK                            x       y       z     vdW  Elec       q    Type
REMARK                         _______ _______ _______ _____ _____    ______ ____
ROOT
ATOM      1  C   UNL     1       7.648   7.130  17.091  0.00  0.00    +0.000 C 
ATOM      2  C   UNL     1       6.501   6.203  16.999  0.00  0.00    +0.000 A 
ATOM      3  N   UNL     1       5.536   6.139  17.968  0.00  0.00    +0.000 N 
ATOM      4  C   UNL     1       4.559   5.263  17.566  0.00  0.00    +0.000 A 
ATOM      5  N   UNL     1       4.881   4.740  16.397  0.00  0.00    +0.000 NA
ATOM      6  C   UNL     1       6.118   5.276  16.040  0.00  0.00    +0.000 A 
ATOM      7  H   UNL     1       5.516   6.679  18.822  0.00  0.00    +0.000 HD
ENDROOT
BRANCH   4   8
ATOM      8  C   UNL     1       3.334   5.043  18.335  0.00  0.00    +0.000 A 
ATOM      9  C   UNL     1       2.911   6.003  19.262  0.00  0.00    +0.000 A 
ATOM     10  C   UNL     1       1.799   5.756  20.070  0.00  0.00    +0.000 A 
ATOM     11 CL   UNL     1       1.318   6.922  21.241  0.00  0.00    +0.000 Cl
ATOM     12  C   UNL     1       1.084   4.566  19.956  0.00  0.00    +0.000 A 
ATOM     13  C   UNL     1       1.481   3.627  19.012  0.00  0.00    +0.000 A 
ATOM     14 CL   UNL     1       0.613   2.149  18.852  0.00  0.00    +0.000 Cl
ATOM     15  C   UNL     1       2.593   3.858  18.201  0.00  0.00    +0.000 A 
ENDBRANCH   4   8
BRANCH   6  16
ATOM     16  C   UNL     1       6.898   4.890  14.852  0.00  0.00    +0.000 C 
ATOM     17  O   UNL     1       7.895   5.520  14.491  0.00  0.00    +0.000 OA
BRANCH  16  18
ATOM     18  N   UNL     1       6.354   3.830  14.175  0.00  0.00    +0.000 NA
ATOM     19  C   UNL     1       6.553   3.749  12.902  0.00  0.00    +0.000 C 
ATOM     20  N   UNL     1       7.301   4.543  12.103  0.00  0.00    +0.000 N 
ATOM     21  N   UNL     1       6.003   2.728  12.209  0.00  0.00    +0.000 N 
ATOM     22  H   UNL     1       7.546   5.443  12.516  0.00  0.00    +0.000 HD
ATOM     23  H   UNL     1       7.019   4.631  11.138  0.00  0.00    +0.000 HD
ATOM     24  H   UNL     1       5.293   2.240  12.748  0.00  0.00    +0.000 HD
ATOM     25  H   UNL     1       5.717   2.915  11.261  0.00  0.00    +0.000 HD
ENDBRANCH  16  18
ENDBRANCH   6  16
TORSDOF 3
ENDMDL
MODEL 3
REMARK VINA RESULT:      -7.2      6.035      7.926
REMARK  Name = 
REMARK  4 active torsions:
REMARK  status: ('A' for Active; 'I' for Inactive)
REMARK    1  A    between atoms: C_1  and  C_2
REMARK    2  A    between atoms: C_4  and  C_5
REMARK    3  A    between atoms: C_14  and  C_15
REMARK    4  A    between atoms: C_15  and  N_17
REMARK                            x       y       z     vdW  Elec       q    Type
REMARK                         _______ _______ _______ _____ _____    ______ ____
ROOT
ATOM      1  C   UNL     1       7.934   5.216  18.840  0.00  0.00    +0.000 C 
ATOM      2  C   UNL     1       7.834   6.633  18.434  0.00  0.00    +0.000 A 
ATOM      3  N   UNL     1       8.592   7.613  19.016  0.00  0.00    +0.000 N 
ATOM      4  C   UNL     1       8.351   8.803  18.374  0.00  0.00    +0.000 A 
ATOM      5  N   UNL     1       7.443   8.626  17.432  0.00  0.00    +0.000 NA
ATOM      6  C   UNL     1       7.066   7.284  17.479  0.00  0.00    +0.000 A 
ATOM      7  H   UNL     1       9.256   7.483  19.766  0.00  0.00    +0.000 HD
ENDROOT
BRANCH   4   8
ATOM      8  C   UNL     1       9.080  10.030  18.692  0.00  0.00    +0.000 A 
ATOM      9  C   UNL     1       9.109  10.504  20.009  0.00  0.00    +0.000 A 
ATOM     10  C   UNL     1       9.718  11.725  20.303  0.00  0.00    +0.000 A 
ATOM     11 CL   UNL     1       9.704  12.320  21.918  0.00  0.00    +0.000 Cl
ATOM     12  C   UNL     1      10.320  12.482  19.301  0.00  0.00    +0.000 A 
ATOM     13  C   UNL     1      10.322  11.998  17.997  0.00  0.00    +0.000 A 
ATOM     14 CL   UNL     1      11.060  12.915  16.742  0.00  0.00    +0.000 Cl
ATOM     15  C   UNL     1       9.714  10.781  17.688  0.00  0.00    +0.000 A 
ENDBRANCH   4   8
BRANCH   6  16
ATOM     16  C   UNL     1       6.002   6.674  16.664  0.00  0.00    +0.000 C 
ATOM     17  O   UNL     1       4.809   6.782  16.959  0.00  0.00    +0.000 OA
BRANCH  16  18
ATOM     18  N   UNL     1       6.485   5.930  15.619  0.00  0.00    +0.000 NA
ATOM     19  C   UNL     1       6.258   4.660  15.615  0.00  0.00    +0.000 C 
ATOM     20  N   UNL     1       5.528   3.920  16.481  0.00  0.00    +0.000 N 
ATOM     21  N   UNL     1       6.749   3.903  14.609  0.00  0.00    +0.000 N 
ATOM     22  H   UNL     1       5.330   4.384  17.366  0.00  0.00    +0.000 HD
ATOM     23  H   UNL     1       5.794   2.955  16.607  0.00  0.00    +0.000 HD
ATOM     24  H   UNL     1       7.448   4.399  14.064  0.00  0.00    +0.000 HD
ATOM     25  H   UNL     1       7.024   2.959  14.834  0.00  0.00    +0.000 HD
ENDBRANCH  16  18
ENDBRANCH   6  16
TORSDOF 3
ENDMDL
MODEL 4
REMARK VINA RESULT:      -7.2      4.217      6.992
REMARK  Name = 
REMARK  4 active torsions:
REMARK  status: ('A' for Active; 'I' for Inactive)
REMARK    1  A    between atoms: C_1  and  C_2
REMARK    2  A    between atoms: C_4  and  C_5
REMARK    3  A    between atoms: C_14  and  C_15
REMARK    4  A    between atoms: C_15  and  N_17
REMARK                            x       y       z     vdW  Elec       q    Type
REMARK                         _______ _______ _______ _____ _____    ______ ____
ROOT
ATOM      1  C   UNL     1       7.663   7.090  17.082  0.00  0.00    +0.000 C 
ATOM      2  C   UNL     1       6.524   6.149  17.033  0.00  0.00    +0.000 A 
ATOM      3  N   UNL     1       5.611   6.056  18.048  0.00  0.00    +0.000 N 
ATOM      4  C   UNL     1       4.625   5.173  17.681  0.00  0.00    +0.000 A 
ATOM      5  N   UNL     1       4.895   4.674  16.489  0.00  0.00    +0.000 NA
ATOM      6  C   UNL     1       6.105   5.232  16.079  0.00  0.00    +0.000 A 
ATOM      7  H   UNL     1       5.627   6.582  18.911  0.00  0.00    +0.000 HD
ENDROOT
BRANCH   4   8
ATOM      8  C   UNL     1       3.444   4.925  18.506  0.00  0.00    +0.000 A 
ATOM      9  C   UNL     1       2.718   3.738  18.346  0.00  0.00    +0.000 A 
ATOM     10  C   UNL     1       1.534   3.538  19.059  0.00  0.00    +0.000 A 
ATOM     11 CL   UNL     1       0.625   2.097  18.816  0.00  0.00    +0.000 Cl
ATOM     12  C   UNL     1       1.067   4.500  19.950  0.00  0.00    +0.000 A 
ATOM     13  C   UNL     1       1.803   5.664  20.137  0.00  0.00    +0.000 A 
ATOM     14 CL   UNL     1       1.245   6.868  21.233  0.00  0.00    +0.000 Cl
ATOM     15  C   UNL     1       2.986   5.880  19.428  0.00  0.00    +0.000 A 
ENDBRANCH   4   8
BRANCH   6  16
ATOM     16  C   UNL     1       6.829   4.876  14.847  0.00  0.00    +0.000 C 
ATOM     17  O   UNL     1       7.798   5.526  14.446  0.00  0.00    +0.000 OA
BRANCH  16  18
ATOM     18  N   UNL     1       6.267   3.818  14.181  0.00  0.00    +0.000 NA
ATOM     19  C   UNL     1       6.484   3.707  12.914  0.00  0.00    +0.000 C 
ATOM     20  N   UNL     1       7.268   4.463  12.113  0.00  0.00    +0.000 N 
ATOM     21  N   UNL     1       5.916   2.688  12.232  0.00  0.00    +0.000 N 
ATOM     22  H   UNL     1       7.532   5.363  12.512  0.00  0.00    +0.000 HD
ATOM     23  H   UNL     1       7.005   4.539  11.142  0.00  0.00    +0.000 HD
ATOM     24  H   UNL     1       5.184   2.231  12.768  0.00  0.00    +0.000 HD
ATOM     25  H   UNL     1       5.652   2.864  11.275  0.00  0.00    +0.000 HD
ENDBRANCH  16  18
ENDBRANCH   6  16
TORSDOF 3
ENDMDL
MODEL 5
REMARK VINA RESULT:      -7.1      1.404      2.716
REMARK  Name = 
REMARK  4 active torsions:
REMARK  status: ('A' for Active; 'I' for Inactive)
REMARK    1  A    between atoms: C_1  and  C_2
REMARK    2  A    between atoms: C_4  and  C_5
REMARK    3  A    between atoms: C_14  and  C_15
REMARK    4  A    between atoms: C_15  and  N_17
REMARK                            x       y       z     vdW  Elec       q    Type
REMARK                         _______ _______ _______ _____ _____    ______ ____
ROOT
ATOM      1  C   UNL     1       3.804   7.059  18.236  0.00  0.00    +0.000 C 
ATOM      2  C   UNL     1       4.161   5.862  17.445  0.00  0.00    +0.000 A 
ATOM      3  N   UNL     1       4.788   5.952  16.232  0.00  0.00    +0.000 N 
ATOM      4  C   UNL     1       5.073   4.686  15.782  0.00  0.00    +0.000 A 
ATOM      5  N   UNL     1       4.619   3.794  16.645  0.00  0.00    +0.000 NA
ATOM      6  C   UNL     1       4.000   4.503  17.673  0.00  0.00    +0.000 A 
ATOM      7  H   UNL     1       5.045   6.807  15.757  0.00  0.00    +0.000 HD
ENDROOT
BRANCH   4   8
ATOM      8  C   UNL     1       5.832   4.437  14.558  0.00  0.00    +0.000 A 
ATOM      9  C   UNL     1       6.962   5.212  14.268  0.00  0.00    +0.000 A 
ATOM     10  C   UNL     1       7.633   5.046  13.055  0.00  0.00    +0.000 A 
ATOM     11 CL   UNL     1       8.991   6.040  12.688  0.00  0.00    +0.000 Cl
ATOM     12  C   UNL     1       7.206   4.103  12.125  0.00  0.00    +0.000 A 
ATOM     13  C   UNL     1       6.105   3.308  12.425  0.00  0.00    +0.000 A 
ATOM     14 CL   UNL     1       5.558   2.134  11.291  0.00  0.00    +0.000 Cl
ATOM     15  C   UNL     1       5.422   3.465  13.631  0.00  0.00    +0.000 A 
ENDBRANCH   4   8
BRANCH   6  16
ATOM     16  C   UNL     1       3.269   3.898  18.799  0.00  0.00    +0.000 C 
ATOM     17  O   UNL     1       2.038   3.939  18.878  0.00  0.00    +0.000 OA
BRANCH  16  18
ATOM     18  N   UNL     1       4.097   3.371  19.756  0.00  0.00    +0.000 NA
ATOM     19  C   UNL     1       4.405   2.120  19.677  0.00  0.00    +0.000 C 
ATOM     20  N   UNL     1       4.083   1.220  18.721  0.00  0.00    +0.000 N 
ATOM     21  N   UNL     1       5.197   1.573  20.625  0.00  0.00    +0.000 N 
ATOM     22  H   UNL     1       3.314   1.507  18.115  0.00  0.00    +0.000 HD
ATOM     23  H   UNL     1       4.009   0.253  18.998  0.00  0.00    +0.000 HD
ATOM     24  H   UNL     1       5.289   2.173  21.439  0.00  0.00    +0.000 HD
ATOM     25  H   UNL     1       5.029   0.608  20.866  0.00  0.00    +0.000 HD
ENDBRANCH  16  18
ENDBRANCH   6  16
TORSDOF 3
ENDMDL
MODEL 6
REMARK VINA RESULT:      -7.1      4.992      7.372
REMARK  Name = 
REMARK  4 active torsions:
REMARK  status: ('A' for Active; 'I' for Inactive)
REMARK    1  A    between atoms: C_1  and  C_2
REMARK    2  A    between atoms: C_4  and  C_5
REMARK    3  A    between atoms: C_14  and  C_15
REMARK    4  A    between atoms: C_15  and  N_17
REMARK                            x       y       z     vdW  Elec       q    Type
REMARK                         _______ _______ _______ _____ _____    ______ ____
ROOT
ATOM      1  C   UNL     1       4.917   6.505  16.226  0.00  0.00    +0.000 C 
ATOM      2  C   UNL     1       4.139   6.575  17.481  0.00  0.00    +0.000 A 
ATOM      3  N   UNL     1       3.345   7.646  17.788  0.00  0.00    +0.000 N 
ATOM      4  C   UNL     1       2.682   7.388  18.962  0.00  0.00    +0.000 A 
ATOM      5  N   UNL     1       3.050   6.209  19.432  0.00  0.00    +0.000 NA
ATOM      6  C   UNL     1       3.999   5.698  18.548  0.00  0.00    +0.000 A 
ATOM      7  H   UNL     1       3.226   8.478  17.226  0.00  0.00    +0.000 HD
ENDROOT
BRANCH   4   8
ATOM      8  C   UNL     1       1.677   8.294  19.515  0.00  0.00    +0.000 A 
ATOM      9  C   UNL     1       1.027   9.210  18.677  0.00  0.00    +0.000 A 
ATOM     10  C   UNL     1       0.139  10.144  19.215  0.00  0.00    +0.000 A 
ATOM     11 CL   UNL     1      -0.615  11.296  18.182  0.00  0.00    +0.000 Cl
ATOM     12  C   UNL     1      -0.127  10.172  20.581  0.00  0.00    +0.000 A 
ATOM     13  C   UNL     1       0.490   9.243  21.410  0.00  0.00    +0.000 A 
ATOM     14 CL   UNL     1       0.175   9.257  23.102  0.00  0.00    +0.000 Cl
ATOM     15  C   UNL     1       1.382   8.305  20.888  0.00  0.00    +0.000 A 
ENDBRANCH   4   8
BRANCH   6  16
ATOM     16  C   UNL     1       4.749   4.446  18.740  0.00  0.00    +0.000 C 
ATOM     17  O   UNL     1       5.852   4.422  19.293  0.00  0.00    +0.000 OA
BRANCH  16  18
ATOM     18  N   UNL     1       4.131   3.358  18.181  0.00  0.00    +0.000 NA
ATOM     19  C   UNL     1       3.620   2.472  18.967  0.00  0.00    +0.000 C 
ATOM     20  N   UNL     1       3.532   2.478  20.316  0.00  0.00    +0.000 N 
ATOM     21  N   UNL     1       3.030   1.378  18.437  0.00  0.00    +0.000 N 
ATOM     22  H   UNL     1       4.149   3.148  20.775  0.00  0.00    +0.000 HD
ATOM     23  H   UNL     1       3.523   1.584  20.786  0.00  0.00    +0.000 HD
ATOM     24  H   UNL     1       3.252   1.264  17.453  0.00  0.00    +0.000 HD
ATOM     25  H   UNL     1       3.102   0.517  18.958  0.00  0.00    +0.000 HD
ENDBRANCH  16  18
ENDBRANCH   6  16
TORSDOF 3
ENDMDL
MODEL 7
REMARK VINA RESULT:      -7.1      1.302      1.560
REMARK  Name = 
REMARK  4 active torsions:
REMARK  status: ('A' for Active; 'I' for Inactive)
REMARK    1  A    between atoms: C_1  and  C_2
REMARK    2  A    between atoms: C_4  and  C_5
REMARK    3  A    between atoms: C_14  and  C_15
REMARK    4  A    between atoms: C_15  and  N_17
REMARK                            x       y       z     vdW  Elec       q    Type
REMARK                         _______ _______ _______ _____ _____    ______ ____
ROOT
ATOM      1  C   UNL     1       6.857   5.495  19.468  0.00  0.00    +0.000 C 
ATOM      2  C   UNL     1       6.270   4.865  18.266  0.00  0.00    +0.000 A 
ATOM      3  N   UNL     1       6.699   5.168  17.002  0.00  0.00    +0.000 N 
ATOM      4  C   UNL     1       6.040   4.365  16.104  0.00  0.00    +0.000 A 
ATOM      5  N   UNL     1       5.183   3.590  16.744  0.00  0.00    +0.000 NA
ATOM      6  C   UNL     1       5.273   3.916  18.096  0.00  0.00    +0.000 A 
ATOM      7  H   UNL     1       7.415   5.840  16.762  0.00  0.00    +0.000 HD
ENDROOT
BRANCH   4   8
ATOM      8  C   UNL     1       6.343   4.370  14.673  0.00  0.00    +0.000 A 
ATOM      9  C   UNL     1       5.739   3.430  13.829  0.00  0.00    +0.000 A 
ATOM     10  C   UNL     1       6.098   3.365  12.481  0.00  0.00    +0.000 A 
ATOM     11 CL   UNL     1       5.386   2.172  11.465  0.00  0.00    +0.000 Cl
ATOM     12  C   UNL     1       7.042   4.240  11.951  0.00  0.00    +0.000 A 
ATOM     13  C   UNL     1       7.618   5.197  12.779  0.00  0.00    +0.000 A 
ATOM     14 CL   UNL     1       8.787   6.289  12.145  0.00  0.00    +0.000 Cl
ATOM     15  C   UNL     1       7.272   5.271  14.128  0.00  0.00    +0.000 A 
ENDBRANCH   4   8
BRANCH   6  16
ATOM     16  C   UNL     1       4.419   3.361  19.160  0.00  0.00    +0.000 C 
ATOM     17  O   UNL     1       4.865   2.608  20.030  0.00  0.00    +0.000 OA
BRANCH  16  18
ATOM     18  N   UNL     1       3.100   3.706  19.025  0.00  0.00    +0.000 NA
ATOM     19  C   UNL     1       2.260   2.791  18.675  0.00  0.00    +0.000 C 
ATOM     20  N   UNL     1       2.470   1.470  18.476  0.00  0.00    +0.000 N 
ATOM     21  N   UNL     1       0.959   3.116  18.509  0.00  0.00    +0.000 N 
ATOM     22  H   UNL     1       3.450   1.213  18.363  0.00  0.00    +0.000 HD
ATOM     23  H   UNL     1       1.873   0.999  17.813  0.00  0.00    +0.000 HD
ATOM     24  H   UNL     1       0.818   4.120  18.466  0.00  0.00    +0.000 HD
ATOM     25  H   UNL     1       0.446   2.617  17.798  0.00  0.00    +0.000 HD
ENDBRANCH  16  18
ENDBRANCH   6  16
TORSDOF 3
ENDMDL
MODEL 8
REMARK VINA RESULT:      -7.0      4.959      7.897
REMARK  Name = 
REMARK  4 active torsions:
REMARK  status: ('A' for Active; 'I' for Inactive)
REMARK    1  A    between atoms: C_1  and  C_2
REMARK    2  A    between atoms: C_4  and  C_5
REMARK    3  A    between atoms: C_14  and  C_15
REMARK    4  A    between atoms: C_15  and  N_17
REMARK                            x       y       z     vdW  Elec       q    Type
REMARK                         _______ _______ _______ _____ _____    ______ ____
ROOT
ATOM      1  C   UNL     1       2.602   2.990  21.196  0.00  0.00    +0.000 C 
ATOM      2  C   UNL     1       2.653   4.300  20.513  0.00  0.00    +0.000 A 
ATOM      3  N   UNL     1       1.852   5.346  20.884  0.00  0.00    +0.000 N 
ATOM      4  C   UNL     1       2.186   6.449  20.138  0.00  0.00    +0.000 A 
ATOM      5  N   UNL     1       3.143   6.136  19.282  0.00  0.00    +0.000 NA
ATOM      6  C   UNL     1       3.422   4.782  19.464  0.00  0.00    +0.000 A 
ATOM      7  H   UNL     1       1.156   5.331  21.616  0.00  0.00    +0.000 HD
ENDROOT
BRANCH   4   8
ATOM      8  C   UNL     1       1.582   7.763  20.359  0.00  0.00    +0.000 A 
ATOM      9  C   UNL     1       1.654   8.741  19.359  0.00  0.00    +0.000 A 
ATOM     10  C   UNL     1       1.167  10.027  19.601  0.00  0.00    +0.000 A 
ATOM     11 CL   UNL     1       1.306  11.235  18.382  0.00  0.00    +0.000 Cl
ATOM     12  C   UNL     1       0.589  10.354  20.824  0.00  0.00    +0.000 A 
ATOM     13  C   UNL     1       0.485   9.375  21.806  0.00  0.00    +0.000 A 
ATOM     14 CL   UNL     1      -0.226   9.755  23.326  0.00  0.00    +0.000 Cl
ATOM     15  C   UNL     1       0.971   8.086  21.581  0.00  0.00    +0.000 A 
ENDBRANCH   4   8
BRANCH   6  16
ATOM     16  C   UNL     1       4.358   3.993  18.647  0.00  0.00    +0.000 C 
ATOM     17  O   UNL     1       3.968   3.201  17.785  0.00  0.00    +0.000 OA
BRANCH  16  18
ATOM     18  N   UNL     1       5.669   4.180  19.001  0.00  0.00    +0.000 NA
ATOM     19  C   UNL     1       6.504   4.546  18.088  0.00  0.00    +0.000 C 
ATOM     20  N   UNL     1       6.271   4.854  16.792  0.00  0.00    +0.000 N 
ATOM     21  N   UNL     1       7.807   4.709  18.409  0.00  0.00    +0.000 N 
ATOM     22  H   UNL     1       5.369   4.535  16.440  0.00  0.00    +0.000 HD
ATOM     23  H   UNL     1       7.018   4.691  16.133  0.00  0.00    +0.000 HD
ATOM     24  H   UNL     1       8.031   4.304  19.313  0.00  0.00    +0.000 HD
ATOM     25  H   UNL     1       8.488   4.487  17.699  0.00  0.00    +0.000 HD
ENDBRANCH  16  18
ENDBRANCH   6  16
TORSDOF 3
ENDMDL
MODEL 9
REMARK VINA RESULT:      -7.0      5.049      7.438
REMARK  Name = 
REMARK  4 active torsions:
REMARK  status: ('A' for Active; 'I' for Inactive)
REMARK    1  A    between atoms: C_1  and  C_2
REMARK    2  A    between atoms: C_4  and  C_5
REMARK    3  A    between atoms: C_14  and  C_15
REMARK    4  A    between atoms: C_15  and  N_17
REMARK                            x       y       z     vdW  Elec       q    Type
REMARK                         _______ _______ _______ _____ _____    ______ ____
ROOT
ATOM      1  C   UNL     1       4.892   6.463  16.399  0.00  0.00    +0.000 C 
ATOM      2  C   UNL     1       4.036   6.553  17.601  0.00  0.00    +0.000 A 
ATOM      3  N   UNL     1       3.336   7.686  17.913  0.00  0.00    +0.000 N 
ATOM      4  C   UNL     1       2.565   7.443  19.023  0.00  0.00    +0.000 A 
ATOM      5  N   UNL     1       2.776   6.211  19.450  0.00  0.00    +0.000 NA
ATOM      6  C   UNL     1       3.730   5.646  18.605  0.00  0.00    +0.000 A 
ATOM      7  H   UNL     1       3.343   8.552  17.391  0.00  0.00    +0.000 HD
ENDROOT
BRANCH   4   8
ATOM      8  C   UNL     1       1.620   8.423  19.557  0.00  0.00    +0.000 A 
ATOM      9  C   UNL     1       1.350   8.455  20.930  0.00  0.00    +0.000 A 
ATOM     10  C   UNL     1       0.377   9.321  21.433  0.00  0.00    +0.000 A 
ATOM     11 CL   UNL     1       0.019   9.316  23.117  0.00  0.00    +0.000 Cl
ATOM     12  C   UNL     1      -0.325  10.174  20.587  0.00  0.00    +0.000 A 
ATOM     13  C   UNL     1      -0.035  10.169  19.228  0.00  0.00    +0.000 A 
ATOM     14 CL   UNL     1      -0.890  11.216  18.163  0.00  0.00    +0.000 Cl
ATOM     15  C   UNL     1       0.932   9.307  18.710  0.00  0.00    +0.000 A 
ENDBRANCH   4   8
BRANCH   6  16
ATOM     16  C   UNL     1       4.333   4.313  18.778  0.00  0.00    +0.000 C 
ATOM     17  O   UNL     1       5.458   4.161  19.261  0.00  0.00    +0.000 OA
BRANCH  16  18
ATOM     18  N   UNL     1       3.551   3.303  18.281  0.00  0.00    +0.000 NA
ATOM     19  C   UNL     1       2.932   2.540  19.117  0.00  0.00    +0.000 C 
ATOM     20  N   UNL     1       2.873   2.623  20.466  0.00  0.00    +0.000 N 
ATOM     21  N   UNL     1       2.179   1.520  18.651  0.00  0.00    +0.000 N 
ATOM     22  H   UNL     1       3.590   3.216  20.882  0.00  0.00    +0.000 HD
ATOM     23  H   UNL     1       2.743   1.764  20.980  0.00  0.00    +0.000 HD
ATOM     24  H   UNL     1       2.362   1.327  17.671  0.00  0.00    +0.000 HD
ATOM     25  H   UNL     1       2.134   0.684  19.214  0.00  0.00    +0.000 HD
ENDBRANCH  16  18
ENDBRANCH   6  16
TORSDOF 3
ENDMDL
