MODEL 1
REMARK VINA RESULT:      -7.9      0.000      0.000
REMARK  Name = 
REMARK  10 active torsions:
REMARK  status: ('A' for Active; 'I' for Inactive)
REMARK    1  A    between atoms: C_1  and  C_2
REMARK    2  A    between atoms: C_2  and  C_3
REMARK    3  A    between atoms: N_6  and  C_7
REMARK    4  A    between atoms: C_9  and  C_10
REMARK    5  A    between atoms: C_10  and  C_12
REMARK    6  A    between atoms: C_13  and  C_14
REMARK    7  A    between atoms: C_21  and  O_22
REMARK    8  A    between atoms: O_22  and  C_23
REMARK    9  A    between atoms: C_25  and  O_26
REMARK   10  A    between atoms: O_26  and  C_27
REMARK                            x       y       z     vdW  Elec       q    Type
REMARK                         _______ _______ _______ _____ _____    ______ ____
ROOT
ATOM      1  C   UNL     1       3.645   6.210  17.999  0.00  0.00    +0.000 A 
ATOM      2  C   UNL     1       3.005   7.448  17.703  0.00  0.00    +0.000 A 
ATOM      3  C   UNL     1       2.176   8.147  18.592  0.00  0.00    +0.000 A 
ATOM      4  C   UNL     1       1.932   7.590  19.835  0.00  0.00    +0.000 A 
ATOM      5  C   UNL     1       2.574   6.410  20.185  0.00  0.00    +0.000 A 
ATOM      6  C   UNL     1       3.420   5.698  19.311  0.00  0.00    +0.000 A 
ENDROOT
BRANCH   1  10
ATOM      7  C   UNL     1       6.293   4.178  15.298  0.00  0.00    +0.000 C 
ATOM      8  C   UNL     1       5.441   3.470  16.363  0.00  0.00    +0.000 C 
ATOM      9  C   UNL     1       4.116   4.196  16.600  0.00  0.00    +0.000 C 
ATOM     10  N   UNL     1       4.355   5.607  16.954  0.00  0.00    +0.000 N 
ATOM     11  C   UNL     1       5.163   6.367  15.994  0.00  0.00    +0.000 C 
ATOM     12  C   UNL     1       6.491   5.641  15.740  0.00  0.00    +0.000 C 
BRANCH   7  14
ATOM     13  C   UNL     1       6.662   3.931  12.764  0.00  0.00    +0.000 C 
ATOM     14  C   UNL     1       5.656   4.015  13.903  0.00  0.00    +0.000 C 
ENDBRANCH   7  14
ENDBRANCH   1  10
BRANCH   3  15
ATOM     15  C   UNL     1       1.673   9.503  18.196  0.00  0.00    +0.000 C 
ATOM     16  O   UNL     1       2.460  10.424  17.934  0.00  0.00    +0.000 OA
BRANCH  15  17
ATOM     17  C   UNL     1       0.202   9.692  18.062  0.00  0.00    +0.000 C 
ATOM     18  C   UNL     1      -0.461  10.755  18.568  0.00  0.00    +0.000 C 
BRANCH  18  19
ATOM     19  C   UNL     1      -1.917  10.918  18.401  0.00  0.00    +0.000 A 
ATOM     20  C   UNL     1      -2.621  10.050  17.557  0.00  0.00    +0.000 A 
ATOM     21  C   UNL     1      -4.007  10.183  17.388  0.00  0.00    +0.000 A 
ATOM     22  C   UNL     1      -4.700  11.176  18.077  0.00  0.00    +0.000 A 
ATOM     23 CL   UNL     1      -6.400  11.338  17.876  0.00  0.00    +0.000 Cl
ATOM     24  C   UNL     1      -4.021  12.037  18.931  0.00  0.00    +0.000 A 
ATOM     25  C   UNL     1      -2.639  11.905  19.094  0.00  0.00    +0.000 A 
ENDBRANCH  18  19
ENDBRANCH  15  17
ENDBRANCH   3  15
BRANCH   4  26
ATOM     26  O   UNL     1       0.985   8.168  20.640  0.00  0.00    +0.000 OA
ATOM     27  C   UNL     1       1.448   8.909  21.762  0.00  0.00    +0.000 C 
ENDBRANCH   4  26
BRANCH   6  28
ATOM     28  O   UNL     1       4.057   4.560  19.781  0.00  0.00    +0.000 OA
ATOM     29  C   UNL     1       3.192   3.472  20.172  0.00  0.00    +0.000 C 
ENDBRANCH   6  28
TORSDOF 7
ENDMDL
MODEL 2
REMARK VINA RESULT:      -7.8      1.084      1.483
REMARK  Name = 
REMARK  10 active torsions:
REMARK  status: ('A' for Active; 'I' for Inactive)
REMARK    1  A    between atoms: C_1  and  C_2
REMARK    2  A    between atoms: C_2  and  C_3
REMARK    3  A    between atoms: N_6  and  C_7
REMARK    4  A    between atoms: C_9  and  C_10
REMARK    5  A    between atoms: C_10  and  C_12
REMARK    6  A    between atoms: C_13  and  C_14
REMARK    7  A    between atoms: C_21  and  O_22
REMARK    8  A    between atoms: O_22  and  C_23
REMARK    9  A    between atoms: C_25  and  O_26
REMARK   10  A    between atoms: O_26  and  C_27
REMARK                            x       y       z     vdW  Elec       q    Type
REMARK                         _______ _______ _______ _____ _____    ______ ____
ROOT
ATOM      1  C   UNL     1       2.869   6.858  18.680  0.00  0.00    +0.000 A 
ATOM      2  C   UNL     1       2.459   8.163  18.276  0.00  0.00    +0.000 A 
ATOM      3  C   UNL     1       1.614   8.997  19.023  0.00  0.00    +0.000 A 
ATOM      4  C   UNL     1       1.115   8.519  20.221  0.00  0.00    +0.000 A 
ATOM      5  C   UNL     1       1.526   7.274  20.677  0.00  0.00    +0.000 A 
ATOM      6  C   UNL     1       2.384   6.425  19.948  0.00  0.00    +0.000 A 
ENDROOT
BRANCH   1  10
ATOM      7  C   UNL     1       5.569   4.390  16.432  0.00  0.00    +0.000 C 
ATOM      8  C   UNL     1       4.465   3.843  17.351  0.00  0.00    +0.000 C 
ATOM      9  C   UNL     1       3.244   4.762  17.376  0.00  0.00    +0.000 C 
ATOM     10  N   UNL     1       3.634   6.131  17.759  0.00  0.00    +0.000 N 
ATOM     11  C   UNL     1       4.686   6.739  16.938  0.00  0.00    +0.000 C 
ATOM     12  C   UNL     1       5.913   5.818  16.896  0.00  0.00    +0.000 C 
BRANCH   7  14
ATOM     13  C   UNL     1       6.266   3.923  14.000  0.00  0.00    +0.000 C 
ATOM     14  C   UNL     1       5.139   4.288  14.954  0.00  0.00    +0.000 C 
ENDBRANCH   7  14
ENDBRANCH   1  10
BRANCH   3  15
ATOM     15  C   UNL     1       1.370  10.395  18.540  0.00  0.00    +0.000 C 
ATOM     16  O   UNL     1       2.310  11.125  18.194  0.00  0.00    +0.000 OA
BRANCH  15  17
ATOM     17  C   UNL     1      -0.041  10.859  18.425  0.00  0.00    +0.000 C 
ATOM     18  C   UNL     1      -0.975  10.224  17.683  0.00  0.00    +0.000 C 
BRANCH  18  19
ATOM     19  C   UNL     1      -2.367  10.702  17.606  0.00  0.00    +0.000 A 
ATOM     20  C   UNL     1      -2.935  11.368  18.700  0.00  0.00    +0.000 A 
ATOM     21  C   UNL     1      -4.256  11.837  18.646  0.00  0.00    +0.000 A 
ATOM     22  C   UNL     1      -5.011  11.658  17.490  0.00  0.00    +0.000 A 
ATOM     23 CL   UNL     1      -6.629  12.236  17.419  0.00  0.00    +0.000 Cl
ATOM     24  C   UNL     1      -4.460  11.014  16.388  0.00  0.00    +0.000 A 
ATOM     25  C   UNL     1      -3.146  10.543  16.446  0.00  0.00    +0.000 A 
ENDBRANCH  18  19
ENDBRANCH  15  17
ENDBRANCH   3  15
BRANCH   4  26
ATOM     26  O   UNL     1       0.149   9.246  20.868  0.00  0.00    +0.000 OA
ATOM     27  C   UNL     1       0.226   9.314  22.286  0.00  0.00    +0.000 C 
ENDBRANCH   4  26
BRANCH   6  28
ATOM     28  O   UNL     1       2.779   5.227  20.522  0.00  0.00    +0.000 OA
ATOM     29  C   UNL     1       1.726   4.269  20.765  0.00  0.00    +0.000 C 
ENDBRANCH   6  28
TORSDOF 7
ENDMDL
MODEL 3
REMARK VINA RESULT:      -7.5      4.913      8.706
REMARK  Name = 
REMARK  10 active torsions:
REMARK  status: ('A' for Active; 'I' for Inactive)
REMARK    1  A    between atoms: C_1  and  C_2
REMARK    2  A    between atoms: C_2  and  C_3
REMARK    3  A    between atoms: N_6  and  C_7
REMARK    4  A    between atoms: C_9  and  C_10
REMARK    5  A    between atoms: C_10  and  C_12
REMARK    6  A    between atoms: C_13  and  C_14
REMARK    7  A    between atoms: C_21  and  O_22
REMARK    8  A    between atoms: O_22  and  C_23
REMARK    9  A    between atoms: C_25  and  O_26
REMARK   10  A    between atoms: O_26  and  C_27
REMARK                            x       y       z     vdW  Elec       q    Type
REMARK                         _______ _______ _______ _____ _____    ______ ____
ROOT
ATOM      1  C   UNL     1       3.112   6.799  18.062  0.00  0.00    +0.000 A 
ATOM      2  C   UNL     1       4.450   7.234  17.828  0.00  0.00    +0.000 A 
ATOM      3  C   UNL     1       5.484   6.409  17.365  0.00  0.00    +0.000 A 
ATOM      4  C   UNL     1       5.206   5.072  17.145  0.00  0.00    +0.000 A 
ATOM      5  C   UNL     1       3.906   4.615  17.313  0.00  0.00    +0.000 A 
ATOM      6  C   UNL     1       2.849   5.430  17.766  0.00  0.00    +0.000 A 
ENDROOT
BRANCH   1  10
ATOM      7  C   UNL     1       1.018  10.078  19.878  0.00  0.00    +0.000 C 
ATOM      8  C   UNL     1       1.673  10.139  18.489  0.00  0.00    +0.000 C 
ATOM      9  C   UNL     1       1.624   8.784  17.781  0.00  0.00    +0.000 C 
ATOM     10  N   UNL     1       2.238   7.739  18.621  0.00  0.00    +0.000 N 
ATOM     11  C   UNL     1       1.678   7.607  19.970  0.00  0.00    +0.000 C 
ATOM     12  C   UNL     1       1.712   8.964  20.685  0.00  0.00    +0.000 C 
BRANCH   7  14
ATOM     13  C   UNL     1      -1.206  11.076  19.056  0.00  0.00    +0.000 C 
ATOM     14  C   UNL     1      -0.509   9.912  19.746  0.00  0.00    +0.000 C 
ENDBRANCH   7  14
ENDBRANCH   1  10
BRANCH   3  15
ATOM     15  C   UNL     1       6.810   7.029  17.038  0.00  0.00    +0.000 C 
ATOM     16  O   UNL     1       7.557   6.526  16.187  0.00  0.00    +0.000 OA
BRANCH  15  17
ATOM     17  C   UNL     1       7.172   8.304  17.716  0.00  0.00    +0.000 C 
ATOM     18  C   UNL     1       8.431   8.795  17.756  0.00  0.00    +0.000 C 
BRANCH  18  19
ATOM     19  C   UNL     1       8.751  10.071  18.422  0.00  0.00    +0.000 A 
ATOM     20  C   UNL     1       9.254  10.065  19.729  0.00  0.00    +0.000 A 
ATOM     21  C   UNL     1       9.572  11.267  20.379  0.00  0.00    +0.000 A 
ATOM     22  C   UNL     1       9.401  12.481  19.718  0.00  0.00    +0.000 A 
ATOM     23 CL   UNL     1       9.794  13.956  20.511  0.00  0.00    +0.000 Cl
ATOM     24  C   UNL     1       8.917  12.506  18.415  0.00  0.00    +0.000 A 
ATOM     25  C   UNL     1       8.598  11.308  17.772  0.00  0.00    +0.000 A 
ENDBRANCH  18  19
ENDBRANCH  15  17
ENDBRANCH   3  15
BRANCH   4  26
ATOM     26  O   UNL     1       6.245   4.221  16.869  0.00  0.00    +0.000 OA
ATOM     27  C   UNL     1       6.246   3.585  15.597  0.00  0.00    +0.000 C 
ENDBRANCH   4  26
BRANCH   6  28
ATOM     28  O   UNL     1       1.577   4.886  17.843  0.00  0.00    +0.000 OA
ATOM     29  C   UNL     1       1.461   3.661  18.599  0.00  0.00    +0.000 C 
ENDBRANCH   6  28
TORSDOF 7
ENDMDL
MODEL 4
REMARK VINA RESULT:      -7.3      5.078      8.689
REMARK  Name = 
REMARK  10 active torsions:
REMARK  status: ('A' for Active; 'I' for Inactive)
REMARK    1  A    between atoms: C_1  and  C_2
REMARK    2  A    between atoms: C_2  and  C_3
REMARK    3  A    between atoms: N_6  and  C_7
REMARK    4  A    between atoms: C_9  and  C_10
REMARK    5  A    between atoms: C_10  and  C_12
REMARK    6  A    between atoms: C_13  and  C_14
REMARK    7  A    between atoms: C_21  and  O_22
REMARK    8  A    between atoms: O_22  and  C_23
REMARK    9  A    between atoms: C_25  and  O_26
REMARK   10  A    between atoms: O_26  and  C_27
REMARK                            x       y       z     vdW  Elec       q    Type
REMARK                         _______ _______ _______ _____ _____    ______ ____
ROOT
ATOM      1  C   UNL     1       3.462   6.868  18.754  0.00  0.00    +0.000 A 
ATOM      2  C   UNL     1       4.638   7.313  18.083  0.00  0.00    +0.000 A 
ATOM      3  C   UNL     1       5.826   6.575  17.987  0.00  0.00    +0.000 A 
ATOM      4  C   UNL     1       5.882   5.340  18.608  0.00  0.00    +0.000 A 
ATOM      5  C   UNL     1       4.745   4.845  19.231  0.00  0.00    +0.000 A 
ATOM      6  C   UNL     1       3.537   5.565  19.329  0.00  0.00    +0.000 A 
ENDROOT
BRANCH   1  10
ATOM      7  C   UNL     1       0.730  10.163  19.085  0.00  0.00    +0.000 C 
ATOM      8  C   UNL     1       1.664   9.937  17.886  0.00  0.00    +0.000 C 
ATOM      9  C   UNL     1       1.896   8.449  17.623  0.00  0.00    +0.000 C 
ATOM     10  N   UNL     1       2.404   7.781  18.835  0.00  0.00    +0.000 N 
ATOM     11  C   UNL     1       1.578   7.943  20.036  0.00  0.00    +0.000 C 
ATOM     12  C   UNL     1       1.329   9.433  20.302  0.00  0.00    +0.000 C 
BRANCH   7  14
ATOM     13  C   UNL     1      -1.433  10.697  17.800  0.00  0.00    +0.000 C 
ATOM     14  C   UNL     1      -0.710   9.737  18.733  0.00  0.00    +0.000 C 
ENDBRANCH   7  14
ENDBRANCH   1  10
BRANCH   3  15
ATOM     15  C   UNL     1       6.942   7.110  17.140  0.00  0.00    +0.000 C 
ATOM     16  O   UNL     1       7.356   6.479  16.157  0.00  0.00    +0.000 OA
BRANCH  15  17
ATOM     17  C   UNL     1       7.492   8.454  17.474  0.00  0.00    +0.000 C 
ATOM     18  C   UNL     1       8.425   8.660  18.429  0.00  0.00    +0.000 C 
BRANCH  18  19
ATOM     19  C   UNL     1       8.960  10.002  18.721  0.00  0.00    +0.000 A 
ATOM     20  C   UNL     1       8.869  11.011  17.753  0.00  0.00    +0.000 A 
ATOM     21  C   UNL     1       9.365  12.298  18.012  0.00  0.00    +0.000 A 
ATOM     22  C   UNL     1       9.940  12.586  19.247  0.00  0.00    +0.000 A 
ATOM     23 CL   UNL     1      10.544  14.164  19.569  0.00  0.00    +0.000 Cl
ATOM     24  C   UNL     1      10.024  11.602  20.226  0.00  0.00    +0.000 A 
ATOM     25  C   UNL     1       9.534  10.320  19.964  0.00  0.00    +0.000 A 
ENDBRANCH  18  19
ENDBRANCH  15  17
ENDBRANCH   3  15
BRANCH   4  26
ATOM     26  O   UNL     1       7.088   4.692  18.677  0.00  0.00    +0.000 OA
ATOM     27  C   UNL     1       8.057   5.214  19.577  0.00  0.00    +0.000 C 
ENDBRANCH   4  26
BRANCH   6  28
ATOM     28  O   UNL     1       2.444   4.953  19.922  0.00  0.00    +0.000 OA
ATOM     29  C   UNL     1       2.319   3.532  19.696  0.00  0.00    +0.000 C 
ENDBRANCH   6  28
TORSDOF 7
ENDMDL
MODEL 5
REMARK VINA RESULT:      -7.3      4.965      8.789
REMARK  Name = 
REMARK  10 active torsions:
REMARK  status: ('A' for Active; 'I' for Inactive)
REMARK    1  A    between atoms: C_1  and  C_2
REMARK    2  A    between atoms: C_2  and  C_3
REMARK    3  A    between atoms: N_6  and  C_7
REMARK    4  A    between atoms: C_9  and  C_10
REMARK    5  A    between atoms: C_10  and  C_12
REMARK    6  A    between atoms: C_13  and  C_14
REMARK    7  A    between atoms: C_21  and  O_22
REMARK    8  A    between atoms: O_22  and  C_23
REMARK    9  A    between atoms: C_25  and  O_26
REMARK   10  A    between atoms: O_26  and  C_27
REMARK                            x       y       z     vdW  Elec       q    Type
REMARK                         _______ _______ _______ _____ _____    ______ ____
ROOT
ATOM      1  C   UNL     1       3.182   7.029  18.112  0.00  0.00    +0.000 A 
ATOM      2  C   UNL     1       4.534   7.383  17.829  0.00  0.00    +0.000 A 
ATOM      3  C   UNL     1       5.504   6.493  17.348  0.00  0.00    +0.000 A 
ATOM      4  C   UNL     1       5.144   5.171  17.159  0.00  0.00    +0.000 A 
ATOM      5  C   UNL     1       3.826   4.792  17.375  0.00  0.00    +0.000 A 
ATOM      6  C   UNL     1       2.832   5.673  17.847  0.00  0.00    +0.000 A 
ENDROOT
BRANCH   1  10
ATOM      7  C   UNL     1       0.178   9.655  19.695  0.00  0.00    +0.000 C 
ATOM      8  C   UNL     1       0.563   8.308  20.327  0.00  0.00    +0.000 C 
ATOM      9  C   UNL     1       2.043   7.988  20.116  0.00  0.00    +0.000 C 
ATOM     10  N   UNL     1       2.381   8.026  18.681  0.00  0.00    +0.000 N 
ATOM     11  C   UNL     1       2.047   9.275  17.989  0.00  0.00    +0.000 C 
ATOM     12  C   UNL     1       0.566   9.613  18.205  0.00  0.00    +0.000 C 
BRANCH   7  14
ATOM     13  C   UNL     1      -0.079  11.380  21.586  0.00  0.00    +0.000 C 
ATOM     14  C   UNL     1       0.808  10.820  20.484  0.00  0.00    +0.000 C 
ENDBRANCH   7  14
ENDBRANCH   1  10
BRANCH   3  15
ATOM     15  C   UNL     1       6.852   7.031  16.970  0.00  0.00    +0.000 C 
ATOM     16  O   UNL     1       7.600   6.401  16.209  0.00  0.00    +0.000 OA
BRANCH  15  17
ATOM     17  C   UNL     1       7.238   8.375  17.481  0.00  0.00    +0.000 C 
ATOM     18  C   UNL     1       8.430   8.636  18.063  0.00  0.00    +0.000 C 
BRANCH  18  19
ATOM     19  C   UNL     1       8.785   9.984  18.542  0.00  0.00    +0.000 A 
ATOM     20  C   UNL     1       9.390  10.139  19.797  0.00  0.00    +0.000 A 
ATOM     21  C   UNL     1       9.742  11.412  20.269  0.00  0.00    +0.000 A 
ATOM     22  C   UNL     1       9.506  12.536  19.482  0.00  0.00    +0.000 A 
ATOM     23 CL   UNL     1       9.942  14.097  20.057  0.00  0.00    +0.000 Cl
ATOM     24  C   UNL     1       8.922  12.402  18.228  0.00  0.00    +0.000 A 
ATOM     25  C   UNL     1       8.568  11.133  17.761  0.00  0.00    +0.000 A 
ENDBRANCH  18  19
ENDBRANCH  15  17
ENDBRANCH   3  15
BRANCH   4  26
ATOM     26  O   UNL     1       6.124   4.258  16.866  0.00  0.00    +0.000 OA
ATOM     27  C   UNL     1       6.023   3.571  15.624  0.00  0.00    +0.000 C 
ENDBRANCH   4  26
BRANCH   6  28
ATOM     28  O   UNL     1       1.534   5.204  17.972  0.00  0.00    +0.000 OA
ATOM     29  C   UNL     1       1.395   3.878  18.525  0.00  0.00    +0.000 C 
ENDBRANCH   6  28
TORSDOF 7
ENDMDL
MODEL 6
REMARK VINA RESULT:      -7.0      3.596      4.399
REMARK  Name = 
REMARK  10 active torsions:
REMARK  status: ('A' for Active; 'I' for Inactive)
REMARK    1  A    between atoms: C_1  and  C_2
REMARK    2  A    between atoms: C_2  and  C_3
REMARK    3  A    between atoms: N_6  and  C_7
REMARK    4  A    between atoms: C_9  and  C_10
REMARK    5  A    between atoms: C_10  and  C_12
REMARK    6  A    between atoms: C_13  and  C_14
REMARK    7  A    between atoms: C_21  and  O_22
REMARK    8  A    between atoms: O_22  and  C_23
REMARK    9  A    between atoms: C_25  and  O_26
REMARK   10  A    between atoms: O_26  and  C_27
REMARK                            x       y       z     vdW  Elec       q    Type
REMARK                         _______ _______ _______ _____ _____    ______ ____
ROOT
ATOM      1  C   UNL     1       3.294   6.543  18.273  0.00  0.00    +0.000 A 
ATOM      2  C   UNL     1       2.642   7.754  17.898  0.00  0.00    +0.000 A 
ATOM      3  C   UNL     1       1.787   8.487  18.733  0.00  0.00    +0.000 A 
ATOM      4  C   UNL     1       1.527   7.995  19.999  0.00  0.00    +0.000 A 
ATOM      5  C   UNL     1       2.178   6.844  20.424  0.00  0.00    +0.000 A 
ATOM      6  C   UNL     1       3.051   6.099  19.606  0.00  0.00    +0.000 A 
ENDROOT
BRANCH   1  10
ATOM      7  C   UNL     1       5.977   4.338  15.749  0.00  0.00    +0.000 C 
ATOM      8  C   UNL     1       5.001   3.688  16.743  0.00  0.00    +0.000 C 
ATOM      9  C   UNL     1       3.719   4.506  16.892  0.00  0.00    +0.000 C 
ATOM     10  N   UNL     1       4.032   5.895  17.275  0.00  0.00    +0.000 N 
ATOM     11  C   UNL     1       4.960   6.599  16.384  0.00  0.00    +0.000 C 
ATOM     12  C   UNL     1       6.247   5.780  16.217  0.00  0.00    +0.000 C 
BRANCH   7  14
ATOM     13  C   UNL     1       6.495   3.937  13.261  0.00  0.00    +0.000 C 
ATOM     14  C   UNL     1       5.432   4.228  14.310  0.00  0.00    +0.000 C 
ENDBRANCH   7  14
ENDBRANCH   1  10
BRANCH   3  15
ATOM     15  C   UNL     1       1.273   9.812  18.255  0.00  0.00    +0.000 C 
ATOM     16  O   UNL     1       0.146   9.915  17.749  0.00  0.00    +0.000 OA
BRANCH  15  17
ATOM     17  C   UNL     1       2.129  11.012  18.466  0.00  0.00    +0.000 C 
ATOM     18  C   UNL     1       1.635  12.243  18.727  0.00  0.00    +0.000 C 
BRANCH  18  19
ATOM     19  C   UNL     1       2.514  13.405  18.950  0.00  0.00    +0.000 A 
ATOM     20  C   UNL     1       2.938  14.175  17.858  0.00  0.00    +0.000 A 
ATOM     21  C   UNL     1       3.768  15.289  18.047  0.00  0.00    +0.000 A 
ATOM     22  C   UNL     1       4.167  15.649  19.332  0.00  0.00    +0.000 A 
ATOM     23 CL   UNL     1       5.181  17.018  19.568  0.00  0.00    +0.000 Cl
ATOM     24  C   UNL     1       3.744  14.908  20.429  0.00  0.00    +0.000 A 
ATOM     25  C   UNL     1       2.920  13.796  20.238  0.00  0.00    +0.000 A 
ENDBRANCH  18  19
ENDBRANCH  15  17
ENDBRANCH   3  15
BRANCH   4  26
ATOM     26  O   UNL     1       0.556   8.600  20.754  0.00  0.00    +0.000 OA
ATOM     27  C   UNL     1       0.976   9.280  21.931  0.00  0.00    +0.000 C 
ENDBRANCH   4  26
BRANCH   6  28
ATOM     28  O   UNL     1       3.694   4.998  20.150  0.00  0.00    +0.000 OA
ATOM     29  C   UNL     1       2.858   3.852  20.419  0.00  0.00    +0.000 C 
ENDBRANCH   6  28
TORSDOF 7
ENDMDL
MODEL 7
REMARK VINA RESULT:      -7.0      1.222      1.901
REMARK  Name = 
REMARK  10 active torsions:
REMARK  status: ('A' for Active; 'I' for Inactive)
REMARK    1  A    between atoms: C_1  and  C_2
REMARK    2  A    between atoms: C_2  and  C_3
REMARK    3  A    between atoms: N_6  and  C_7
REMARK    4  A    between atoms: C_9  and  C_10
REMARK    5  A    between atoms: C_10  and  C_12
REMARK    6  A    between atoms: C_13  and  C_14
REMARK    7  A    between atoms: C_21  and  O_22
REMARK    8  A    between atoms: O_22  and  C_23
REMARK    9  A    between atoms: C_25  and  O_26
REMARK   10  A    between atoms: O_26  and  C_27
REMARK                            x       y       z     vdW  Elec       q    Type
REMARK                         _______ _______ _______ _____ _____    ______ ____
ROOT
ATOM      1  C   UNL     1       2.886   6.662  18.919  0.00  0.00    +0.000 A 
ATOM      2  C   UNL     1       2.452   7.945  18.473  0.00  0.00    +0.000 A 
ATOM      3  C   UNL     1       1.550   8.764  19.166  0.00  0.00    +0.000 A 
ATOM      4  C   UNL     1       1.015   8.293  20.351  0.00  0.00    +0.000 A 
ATOM      5  C   UNL     1       1.445   7.070  20.848  0.00  0.00    +0.000 A 
ATOM      6  C   UNL     1       2.360   6.236  20.173  0.00  0.00    +0.000 A 
ENDROOT
BRANCH   1  10
ATOM      7  C   UNL     1       4.963   4.668  15.734  0.00  0.00    +0.000 C 
ATOM      8  C   UNL     1       4.899   6.195  15.896  0.00  0.00    +0.000 C 
ATOM      9  C   UNL     1       4.842   6.605  17.368  0.00  0.00    +0.000 C 
ATOM     10  N   UNL     1       3.712   5.944  18.046  0.00  0.00    +0.000 N 
ATOM     11  C   UNL     1       3.687   4.481  17.945  0.00  0.00    +0.000 C 
ATOM     12  C   UNL     1       3.756   4.058  16.471  0.00  0.00    +0.000 C 
BRANCH   7  14
ATOM     13  C   UNL     1       7.523   4.783  15.514  0.00  0.00    +0.000 C 
ATOM     14  C   UNL     1       6.332   4.135  16.203  0.00  0.00    +0.000 C 
ENDBRANCH   7  14
ENDBRANCH   1  10
BRANCH   3  15
ATOM     15  C   UNL     1       1.283  10.145  18.646  0.00  0.00    +0.000 C 
ATOM     16  O   UNL     1       2.206  10.862  18.234  0.00  0.00    +0.000 OA
BRANCH  15  17
ATOM     17  C   UNL     1      -0.132  10.605  18.576  0.00  0.00    +0.000 C 
ATOM     18  C   UNL     1      -0.972  10.277  17.569  0.00  0.00    +0.000 C 
BRANCH  18  19
ATOM     19  C   UNL     1      -2.373  10.735  17.542  0.00  0.00    +0.000 A 
ATOM     20  C   UNL     1      -2.900  11.427  18.641  0.00  0.00    +0.000 A 
ATOM     21  C   UNL     1      -4.228  11.879  18.633  0.00  0.00    +0.000 A 
ATOM     22  C   UNL     1      -5.032  11.655  17.519  0.00  0.00    +0.000 A 
ATOM     23 CL   UNL     1      -6.659  12.211  17.504  0.00  0.00    +0.000 Cl
ATOM     24  C   UNL     1      -4.523  10.984  16.412  0.00  0.00    +0.000 A 
ATOM     25  C   UNL     1      -3.201  10.532  16.424  0.00  0.00    +0.000 A 
ENDBRANCH  18  19
ENDBRANCH  15  17
ENDBRANCH   3  15
BRANCH   4  26
ATOM     26  O   UNL     1      -0.000   9.000  20.941  0.00  0.00    +0.000 OA
ATOM     27  C   UNL     1       0.076   9.196  22.348  0.00  0.00    +0.000 C 
ENDBRANCH   4  26
BRANCH   6  28
ATOM     28  O   UNL     1       2.767   5.062  20.787  0.00  0.00    +0.000 OA
ATOM     29  C   UNL     1       1.728   4.093  21.042  0.00  0.00    +0.000 C 
ENDBRANCH   6  28
TORSDOF 7
ENDMDL
MODEL 8
REMARK VINA RESULT:      -7.0      5.033      9.505
REMARK  Name = 
REMARK  10 active torsions:
REMARK  status: ('A' for Active; 'I' for Inactive)
REMARK    1  A    between atoms: C_1  and  C_2
REMARK    2  A    between atoms: C_2  and  C_3
REMARK    3  A    between atoms: N_6  and  C_7
REMARK    4  A    between atoms: C_9  and  C_10
REMARK    5  A    between atoms: C_10  and  C_12
REMARK    6  A    between atoms: C_13  and  C_14
REMARK    7  A    between atoms: C_21  and  O_22
REMARK    8  A    between atoms: O_22  and  C_23
REMARK    9  A    between atoms: C_25  and  O_26
REMARK   10  A    between atoms: O_26  and  C_27
REMARK                            x       y       z     vdW  Elec       q    Type
REMARK                         _______ _______ _______ _____ _____    ______ ____
ROOT
ATOM      1  C   UNL     1       0.720  13.279  19.695  0.00  0.00    +0.000 A 
ATOM      2  C   UNL     1       0.926  12.124  18.883  0.00  0.00    +0.000 A 
ATOM      3  C   UNL     1       0.705  10.806  19.307  0.00  0.00    +0.000 A 
ATOM      4  C   UNL     1       0.288  10.598  20.609  0.00  0.00    +0.000 A 
ATOM      5  C   UNL     1       0.028  11.694  21.420  0.00  0.00    +0.000 A 
ATOM      6  C   UNL     1       0.232  13.028  21.010  0.00  0.00    +0.000 A 
ENDROOT
BRANCH   1  10
ATOM      7  C   UNL     1       2.075  17.214  18.642  0.00  0.00    +0.000 C 
ATOM      8  C   UNL     1       3.010  16.054  19.018  0.00  0.00    +0.000 C 
ATOM      9  C   UNL     1       2.440  14.705  18.580  0.00  0.00    +0.000 C 
ATOM     10  N   UNL     1       1.089  14.508  19.136  0.00  0.00    +0.000 N 
ATOM     11  C   UNL     1       0.123  15.569  18.831  0.00  0.00    +0.000 C 
ATOM     12  C   UNL     1       0.691  16.930  19.256  0.00  0.00    +0.000 C 
BRANCH   7  14
ATOM     13  C   UNL     1       1.010  18.407  16.627  0.00  0.00    +0.000 C 
ATOM     14  C   UNL     1       2.063  17.423  17.114  0.00  0.00    +0.000 C 
ENDBRANCH   7  14
ENDBRANCH   1  10
BRANCH   3  15
ATOM     15  C   UNL     1       0.836   9.695  18.308  0.00  0.00    +0.000 C 
ATOM     16  O   UNL     1      -0.071   9.454  17.499  0.00  0.00    +0.000 OA
BRANCH  15  17
ATOM     17  C   UNL     1       2.116   8.935  18.271  0.00  0.00    +0.000 C 
ATOM     18  C   UNL     1       2.188   7.611  18.007  0.00  0.00    +0.000 C 
BRANCH  18  19
ATOM     19  C   UNL     1       3.475   6.894  17.962  0.00  0.00    +0.000 A 
ATOM     20  C   UNL     1       3.815   6.010  18.994  0.00  0.00    +0.000 A 
ATOM     21  C   UNL     1       5.032   5.312  18.968  0.00  0.00    +0.000 A 
ATOM     22  C   UNL     1       5.908   5.482  17.899  0.00  0.00    +0.000 A 
ATOM     23 CL   UNL     1       7.398   4.624  17.861  0.00  0.00    +0.000 Cl
ATOM     24  C   UNL     1       5.581   6.343  16.857  0.00  0.00    +0.000 A 
ATOM     25  C   UNL     1       4.371   7.040  16.888  0.00  0.00    +0.000 A 
ENDBRANCH  18  19
ENDBRANCH  15  17
ENDBRANCH   3  15
BRANCH   4  26
ATOM     26  O   UNL     1       0.244   9.314  21.089  0.00  0.00    +0.000 OA
ATOM     27  C   UNL     1       1.283   8.915  21.975  0.00  0.00    +0.000 C 
ENDBRANCH   4  26
BRANCH   6  28
ATOM     28  O   UNL     1      -0.115  14.051  21.879  0.00  0.00    +0.000 OA
ATOM     29  C   UNL     1      -0.932  13.668  23.006  0.00  0.00    +0.000 C 
ENDBRANCH   6  28
TORSDOF 7
ENDMDL
MODEL 9
REMARK VINA RESULT:      -6.9      4.494     10.531
REMARK  Name = 
REMARK  10 active torsions:
REMARK  status: ('A' for Active; 'I' for Inactive)
REMARK    1  A    between atoms: C_1  and  C_2
REMARK    2  A    between atoms: C_2  and  C_3
REMARK    3  A    between atoms: N_6  and  C_7
REMARK    4  A    between atoms: C_9  and  C_10
REMARK    5  A    between atoms: C_10  and  C_12
REMARK    6  A    between atoms: C_13  and  C_14
REMARK    7  A    between atoms: C_21  and  O_22
REMARK    8  A    between atoms: O_22  and  C_23
REMARK    9  A    between atoms: C_25  and  O_26
REMARK   10  A    between atoms: O_26  and  C_27
REMARK                            x       y       z     vdW  Elec       q    Type
REMARK                         _______ _______ _______ _____ _____    ______ ____
ROOT
ATOM      1  C   UNL     1      -1.736  12.281  21.567  0.00  0.00    +0.000 A 
ATOM      2  C   UNL     1      -1.035  11.111  21.982  0.00  0.00    +0.000 A 
ATOM      3  C   UNL     1       0.091  10.587  21.332  0.00  0.00    +0.000 A 
ATOM      4  C   UNL     1       0.544  11.224  20.190  0.00  0.00    +0.000 A 
ATOM      5  C   UNL     1      -0.078  12.394  19.777  0.00  0.00    +0.000 A 
ATOM      6  C   UNL     1      -1.204  12.945  20.423  0.00  0.00    +0.000 A 
ENDROOT
BRANCH   1  10
ATOM      7  C   UNL     1      -5.120  13.935  23.627  0.00  0.00    +0.000 C 
ATOM      8  C   UNL     1      -4.924  13.999  22.104  0.00  0.00    +0.000 C 
ATOM      9  C   UNL     1      -4.185  12.769  21.577  0.00  0.00    +0.000 C 
ATOM     10  N   UNL     1      -2.899  12.598  22.279  0.00  0.00    +0.000 N 
ATOM     11  C   UNL     1      -2.985  12.529  23.741  0.00  0.00    +0.000 C 
ATOM     12  C   UNL     1      -3.736  13.753  24.280  0.00  0.00    +0.000 C 
BRANCH   7  14
ATOM     13  C   UNL     1      -7.566  13.355  24.174  0.00  0.00    +0.000 C 
ATOM     14  C   UNL     1      -6.145  12.843  23.993  0.00  0.00    +0.000 C 
ENDBRANCH   7  14
ENDBRANCH   1  10
BRANCH   3  15
ATOM     15  C   UNL     1       0.808   9.426  21.953  0.00  0.00    +0.000 C 
ATOM     16  O   UNL     1       1.304   9.513  23.085  0.00  0.00    +0.000 OA
BRANCH  15  17
ATOM     17  C   UNL     1       0.847   8.143  21.198  0.00  0.00    +0.000 C 
ATOM     18  C   UNL     1       1.994   7.536  20.821  0.00  0.00    +0.000 C 
BRANCH  18  19
ATOM     19  C   UNL     1       1.995   6.256  20.089  0.00  0.00    +0.000 A 
ATOM     20  C   UNL     1       1.539   5.093  20.722  0.00  0.00    +0.000 A 
ATOM     21  C   UNL     1       1.525   3.866  20.042  0.00  0.00    +0.000 A 
ATOM     22  C   UNL     1       1.952   3.800  18.718  0.00  0.00    +0.000 A 
ATOM     23 CL   UNL     1       1.931   2.298  17.880  0.00  0.00    +0.000 Cl
ATOM     24  C   UNL     1       2.394   4.946  18.068  0.00  0.00    +0.000 A 
ATOM     25  C   UNL     1       2.411   6.166  18.749  0.00  0.00    +0.000 A 
ENDBRANCH  18  19
ENDBRANCH  15  17
ENDBRANCH   3  15
BRANCH   4  26
ATOM     26  O   UNL     1       1.526  10.622  19.447  0.00  0.00    +0.000 OA
ATOM     27  C   UNL     1       1.145  10.069  18.193  0.00  0.00    +0.000 C 
ENDBRANCH   4  26
BRANCH   6  28
ATOM     28  O   UNL     1      -1.712  14.149  19.962  0.00  0.00    +0.000 OA
ATOM     29  C   UNL     1      -0.733  15.156  19.625  0.00  0.00    +0.000 C 
ENDBRANCH   6  28
TORSDOF 7
ENDMDL
