MODEL 1
REMARK VINA RESULT:      -8.3      0.000      0.000
REMARK  Name = 
REMARK  10 active torsions:
REMARK  status: ('A' for Active; 'I' for Inactive)
REMARK    1  A    between atoms: C_1  and  C_2
REMARK    2  A    between atoms: C_2  and  C_3
REMARK    3  A    between atoms: C_3  and  S_4
REMARK    4  A    between atoms: S_4  and  C_5
REMARK    5  A    between atoms: C_10  and  N_11
REMARK    6  A    between atoms: N_14  and  C_15
REMARK    7  A    between atoms: C_15  and  C_16
REMARK    8  A    between atoms: C_16  and  C_17
REMARK    9  A    between atoms: C_17  and  C_18
REMARK   10  A    between atoms: C_18  and  N_19
REMARK                            x       y       z     vdW  Elec       q    Type
REMARK                         _______ _______ _______ _____ _____    ______ ____
ROOT
ATOM      1  C   UNL     1       3.705   7.359  17.966  0.00  0.00    +0.000 C 
ENDROOT
BRANCH   1   5
ATOM      2  N   UNL     1       1.287   9.107  20.069  0.00  0.00    +0.000 N 
ATOM      3  C   UNL     1       1.990   7.889  20.515  0.00  0.00    +0.000 C 
ATOM      4  C   UNL     1       1.843   6.758  19.466  0.00  0.00    +0.000 C 
ATOM      5  N   UNL     1       2.259   7.120  18.091  0.00  0.00    +0.000 NA
ATOM      6  C   UNL     1       1.494   8.335  17.710  0.00  0.00    +0.000 C 
ATOM      7  C   UNL     1       1.590   9.530  18.695  0.00  0.00    +0.000 C 
BRANCH   2  13
ATOM      8  C   UNL     1      -0.298  10.984  20.585  0.00  0.00    +0.000 A 
ATOM      9  C   UNL     1      -1.144  11.588  21.542  0.00  0.00    +0.000 A 
ATOM     10  C   UNL     1      -1.252  11.078  22.843  0.00  0.00    +0.000 A 
ATOM     11  C   UNL     1      -0.534   9.957  23.186  0.00  0.00    +0.000 A 
ATOM     12  C   UNL     1       0.301   9.343  22.246  0.00  0.00    +0.000 A 
ATOM     13  C   UNL     1       0.461   9.826  20.926  0.00  0.00    +0.000 A 
BRANCH   8  14
ATOM     14  S   UNL     1      -0.342  11.736  18.948  0.00  0.00    +0.000 S 
BRANCH  14  15
ATOM     15  C   UNL     1      -2.131  11.851  18.625  0.00  0.00    +0.000 C 
BRANCH  15  17
ATOM     16  C   UNL     1      -1.846   9.924  17.002  0.00  0.00    +0.000 C 
ATOM     17  C   UNL     1      -2.609  10.459  18.202  0.00  0.00    +0.000 C 
ENDBRANCH  15  17
ENDBRANCH  14  15
ENDBRANCH   8  14
ENDBRANCH   2  13
ENDBRANCH   1   5
BRANCH   1  18
ATOM     18  C   UNL     1       4.312   6.840  16.651  0.00  0.00    +0.000 C 
BRANCH  18  19
ATOM     19  C   UNL     1       5.481   5.854  16.813  0.00  0.00    +0.000 C 
BRANCH  19  20
ATOM     20  C   UNL     1       5.057   4.419  16.491  0.00  0.00    +0.000 C 
BRANCH  20  21
ATOM     21  N   UNL     1       4.521   3.696  17.639  0.00  0.00    +0.000 N 
ATOM     22  C   UNL     1       5.257   3.705  18.815  0.00  0.00    +0.000 A 
ATOM     23  O   UNL     1       6.164   4.493  19.066  0.00  0.00    +0.000 OA
ATOM     24  N   UNL     1       4.830   2.798  19.770  0.00  0.00    +0.000 N 
ATOM     25  C   UNL     1       3.439   2.767  19.999  0.00  0.00    +0.000 A 
ATOM     26  C   UNL     1       2.967   2.492  21.279  0.00  0.00    +0.000 A 
ATOM     27  C   UNL     1       1.623   2.732  21.566  0.00  0.00    +0.000 A 
ATOM     28  C   UNL     1       0.762   3.201  20.567  0.00  0.00    +0.000 A 
ATOM     29  C   UNL     1       1.227   3.387  19.262  0.00  0.00    +0.000 A 
ATOM     30  C   UNL     1       2.575   3.165  18.985  0.00  0.00    +0.000 A 
ATOM     31  C   UNL     1       3.156   3.416  17.649  0.00  0.00    +0.000 A 
ATOM     32  O   UNL     1       2.431   3.424  16.660  0.00  0.00    +0.000 OA
ATOM     33  H   UNL     1       5.148   1.870  19.503  0.00  0.00    +0.000 HD
ENDBRANCH  20  21
ENDBRANCH  19  20
ENDBRANCH  18  19
ENDBRANCH   1  18
TORSDOF 9
ENDMDL
MODEL 2
REMARK VINA RESULT:      -8.1      0.990      1.181
REMARK  Name = 
REMARK  10 active torsions:
REMARK  status: ('A' for Active; 'I' for Inactive)
REMARK    1  A    between atoms: C_1  and  C_2
REMARK    2  A    between atoms: C_2  and  C_3
REMARK    3  A    between atoms: C_3  and  S_4
REMARK    4  A    between atoms: S_4  and  C_5
REMARK    5  A    between atoms: C_10  and  N_11
REMARK    6  A    between atoms: N_14  and  C_15
REMARK    7  A    between atoms: C_15  and  C_16
REMARK    8  A    between atoms: C_16  and  C_17
REMARK    9  A    between atoms: C_17  and  C_18
REMARK   10  A    between atoms: C_18  and  N_19
REMARK                            x       y       z     vdW  Elec       q    Type
REMARK                         _______ _______ _______ _____ _____    ______ ____
ROOT
ATOM      1  C   UNL     1       4.032   7.055  18.413  0.00  0.00    +0.000 C 
ENDROOT
BRANCH   1   5
ATOM      2  N   UNL     1       1.367   9.336  19.423  0.00  0.00    +0.000 N 
ATOM      3  C   UNL     1       1.742   8.153  20.221  0.00  0.00    +0.000 C 
ATOM      4  C   UNL     1       1.754   6.880  19.338  0.00  0.00    +0.000 C 
ATOM      5  N   UNL     1       2.593   6.968  18.120  0.00  0.00    +0.000 NA
ATOM      6  C   UNL     1       2.142   8.166  17.366  0.00  0.00    +0.000 C 
ATOM      7  C   UNL     1       2.109   9.495  18.164  0.00  0.00    +0.000 C 
BRANCH   2  13
ATOM      8  C   UNL     1      -0.767  10.641  19.216  0.00  0.00    +0.000 A 
ATOM      9  C   UNL     1      -1.659  11.553  19.822  0.00  0.00    +0.000 A 
ATOM     10  C   UNL     1      -1.387  12.110  21.080  0.00  0.00    +0.000 A 
ATOM     11  C   UNL     1      -0.238  11.745  21.741  0.00  0.00    +0.000 A 
ATOM     12  C   UNL     1       0.650  10.837  21.155  0.00  0.00    +0.000 A 
ATOM     13  C   UNL     1       0.433  10.259  19.883  0.00  0.00    +0.000 A 
BRANCH   8  14
ATOM     14  S   UNL     1      -1.317   9.978  17.633  0.00  0.00    +0.000 S 
BRANCH  14  15
ATOM     15  C   UNL     1      -2.497  11.248  17.073  0.00  0.00    +0.000 C 
BRANCH  15  17
ATOM     16  C   UNL     1      -2.964  10.139  14.840  0.00  0.00    +0.000 C 
ATOM     17  C   UNL     1      -3.533  10.549  16.188  0.00  0.00    +0.000 C 
ENDBRANCH  15  17
ENDBRANCH  14  15
ENDBRANCH   8  14
ENDBRANCH   2  13
ENDBRANCH   1   5
BRANCH   1  18
ATOM     18  C   UNL     1       4.931   6.907  17.173  0.00  0.00    +0.000 C 
BRANCH  18  19
ATOM     19  C   UNL     1       4.645   5.674  16.301  0.00  0.00    +0.000 C 
BRANCH  19  20
ATOM     20  C   UNL     1       5.418   4.446  16.789  0.00  0.00    +0.000 C 
BRANCH  20  21
ATOM     21  N   UNL     1       4.753   3.728  17.869  0.00  0.00    +0.000 N 
ATOM     22  C   UNL     1       5.327   3.773  19.132  0.00  0.00    +0.000 A 
ATOM     23  O   UNL     1       6.175   4.588  19.485  0.00  0.00    +0.000 OA
ATOM     24  N   UNL     1       4.799   2.871  20.040  0.00  0.00    +0.000 N 
ATOM     25  C   UNL     1       3.391   2.809  20.084  0.00  0.00    +0.000 A 
ATOM     26  C   UNL     1       2.760   2.542  21.296  0.00  0.00    +0.000 A 
ATOM     27  C   UNL     1       1.385   2.753  21.399  0.00  0.00    +0.000 A 
ATOM     28  C   UNL     1       0.652   3.185  20.287  0.00  0.00    +0.000 A 
ATOM     29  C   UNL     1       1.281   3.362  19.052  0.00  0.00    +0.000 A 
ATOM     30  C   UNL     1       2.658   3.170  18.958  0.00  0.00    +0.000 A 
ATOM     31  C   UNL     1       3.405   3.414  17.706  0.00  0.00    +0.000 A 
ATOM     32  O   UNL     1       2.817   3.389  16.630  0.00  0.00    +0.000 OA
ATOM     33  H   UNL     1       5.170   1.947  19.834  0.00  0.00    +0.000 HD
ENDBRANCH  20  21
ENDBRANCH  19  20
ENDBRANCH  18  19
ENDBRANCH   1  18
TORSDOF 9
ENDMDL
MODEL 3
REMARK VINA RESULT:      -7.9      7.274      8.392
REMARK  Name = 
REMARK  10 active torsions:
REMARK  status: ('A' for Active; 'I' for Inactive)
REMARK    1  A    between atoms: C_1  and  C_2
REMARK    2  A    between atoms: C_2  and  C_3
REMARK    3  A    between atoms: C_3  and  S_4
REMARK    4  A    between atoms: S_4  and  C_5
REMARK    5  A    between atoms: C_10  and  N_11
REMARK    6  A    between atoms: N_14  and  C_15
REMARK    7  A    between atoms: C_15  and  C_16
REMARK    8  A    between atoms: C_16  and  C_17
REMARK    9  A    between atoms: C_17  and  C_18
REMARK   10  A    between atoms: C_18  and  N_19
REMARK                            x       y       z     vdW  Elec       q    Type
REMARK                         _______ _______ _______ _____ _____    ______ ____
ROOT
ATOM      1  C   UNL     1       8.961  10.313  18.216  0.00  0.00    +0.000 C 
ENDROOT
BRANCH   1   5
ATOM      2  N   UNL     1      10.107  13.678  19.050  0.00  0.00    +0.000 N 
ATOM      3  C   UNL     1      10.422  13.030  17.762  0.00  0.00    +0.000 C 
ATOM      4  C   UNL     1      11.035  11.626  17.992  0.00  0.00    +0.000 C 
ATOM      5  N   UNL     1      10.228  10.720  18.842  0.00  0.00    +0.000 NA
ATOM      6  C   UNL     1       9.974  11.433  20.121  0.00  0.00    +0.000 C 
ATOM      7  C   UNL     1       9.346  12.845  19.993  0.00  0.00    +0.000 C 
BRANCH   2  13
ATOM      8  C   UNL     1       9.613  16.138  19.094  0.00  0.00    +0.000 A 
ATOM      9  C   UNL     1      10.067  17.429  19.446  0.00  0.00    +0.000 A 
ATOM     10  C   UNL     1      11.342  17.628  19.995  0.00  0.00    +0.000 A 
ATOM     11  C   UNL     1      12.156  16.542  20.210  0.00  0.00    +0.000 A 
ATOM     12  C   UNL     1      11.717  15.257  19.874  0.00  0.00    +0.000 A 
ATOM     13  C   UNL     1      10.449  15.002  19.302  0.00  0.00    +0.000 A 
BRANCH   8  14
ATOM     14  S   UNL     1       7.925  16.070  18.469  0.00  0.00    +0.000 S 
BRANCH  14  15
ATOM     15  C   UNL     1       7.272  17.703  18.945  0.00  0.00    +0.000 C 
BRANCH  15  17
ATOM     16  C   UNL     1       5.477  16.163  19.860  0.00  0.00    +0.000 C 
ATOM     17  C   UNL     1       6.223  17.475  20.037  0.00  0.00    +0.000 C 
ENDBRANCH  15  17
ENDBRANCH  14  15
ENDBRANCH   8  14
ENDBRANCH   2  13
ENDBRANCH   1   5
BRANCH   1  18
ATOM     18  C   UNL     1       8.582   8.844  18.471  0.00  0.00    +0.000 C 
BRANCH  18  19
ATOM     19  C   UNL     1       7.572   8.247  17.478  0.00  0.00    +0.000 C 
BRANCH  19  20
ATOM     20  C   UNL     1       7.457   6.728  17.634  0.00  0.00    +0.000 C 
BRANCH  20  21
ATOM     21  N   UNL     1       6.095   6.267  17.874  0.00  0.00    +0.000 N 
ATOM     22  C   UNL     1       5.170   6.405  16.850  0.00  0.00    +0.000 A 
ATOM     23  O   UNL     1       5.455   6.612  15.674  0.00  0.00    +0.000 OA
ATOM     24  N   UNL     1       3.854   6.193  17.226  0.00  0.00    +0.000 N 
ATOM     25  C   UNL     1       3.626   5.046  18.013  0.00  0.00    +0.000 A 
ATOM     26  C   UNL     1       2.426   4.354  17.875  0.00  0.00    +0.000 A 
ATOM     27  C   UNL     1       2.314   3.083  18.438  0.00  0.00    +0.000 A 
ATOM     28  C   UNL     1       3.379   2.537  19.164  0.00  0.00    +0.000 A 
ATOM     29  C   UNL     1       4.545   3.277  19.373  0.00  0.00    +0.000 A 
ATOM     30  C   UNL     1       4.661   4.538  18.792  0.00  0.00    +0.000 A 
ATOM     31  C   UNL     1       5.894   5.347  18.902  0.00  0.00    +0.000 A 
ATOM     32  O   UNL     1       6.678   5.140  19.821  0.00  0.00    +0.000 OA
ATOM     33  H   UNL     1       3.521   7.014  17.724  0.00  0.00    +0.000 HD
ENDBRANCH  20  21
ENDBRANCH  19  20
ENDBRANCH  18  19
ENDBRANCH   1  18
TORSDOF 9
ENDMDL
MODEL 4
REMARK VINA RESULT:      -7.9      6.184      9.338
REMARK  Name = 
REMARK  10 active torsions:
REMARK  status: ('A' for Active; 'I' for Inactive)
REMARK    1  A    between atoms: C_1  and  C_2
REMARK    2  A    between atoms: C_2  and  C_3
REMARK    3  A    between atoms: C_3  and  S_4
REMARK    4  A    between atoms: S_4  and  C_5
REMARK    5  A    between atoms: C_10  and  N_11
REMARK    6  A    between atoms: N_14  and  C_15
REMARK    7  A    between atoms: C_15  and  C_16
REMARK    8  A    between atoms: C_16  and  C_17
REMARK    9  A    between atoms: C_17  and  C_18
REMARK   10  A    between atoms: C_18  and  N_19
REMARK                            x       y       z     vdW  Elec       q    Type
REMARK                         _______ _______ _______ _____ _____    ______ ____
ROOT
ATOM      1  C   UNL     1       7.566   7.068  16.966  0.00  0.00    +0.000 C 
ENDROOT
BRANCH   1   5
ATOM      2  N   UNL     1       4.820   5.116  18.372  0.00  0.00    +0.000 N 
ATOM      3  C   UNL     1       5.891   5.692  19.207  0.00  0.00    +0.000 C 
ATOM      4  C   UNL     1       7.285   5.297  18.657  0.00  0.00    +0.000 C 
ATOM      5  N   UNL     1       7.512   5.622  17.229  0.00  0.00    +0.000 NA
ATOM      6  C   UNL     1       6.410   4.991  16.458  0.00  0.00    +0.000 C 
ATOM      7  C   UNL     1       4.973   5.338  16.926  0.00  0.00    +0.000 C 
BRANCH   2  13
ATOM      8  C   UNL     1       2.571   5.118  19.486  0.00  0.00    +0.000 A 
ATOM      9  C   UNL     1       1.495   4.347  19.979  0.00  0.00    +0.000 A 
ATOM     10  C   UNL     1       1.530   2.945  19.948  0.00  0.00    +0.000 A 
ATOM     11  C   UNL     1       2.626   2.313  19.412  0.00  0.00    +0.000 A 
ATOM     12  C   UNL     1       3.696   3.065  18.913  0.00  0.00    +0.000 A 
ATOM     13  C   UNL     1       3.720   4.478  18.935  0.00  0.00    +0.000 A 
BRANCH   8  14
ATOM     14  S   UNL     1       2.318   6.901  19.544  0.00  0.00    +0.000 S 
BRANCH  14  15
ATOM     15  C   UNL     1       1.275   7.094  21.025  0.00  0.00    +0.000 C 
BRANCH  15  17
ATOM     16  C   UNL     1       1.074   9.205  22.416  0.00  0.00    +0.000 C 
ATOM     17  C   UNL     1       0.811   8.552  21.069  0.00  0.00    +0.000 C 
ENDBRANCH  15  17
ENDBRANCH  14  15
ENDBRANCH   8  14
ENDBRANCH   2  13
ENDBRANCH   1   5
BRANCH   1  18
ATOM     18  C   UNL     1       8.129   7.895  18.135  0.00  0.00    +0.000 C 
BRANCH  18  19
ATOM     19  C   UNL     1       8.329   9.391  17.841  0.00  0.00    +0.000 C 
BRANCH  19  20
ATOM     20  C   UNL     1       8.985  10.114  19.020  0.00  0.00    +0.000 C 
BRANCH  20  21
ATOM     21  N   UNL     1       9.574  11.399  18.663  0.00  0.00    +0.000 N 
ATOM     22  C   UNL     1       8.910  12.184  17.731  0.00  0.00    +0.000 A 
ATOM     23  O   UNL     1       7.738  12.031  17.397  0.00  0.00    +0.000 OA
ATOM     24  N   UNL     1       9.643  13.255  17.248  0.00  0.00    +0.000 N 
ATOM     25  C   UNL     1      10.314  14.020  18.225  0.00  0.00    +0.000 A 
ATOM     26  C   UNL     1      10.467  15.389  18.027  0.00  0.00    +0.000 A 
ATOM     27  C   UNL     1      10.875  16.181  19.101  0.00  0.00    +0.000 A 
ATOM     28  C   UNL     1      11.163  15.597  20.339  0.00  0.00    +0.000 A 
ATOM     29  C   UNL     1      11.093  14.211  20.500  0.00  0.00    +0.000 A 
ATOM     30  C   UNL     1      10.666  13.425  19.431  0.00  0.00    +0.000 A 
ATOM     31  C   UNL     1      10.491  11.961  19.549  0.00  0.00    +0.000 A 
ATOM     32  O   UNL     1      11.090  11.344  20.423  0.00  0.00    +0.000 OA
ATOM     33  H   UNL     1      10.318  12.908  16.571  0.00  0.00    +0.000 HD
ENDBRANCH  20  21
ENDBRANCH  19  20
ENDBRANCH  18  19
ENDBRANCH   1  18
TORSDOF 9
ENDMDL
MODEL 5
REMARK VINA RESULT:      -7.9      6.718      7.855
REMARK  Name = 
REMARK  10 active torsions:
REMARK  status: ('A' for Active; 'I' for Inactive)
REMARK    1  A    between atoms: C_1  and  C_2
REMARK    2  A    between atoms: C_2  and  C_3
REMARK    3  A    between atoms: C_3  and  S_4
REMARK    4  A    between atoms: S_4  and  C_5
REMARK    5  A    between atoms: C_10  and  N_11
REMARK    6  A    between atoms: N_14  and  C_15
REMARK    7  A    between atoms: C_15  and  C_16
REMARK    8  A    between atoms: C_16  and  C_17
REMARK    9  A    between atoms: C_17  and  C_18
REMARK   10  A    between atoms: C_18  and  N_19
REMARK                            x       y       z     vdW  Elec       q    Type
REMARK                         _______ _______ _______ _____ _____    ______ ____
ROOT
ATOM      1  C   UNL     1       8.709  10.156  19.189  0.00  0.00    +0.000 C 
ENDROOT
BRANCH   1   5
ATOM      2  N   UNL     1       9.239  13.724  18.633  0.00  0.00    +0.000 N 
ATOM      3  C   UNL     1       9.031  12.772  17.525  0.00  0.00    +0.000 C 
ATOM      4  C   UNL     1      10.005  11.574  17.645  0.00  0.00    +0.000 C 
ATOM      5  N   UNL     1       9.973  10.866  18.946  0.00  0.00    +0.000 NA
ATOM      6  C   UNL     1      10.211  11.885  20.002  0.00  0.00    +0.000 C 
ATOM      7  C   UNL     1       9.273  13.120  19.972  0.00  0.00    +0.000 C 
BRANCH   2  13
ATOM      8  C   UNL     1       8.320  16.058  18.738  0.00  0.00    +0.000 A 
ATOM      9  C   UNL     1       8.553  17.432  18.507  0.00  0.00    +0.000 A 
ATOM     10  C   UNL     1       9.757  17.882  17.946  0.00  0.00    +0.000 A 
ATOM     11  C   UNL     1      10.734  16.967  17.633  0.00  0.00    +0.000 A 
ATOM     12  C   UNL     1      10.519  15.604  17.864  0.00  0.00    +0.000 A 
ATOM     13  C   UNL     1       9.319  15.095  18.410  0.00  0.00    +0.000 A 
BRANCH   8  14
ATOM     14  S   UNL     1       6.747  15.676  19.528  0.00  0.00    +0.000 S 
BRANCH  14  15
ATOM     15  C   UNL     1       5.637  16.924  18.799  0.00  0.00    +0.000 C 
BRANCH  15  17
ATOM     16  C   UNL     1       3.982  15.475  17.537  0.00  0.00    +0.000 C 
ATOM     17  C   UNL     1       4.229  16.323  18.774  0.00  0.00    +0.000 C 
ENDBRANCH  15  17
ENDBRANCH  14  15
ENDBRANCH   8  14
ENDBRANCH   2  13
ENDBRANCH   1   5
BRANCH   1  18
ATOM     18  C   UNL     1       8.382   9.085  18.134  0.00  0.00    +0.000 C 
BRANCH  18  19
ATOM     19  C   UNL     1       8.313   7.643  18.663  0.00  0.00    +0.000 C 
BRANCH  19  20
ATOM     20  C   UNL     1       7.669   6.699  17.645  0.00  0.00    +0.000 C 
BRANCH  20  21
ATOM     21  N   UNL     1       6.267   6.411  17.921  0.00  0.00    +0.000 N 
ATOM     22  C   UNL     1       5.331   6.734  16.949  0.00  0.00    +0.000 A 
ATOM     23  O   UNL     1       5.598   6.971  15.774  0.00  0.00    +0.000 OA
ATOM     24  N   UNL     1       4.014   6.678  17.372  0.00  0.00    +0.000 N 
ATOM     25  C   UNL     1       3.661   5.526  18.105  0.00  0.00    +0.000 A 
ATOM     26  C   UNL     1       2.373   5.012  17.984  0.00  0.00    +0.000 A 
ATOM     27  C   UNL     1       2.110   3.735  18.480  0.00  0.00    +0.000 A 
ATOM     28  C   UNL     1       3.117   3.008  19.126  0.00  0.00    +0.000 A 
ATOM     29  C   UNL     1       4.380   3.571  19.322  0.00  0.00    +0.000 A 
ATOM     30  C   UNL     1       4.645   4.838  18.806  0.00  0.00    +0.000 A 
ATOM     31  C   UNL     1       5.980   5.466  18.905  0.00  0.00    +0.000 A 
ATOM     32  O   UNL     1       6.763   5.100  19.774  0.00  0.00    +0.000 OA
ATOM     33  H   UNL     1       3.815   7.505  17.929  0.00  0.00    +0.000 HD
ENDBRANCH  20  21
ENDBRANCH  19  20
ENDBRANCH  18  19
ENDBRANCH   1  18
TORSDOF 9
ENDMDL
MODEL 6
REMARK VINA RESULT:      -7.9      7.054      8.283
REMARK  Name = 
REMARK  10 active torsions:
REMARK  status: ('A' for Active; 'I' for Inactive)
REMARK    1  A    between atoms: C_1  and  C_2
REMARK    2  A    between atoms: C_2  and  C_3
REMARK    3  A    between atoms: C_3  and  S_4
REMARK    4  A    between atoms: S_4  and  C_5
REMARK    5  A    between atoms: C_10  and  N_11
REMARK    6  A    between atoms: N_14  and  C_15
REMARK    7  A    between atoms: C_15  and  C_16
REMARK    8  A    between atoms: C_16  and  C_17
REMARK    9  A    between atoms: C_17  and  C_18
REMARK   10  A    between atoms: C_18  and  N_19
REMARK                            x       y       z     vdW  Elec       q    Type
REMARK                         _______ _______ _______ _____ _____    ______ ____
ROOT
ATOM      1  C   UNL     1       8.373  10.199  18.500  0.00  0.00    +0.000 C 
ENDROOT
BRANCH   1   5
ATOM      2  N   UNL     1       9.628  13.218  20.123  0.00  0.00    +0.000 N 
ATOM      3  C   UNL     1       8.735  13.263  18.950  0.00  0.00    +0.000 C 
ATOM      4  C   UNL     1       9.291  12.379  17.805  0.00  0.00    +0.000 C 
ATOM      5  N   UNL     1       9.581  10.975  18.180  0.00  0.00    +0.000 NA
ATOM      6  C   UNL     1      10.499  11.017  19.348  0.00  0.00    +0.000 C 
ATOM      7  C   UNL     1      10.021  11.868  20.553  0.00  0.00    +0.000 C 
BRANCH   2  13
ATOM      8  C   UNL     1       9.386  14.889  21.980  0.00  0.00    +0.000 A 
ATOM      9  C   UNL     1       9.900  16.050  22.602  0.00  0.00    +0.000 A 
ATOM     10  C   UNL     1      11.010  16.726  22.075  0.00  0.00    +0.000 A 
ATOM     11  C   UNL     1      11.618  16.238  20.944  0.00  0.00    +0.000 A 
ATOM     12  C   UNL     1      11.125  15.085  20.323  0.00  0.00    +0.000 A 
ATOM     13  C   UNL     1      10.000  14.375  20.801  0.00  0.00    +0.000 A 
BRANCH   8  14
ATOM     14  S   UNL     1       8.002  14.118  22.838  0.00  0.00    +0.000 S 
BRANCH  14  15
ATOM     15  C   UNL     1       8.554  14.158  24.574  0.00  0.00    +0.000 C 
BRANCH  15  17
ATOM     16  C   UNL     1       8.279  11.660  24.233  0.00  0.00    +0.000 C 
ATOM     17  C   UNL     1       8.163  12.820  25.207  0.00  0.00    +0.000 C 
ENDBRANCH  15  17
ENDBRANCH  14  15
ENDBRANCH   8  14
ENDBRANCH   2  13
ENDBRANCH   1   5
BRANCH   1  18
ATOM     18  C   UNL     1       8.210   8.923  17.655  0.00  0.00    +0.000 C 
BRANCH  18  19
ATOM     19  C   UNL     1       8.093   7.617  18.458  0.00  0.00    +0.000 C 
BRANCH  19  20
ATOM     20  C   UNL     1       7.492   6.489  17.616  0.00  0.00    +0.000 C 
BRANCH  20  21
ATOM     21  N   UNL     1       6.084   6.236  17.899  0.00  0.00    +0.000 N 
ATOM     22  C   UNL     1       5.147   6.642  16.960  0.00  0.00    +0.000 A 
ATOM     23  O   UNL     1       5.406   6.932  15.795  0.00  0.00    +0.000 OA
ATOM     24  N   UNL     1       3.835   6.609  17.400  0.00  0.00    +0.000 N 
ATOM     25  C   UNL     1       3.452   5.433  18.078  0.00  0.00    +0.000 A 
ATOM     26  C   UNL     1       2.145   4.971  17.950  0.00  0.00    +0.000 A 
ATOM     27  C   UNL     1       1.843   3.680  18.384  0.00  0.00    +0.000 A 
ATOM     28  C   UNL     1       2.833   2.885  18.975  0.00  0.00    +0.000 A 
ATOM     29  C   UNL     1       4.118   3.393  19.180  0.00  0.00    +0.000 A 
ATOM     30  C   UNL     1       4.421   4.676  18.727  0.00  0.00    +0.000 A 
ATOM     31  C   UNL     1       5.779   5.251  18.837  0.00  0.00    +0.000 A 
ATOM     32  O   UNL     1       6.560   4.813  19.674  0.00  0.00    +0.000 OA
ATOM     33  H   UNL     1       3.673   7.412  18.003  0.00  0.00    +0.000 HD
ENDBRANCH  20  21
ENDBRANCH  19  20
ENDBRANCH  18  19
ENDBRANCH   1  18
TORSDOF 9
ENDMDL
MODEL 7
REMARK VINA RESULT:      -7.9      7.164      8.341
REMARK  Name = 
REMARK  10 active torsions:
REMARK  status: ('A' for Active; 'I' for Inactive)
REMARK    1  A    between atoms: C_1  and  C_2
REMARK    2  A    between atoms: C_2  and  C_3
REMARK    3  A    between atoms: C_3  and  S_4
REMARK    4  A    between atoms: S_4  and  C_5
REMARK    5  A    between atoms: C_10  and  N_11
REMARK    6  A    between atoms: N_14  and  C_15
REMARK    7  A    between atoms: C_15  and  C_16
REMARK    8  A    between atoms: C_16  and  C_17
REMARK    9  A    between atoms: C_17  and  C_18
REMARK   10  A    between atoms: C_18  and  N_19
REMARK                            x       y       z     vdW  Elec       q    Type
REMARK                         _______ _______ _______ _____ _____    ______ ____
ROOT
ATOM      1  C   UNL     1       8.015  10.022  18.220  0.00  0.00    +0.000 C 
ENDROOT
BRANCH   1   5
ATOM      2  N   UNL     1       9.202  12.807  20.261  0.00  0.00    +0.000 N 
ATOM      3  C   UNL     1       8.718  12.987  18.879  0.00  0.00    +0.000 C 
ATOM      4  C   UNL     1       9.439  12.011  17.916  0.00  0.00    +0.000 C 
ATOM      5  N   UNL     1       9.372  10.583  18.304  0.00  0.00    +0.000 NA
ATOM      6  C   UNL     1       9.894  10.483  19.691  0.00  0.00    +0.000 C 
ATOM      7  C   UNL     1       9.223  11.415  20.734  0.00  0.00    +0.000 C 
BRANCH   2  13
ATOM      8  C   UNL     1      10.680  14.730  20.909  0.00  0.00    +0.000 A 
ATOM      9  C   UNL     1      10.872  15.837  21.764  0.00  0.00    +0.000 A 
ATOM     10  C   UNL     1       9.958  16.136  22.785  0.00  0.00    +0.000 A 
ATOM     11  C   UNL     1       8.846  15.344  22.942  0.00  0.00    +0.000 A 
ATOM     12  C   UNL     1       8.639  14.249  22.097  0.00  0.00    +0.000 A 
ATOM     13  C   UNL     1       9.536  13.893  21.064  0.00  0.00    +0.000 A 
BRANCH   8  14
ATOM     14  S   UNL     1      11.919  14.545  19.614  0.00  0.00    +0.000 S 
BRANCH  14  15
ATOM     15  C   UNL     1      11.580  15.984  18.549  0.00  0.00    +0.000 C 
BRANCH  15  17
ATOM     16  C   UNL     1      12.189  14.101  16.963  0.00  0.00    +0.000 C 
ATOM     17  C   UNL     1      11.591  15.491  17.099  0.00  0.00    +0.000 C 
ENDBRANCH  15  17
ENDBRANCH  14  15
ENDBRANCH   8  14
ENDBRANCH   2  13
ENDBRANCH   1   5
BRANCH   1  18
ATOM     18  C   UNL     1       7.939   8.681  17.471  0.00  0.00    +0.000 C 
BRANCH  18  19
ATOM     19  C   UNL     1       8.080   7.429  18.353  0.00  0.00    +0.000 C 
BRANCH  19  20
ATOM     20  C   UNL     1       7.461   6.198  17.688  0.00  0.00    +0.000 C 
BRANCH  20  21
ATOM     21  N   UNL     1       6.030   6.058  17.935  0.00  0.00    +0.000 N 
ATOM     22  C   UNL     1       5.154   6.440  16.929  0.00  0.00    +0.000 A 
ATOM     23  O   UNL     1       5.471   6.612  15.755  0.00  0.00    +0.000 OA
ATOM     24  N   UNL     1       3.828   6.527  17.319  0.00  0.00    +0.000 N 
ATOM     25  C   UNL     1       3.346   5.439  18.076  0.00  0.00    +0.000 A 
ATOM     26  C   UNL     1       2.017   5.051  17.936  0.00  0.00    +0.000 A 
ATOM     27  C   UNL     1       1.617   3.823  18.464  0.00  0.00    +0.000 A 
ATOM     28  C   UNL     1       2.532   3.021  19.157  0.00  0.00    +0.000 A 
ATOM     29  C   UNL     1       3.840   3.464  19.369  0.00  0.00    +0.000 A 
ATOM     30  C   UNL     1       4.241   4.681  18.823  0.00  0.00    +0.000 A 
ATOM     31  C   UNL     1       5.629   5.178  18.938  0.00  0.00    +0.000 A 
ATOM     32  O   UNL     1       6.351   4.765  19.839  0.00  0.00    +0.000 OA
ATOM     33  H   UNL     1       3.700   7.387  17.845  0.00  0.00    +0.000 HD
ENDBRANCH  20  21
ENDBRANCH  19  20
ENDBRANCH  18  19
ENDBRANCH   1  18
TORSDOF 9
ENDMDL
MODEL 8
REMARK VINA RESULT:      -7.8      6.586      7.565
REMARK  Name = 
REMARK  10 active torsions:
REMARK  status: ('A' for Active; 'I' for Inactive)
REMARK    1  A    between atoms: C_1  and  C_2
REMARK    2  A    between atoms: C_2  and  C_3
REMARK    3  A    between atoms: C_3  and  S_4
REMARK    4  A    between atoms: S_4  and  C_5
REMARK    5  A    between atoms: C_10  and  N_11
REMARK    6  A    between atoms: N_14  and  C_15
REMARK    7  A    between atoms: C_15  and  C_16
REMARK    8  A    between atoms: C_16  and  C_17
REMARK    9  A    between atoms: C_17  and  C_18
REMARK   10  A    between atoms: C_18  and  N_19
REMARK                            x       y       z     vdW  Elec       q    Type
REMARK                         _______ _______ _______ _____ _____    ______ ____
ROOT
ATOM      1  C   UNL     1       8.716   9.931  19.166  0.00  0.00    +0.000 C 
ENDROOT
BRANCH   1   5
ATOM      2  N   UNL     1       9.215  13.535  18.862  0.00  0.00    +0.000 N 
ATOM      3  C   UNL     1       9.114  12.647  17.688  0.00  0.00    +0.000 C 
ATOM      4  C   UNL     1      10.100  11.458  17.814  0.00  0.00    +0.000 C 
ATOM      5  N   UNL     1       9.981  10.674  19.066  0.00  0.00    +0.000 NA
ATOM      6  C   UNL     1      10.115  11.632  20.194  0.00  0.00    +0.000 C 
ATOM      7  C   UNL     1       9.158  12.852  20.163  0.00  0.00    +0.000 C 
BRANCH   2  13
ATOM      8  C   UNL     1       8.190  15.790  18.459  0.00  0.00    +0.000 A 
ATOM      9  C   UNL     1       8.391  17.187  18.400  0.00  0.00    +0.000 A 
ATOM     10  C   UNL     1       9.662  17.747  18.592  0.00  0.00    +0.000 A 
ATOM     11  C   UNL     1      10.727  16.921  18.860  0.00  0.00    +0.000 A 
ATOM     12  C   UNL     1      10.540  15.536  18.929  0.00  0.00    +0.000 A 
ATOM     13  C   UNL     1       9.285  14.917  18.726  0.00  0.00    +0.000 A 
BRANCH   8  14
ATOM     14  S   UNL     1       6.480  15.259  18.257  0.00  0.00    +0.000 S 
BRANCH  14  15
ATOM     15  C   UNL     1       5.820  15.438  19.945  0.00  0.00    +0.000 C 
BRANCH  15  17
ATOM     16  C   UNL     1       4.079  16.550  18.474  0.00  0.00    +0.000 C 
ATOM     17  C   UNL     1       4.367  15.905  19.819  0.00  0.00    +0.000 C 
ENDBRANCH  15  17
ENDBRANCH  14  15
ENDBRANCH   8  14
ENDBRANCH   2  13
ENDBRANCH   1   5
BRANCH   1  18
ATOM     18  C   UNL     1       8.430   9.020  17.960  0.00  0.00    +0.000 C 
BRANCH  18  19
ATOM     19  C   UNL     1       8.026   7.578  18.310  0.00  0.00    +0.000 C 
BRANCH  19  20
ATOM     20  C   UNL     1       7.284   6.904  17.153  0.00  0.00    +0.000 C 
BRANCH  20  21
ATOM     21  N   UNL     1       6.319   5.899  17.585  0.00  0.00    +0.000 N 
ATOM     22  C   UNL     1       6.806   4.735  18.162  0.00  0.00    +0.000 A 
ATOM     23  O   UNL     1       7.943   4.595  18.603  0.00  0.00    +0.000 OA
ATOM     24  N   UNL     1       5.868   3.726  18.307  0.00  0.00    +0.000 N 
ATOM     25  C   UNL     1       4.628   4.124  18.847  0.00  0.00    +0.000 A 
ATOM     26  C   UNL     1       3.922   3.237  19.654  0.00  0.00    +0.000 A 
ATOM     27  C   UNL     1       2.848   3.718  20.404  0.00  0.00    +0.000 A 
ATOM     28  C   UNL     1       2.468   5.062  20.308  0.00  0.00    +0.000 A 
ATOM     29  C   UNL     1       3.127   5.922  19.425  0.00  0.00    +0.000 A 
ATOM     30  C   UNL     1       4.211   5.442  18.694  0.00  0.00    +0.000 A 
ATOM     31  C   UNL     1       5.006   6.311  17.800  0.00  0.00    +0.000 A 
ATOM     32  O   UNL     1       4.513   7.343  17.357  0.00  0.00    +0.000 OA
ATOM     33  H   UNL     1       5.717   3.289  17.402  0.00  0.00    +0.000 HD
ENDBRANCH  20  21
ENDBRANCH  19  20
ENDBRANCH  18  19
ENDBRANCH   1  18
TORSDOF 9
ENDMDL
MODEL 9
REMARK VINA RESULT:      -7.8      5.574      8.851
REMARK  Name = 
REMARK  10 active torsions:
REMARK  status: ('A' for Active; 'I' for Inactive)
REMARK    1  A    between atoms: C_1  and  C_2
REMARK    2  A    between atoms: C_2  and  C_3
REMARK    3  A    between atoms: C_3  and  S_4
REMARK    4  A    between atoms: S_4  and  C_5
REMARK    5  A    between atoms: C_10  and  N_11
REMARK    6  A    between atoms: N_14  and  C_15
REMARK    7  A    between atoms: C_15  and  C_16
REMARK    8  A    between atoms: C_16  and  C_17
REMARK    9  A    between atoms: C_17  and  C_18
REMARK   10  A    between atoms: C_18  and  N_19
REMARK                            x       y       z     vdW  Elec       q    Type
REMARK                         _______ _______ _______ _____ _____    ______ ____
ROOT
ATOM      1  C   UNL     1       7.643   7.262  17.203  0.00  0.00    +0.000 C 
ENDROOT
BRANCH   1   5
ATOM      2  N   UNL     1       4.825   5.057  17.925  0.00  0.00    +0.000 N 
ATOM      3  C   UNL     1       5.551   5.787  18.982  0.00  0.00    +0.000 C 
ATOM      4  C   UNL     1       7.076   5.537  18.870  0.00  0.00    +0.000 C 
ATOM      5  N   UNL     1       7.664   5.831  17.542  0.00  0.00    +0.000 NA
ATOM      6  C   UNL     1       6.896   5.046  16.541  0.00  0.00    +0.000 C 
ATOM      7  C   UNL     1       5.357   5.240  16.567  0.00  0.00    +0.000 C 
BRANCH   2  13
ATOM      8  C   UNL     1       2.517   4.793  18.878  0.00  0.00    +0.000 A 
ATOM      9  C   UNL     1       1.398   3.948  19.048  0.00  0.00    +0.000 A 
ATOM     10  C   UNL     1       1.403   2.629  18.574  0.00  0.00    +0.000 A 
ATOM     11  C   UNL     1       2.513   2.157  17.914  0.00  0.00    +0.000 A 
ATOM     12  C   UNL     1       3.625   2.986  17.731  0.00  0.00    +0.000 A 
ATOM     13  C   UNL     1       3.680   4.317  18.205  0.00  0.00    +0.000 A 
BRANCH   8  14
ATOM     14  S   UNL     1       2.301   6.474  19.490  0.00  0.00    +0.000 S 
BRANCH  14  15
ATOM     15  C   UNL     1       2.275   7.445  17.949  0.00  0.00    +0.000 C 
BRANCH  15  17
ATOM     16  C   UNL     1       1.228   8.956  19.695  0.00  0.00    +0.000 C 
ATOM     17  C   UNL     1       1.862   8.872  18.316  0.00  0.00    +0.000 C 
ENDBRANCH  15  17
ENDBRANCH  14  15
ENDBRANCH   8  14
ENDBRANCH   2  13
ENDBRANCH   1   5
BRANCH   1  18
ATOM     18  C   UNL     1       8.355   8.158  18.231  0.00  0.00    +0.000 C 
BRANCH  18  19
ATOM     19  C   UNL     1       8.057   9.661  18.107  0.00  0.00    +0.000 C 
BRANCH  19  20
ATOM     20  C   UNL     1       9.344  10.486  18.029  0.00  0.00    +0.000 C 
BRANCH  20  21
ATOM     21  N   UNL     1       9.243  11.790  18.674  0.00  0.00    +0.000 N 
ATOM     22  C   UNL     1       8.611  12.813  17.981  0.00  0.00    +0.000 A 
ATOM     23  O   UNL     1       7.883  12.650  17.005  0.00  0.00    +0.000 OA
ATOM     24  N   UNL     1       8.777  14.073  18.530  0.00  0.00    +0.000 N 
ATOM     25  C   UNL     1       8.580  14.157  19.924  0.00  0.00    +0.000 A 
ATOM     26  C   UNL     1       8.041  15.321  20.464  0.00  0.00    +0.000 A 
ATOM     27  C   UNL     1       7.591  15.304  21.785  0.00  0.00    +0.000 A 
ATOM     28  C   UNL     1       7.722  14.145  22.559  0.00  0.00    +0.000 A 
ATOM     29  C   UNL     1       8.348  13.011  22.034  0.00  0.00    +0.000 A 
ATOM     30  C   UNL     1       8.777  13.026  20.709  0.00  0.00    +0.000 A 
ATOM     31  C   UNL     1       9.375  11.840  20.060  0.00  0.00    +0.000 A 
ATOM     32  O   UNL     1       9.886  10.962  20.747  0.00  0.00    +0.000 OA
ATOM     33  H   UNL     1       9.710  14.407  18.302  0.00  0.00    +0.000 HD
ENDBRANCH  20  21
ENDBRANCH  19  20
ENDBRANCH  18  19
ENDBRANCH   1  18
TORSDOF 9
ENDMDL
