MODEL 1
REMARK VINA RESULT:      -7.3      0.000      0.000
REMARK  Name = 
REMARK  4 active torsions:
REMARK  status: ('A' for Active; 'I' for Inactive)
REMARK    1  A    between atoms: C_1  and  N_2
REMARK    2  A    between atoms: C_6  and  C_7
REMARK    3  A    between atoms: N_15  and  C_16
REMARK    4  A    between atoms: C_19  and  C_20
REMARK                            x       y       z     vdW  Elec       q    Type
REMARK                         _______ _______ _______ _____ _____    ______ ____
ROOT
ATOM      1  C   UNL     1       1.851   3.435  21.609  0.00  0.00    +0.000 C 
ATOM      2  N   UNL     1       2.690   3.950  20.548  0.00  0.00    +0.000 N 
ATOM      3  C   UNL     1       3.502   3.114  19.809  0.00  0.00    +0.000 C 
ATOM      4  O   UNL     1       3.610   1.902  19.934  0.00  0.00    +0.000 OA
ATOM      5  C   UNL     1       4.217   3.898  18.765  0.00  0.00    +0.000 C 
ATOM      6  C   UNL     1       4.941   3.331  17.790  0.00  0.00    +0.000 C 
ATOM      7  S   UNL     1       3.901   5.570  18.981  0.00  0.00    +0.000 S 
ATOM      8  C   UNL     1       2.645   5.271  20.167  0.00  0.00    +0.000 C 
ATOM      9  N   UNL     1       1.769   6.097  20.644  0.00  0.00    +0.000 NA
ENDROOT
BRANCH   6  10
ATOM     10  C   UNL     1       5.593   4.058  16.698  0.00  0.00    +0.000 A 
ATOM     11  C   UNL     1       4.997   4.139  15.443  0.00  0.00    +0.000 A 
ATOM     12  C   UNL     1       5.666   4.821  14.440  0.00  0.00    +0.000 A 
ATOM     13  N   UNL     1       6.868   5.413  14.608  0.00  0.00    +0.000 NA
ATOM     14  C   UNL     1       7.427   5.319  15.831  0.00  0.00    +0.000 A 
ATOM     15  C   UNL     1       6.836   4.660  16.898  0.00  0.00    +0.000 A 
ENDBRANCH   6  10
BRANCH   9  16
ATOM     16  C   UNL     1       1.655   7.429  20.205  0.00  0.00    +0.000 A 
ATOM     17  C   UNL     1       1.901   7.821  18.885  0.00  0.00    +0.000 A 
ATOM     18  C   UNL     1       1.808   9.157  18.492  0.00  0.00    +0.000 A 
ATOM     19  C   UNL     1       1.370  10.132  19.392  0.00  0.00    +0.000 A 
ATOM     20  C   UNL     1       1.030   9.736  20.694  0.00  0.00    +0.000 A 
ATOM     21  C   UNL     1       1.180   8.399  21.094  0.00  0.00    +0.000 A 
BRANCH  19  22
ATOM     22  C   UNL     1       1.238  11.571  18.957  0.00  0.00    +0.000 C 
ATOM     23  F   UNL     1       1.307  12.458  19.990  0.00  0.00    +0.000 F 
ATOM     24  F   UNL     1       2.215  11.943  18.085  0.00  0.00    +0.000 F 
ATOM     25  F   UNL     1       0.056  11.825  18.330  0.00  0.00    +0.000 F 
ENDBRANCH  19  22
ENDBRANCH   9  16
TORSDOF 3
ENDMDL
MODEL 2
REMARK VINA RESULT:      -7.3      0.093      1.199
REMARK  Name = 
REMARK  4 active torsions:
REMARK  status: ('A' for Active; 'I' for Inactive)
REMARK    1  A    between atoms: C_1  and  N_2
REMARK    2  A    between atoms: C_6  and  C_7
REMARK    3  A    between atoms: N_15  and  C_16
REMARK    4  A    between atoms: C_19  and  C_20
REMARK                            x       y       z     vdW  Elec       q    Type
REMARK                         _______ _______ _______ _____ _____    ______ ____
ROOT
ATOM      1  C   UNL     1       1.791   3.440  21.624  0.00  0.00    +0.000 C 
ATOM      2  N   UNL     1       2.652   3.959  20.582  0.00  0.00    +0.000 N 
ATOM      3  C   UNL     1       3.486   3.126  19.864  0.00  0.00    +0.000 C 
ATOM      4  O   UNL     1       3.600   1.915  19.995  0.00  0.00    +0.000 OA
ATOM      5  C   UNL     1       4.221   3.913  18.836  0.00  0.00    +0.000 C 
ATOM      6  C   UNL     1       4.972   3.348  17.880  0.00  0.00    +0.000 C 
ATOM      7  S   UNL     1       3.888   5.583  19.040  0.00  0.00    +0.000 S 
ATOM      8  C   UNL     1       2.607   5.278  20.197  0.00  0.00    +0.000 C 
ATOM      9  N   UNL     1       1.714   6.100  20.650  0.00  0.00    +0.000 NA
ENDROOT
BRANCH   6  10
ATOM     10  C   UNL     1       5.645   4.077  16.802  0.00  0.00    +0.000 A 
ATOM     11  C   UNL     1       6.882   4.679  17.017  0.00  0.00    +0.000 A 
ATOM     12  C   UNL     1       7.466   5.374  15.971  0.00  0.00    +0.000 A 
ATOM     13  N   UNL     1       6.904   5.504  14.750  0.00  0.00    +0.000 NA
ATOM     14  C   UNL     1       5.705   4.914  14.567  0.00  0.00    +0.000 A 
ATOM     15  C   UNL     1       5.042   4.197  15.550  0.00  0.00    +0.000 A 
ENDBRANCH   6  10
BRANCH   9  16
ATOM     16  C   UNL     1       1.601   7.430  20.205  0.00  0.00    +0.000 A 
ATOM     17  C   UNL     1       1.822   7.810  18.877  0.00  0.00    +0.000 A 
ATOM     18  C   UNL     1       1.731   9.145  18.477  0.00  0.00    +0.000 A 
ATOM     19  C   UNL     1       1.321  10.130  19.381  0.00  0.00    +0.000 A 
ATOM     20  C   UNL     1       1.006   9.744  20.692  0.00  0.00    +0.000 A 
ATOM     21  C   UNL     1       1.154   8.409  21.098  0.00  0.00    +0.000 A 
BRANCH  19  22
ATOM     22  C   UNL     1       1.192  11.567  18.939  0.00  0.00    +0.000 C 
ATOM     23  F   UNL     1      -0.019  11.855  18.382  0.00  0.00    +0.000 F 
ATOM     24  F   UNL     1       1.344  12.444  19.968  0.00  0.00    +0.000 F 
ATOM     25  F   UNL     1       2.120  11.916  18.006  0.00  0.00    +0.000 F 
ENDBRANCH  19  22
ENDBRANCH   9  16
TORSDOF 3
ENDMDL
MODEL 3
REMARK VINA RESULT:      -7.1      0.570      1.354
REMARK  Name = 
REMARK  4 active torsions:
REMARK  status: ('A' for Active; 'I' for Inactive)
REMARK    1  A    between atoms: C_1  and  N_2
REMARK    2  A    between atoms: C_6  and  C_7
REMARK    3  A    between atoms: N_15  and  C_16
REMARK    4  A    between atoms: C_19  and  C_20
REMARK                            x       y       z     vdW  Elec       q    Type
REMARK                         _______ _______ _______ _____ _____    ______ ____
ROOT
ATOM      1  C   UNL     1       1.487   3.248  21.467  0.00  0.00    +0.000 C 
ATOM      2  N   UNL     1       2.461   3.852  20.583  0.00  0.00    +0.000 N 
ATOM      3  C   UNL     1       3.394   3.085  19.916  0.00  0.00    +0.000 C 
ATOM      4  O   UNL     1       3.514   1.869  19.970  0.00  0.00    +0.000 OA
ATOM      5  C   UNL     1       4.235   3.954  19.048  0.00  0.00    +0.000 C 
ATOM      6  C   UNL     1       5.110   3.471  18.155  0.00  0.00    +0.000 C 
ATOM      7  S   UNL     1       3.847   5.601  19.331  0.00  0.00    +0.000 S 
ATOM      8  C   UNL     1       2.438   5.196  20.293  0.00  0.00    +0.000 C 
ATOM      9  N   UNL     1       1.480   5.972  20.689  0.00  0.00    +0.000 NA
ENDROOT
BRANCH   6  10
ATOM     10  C   UNL     1       5.898   4.286  17.226  0.00  0.00    +0.000 A 
ATOM     11  C   UNL     1       5.947   3.971  15.871  0.00  0.00    +0.000 A 
ATOM     12  C   UNL     1       6.723   4.762  15.040  0.00  0.00    +0.000 A 
ATOM     13  N   UNL     1       7.439   5.824  15.468  0.00  0.00    +0.000 NA
ATOM     14  C   UNL     1       7.378   6.107  16.785  0.00  0.00    +0.000 A 
ATOM     15  C   UNL     1       6.630   5.377  17.695  0.00  0.00    +0.000 A 
ENDBRANCH   6  10
BRANCH   9  16
ATOM     16  C   UNL     1       1.398   7.331  20.333  0.00  0.00    +0.000 A 
ATOM     17  C   UNL     1       1.092   8.342  21.251  0.00  0.00    +0.000 A 
ATOM     18  C   UNL     1       0.988   9.677  20.857  0.00  0.00    +0.000 A 
ATOM     19  C   UNL     1       1.283  10.053  19.543  0.00  0.00    +0.000 A 
ATOM     20  C   UNL     1       1.682   9.059  18.636  0.00  0.00    +0.000 A 
ATOM     21  C   UNL     1       1.729   7.713  19.030  0.00  0.00    +0.000 A 
BRANCH  19  22
ATOM     22  C   UNL     1       1.202  11.501  19.126  0.00  0.00    +0.000 C 
ATOM     23  F   UNL     1       0.063  11.804  18.441  0.00  0.00    +0.000 F 
ATOM     24  F   UNL     1       1.233  12.351  20.188  0.00  0.00    +0.000 F 
ATOM     25  F   UNL     1       2.231  11.873  18.314  0.00  0.00    +0.000 F 
ENDBRANCH  19  22
ENDBRANCH   9  16
TORSDOF 3
ENDMDL
MODEL 4
REMARK VINA RESULT:      -7.1      0.360      1.387
REMARK  Name = 
REMARK  4 active torsions:
REMARK  status: ('A' for Active; 'I' for Inactive)
REMARK    1  A    between atoms: C_1  and  N_2
REMARK    2  A    between atoms: C_6  and  C_7
REMARK    3  A    between atoms: N_15  and  C_16
REMARK    4  A    between atoms: C_19  and  C_20
REMARK                            x       y       z     vdW  Elec       q    Type
REMARK                         _______ _______ _______ _____ _____    ______ ____
ROOT
ATOM      1  C   UNL     1       1.601   3.205  21.571  0.00  0.00    +0.000 C 
ATOM      2  N   UNL     1       2.516   3.791  20.615  0.00  0.00    +0.000 N 
ATOM      3  C   UNL     1       3.405   3.008  19.905  0.00  0.00    +0.000 C 
ATOM      4  O   UNL     1       3.528   1.793  19.976  0.00  0.00    +0.000 OA
ATOM      5  C   UNL     1       4.190   3.859  18.968  0.00  0.00    +0.000 C 
ATOM      6  C   UNL     1       5.006   3.357  18.031  0.00  0.00    +0.000 C 
ATOM      7  S   UNL     1       3.821   5.512  19.244  0.00  0.00    +0.000 S 
ATOM      8  C   UNL     1       2.476   5.128  20.300  0.00  0.00    +0.000 C 
ATOM      9  N   UNL     1       1.546   5.914  20.742  0.00  0.00    +0.000 NA
ENDROOT
BRANCH   6  10
ATOM     10  C   UNL     1       5.733   4.152  17.039  0.00  0.00    +0.000 A 
ATOM     11  C   UNL     1       6.863   4.881  17.403  0.00  0.00    +0.000 A 
ATOM     12  C   UNL     1       7.501   5.633  16.431  0.00  0.00    +0.000 A 
ATOM     13  N   UNL     1       7.091   5.702  15.146  0.00  0.00    +0.000 NA
ATOM     14  C   UNL     1       5.994   4.990  14.818  0.00  0.00    +0.000 A 
ATOM     15  C   UNL     1       5.288   4.207  15.718  0.00  0.00    +0.000 A 
ENDBRANCH   6  10
BRANCH   9  16
ATOM     16  C   UNL     1       1.442   7.265  20.365  0.00  0.00    +0.000 A 
ATOM     17  C   UNL     1       1.015   8.270  21.241  0.00  0.00    +0.000 A 
ATOM     18  C   UNL     1       0.894   9.596  20.824  0.00  0.00    +0.000 A 
ATOM     19  C   UNL     1       1.291   9.975  19.538  0.00  0.00    +0.000 A 
ATOM     20  C   UNL     1       1.809   8.992  18.682  0.00  0.00    +0.000 A 
ATOM     21  C   UNL     1       1.874   7.651  19.093  0.00  0.00    +0.000 A 
BRANCH  19  22
ATOM     22  C   UNL     1       1.190  11.416  19.100  0.00  0.00    +0.000 C 
ATOM     23  F   UNL     1       1.575  12.302  20.061  0.00  0.00    +0.000 F 
ATOM     24  F   UNL     1       1.967  11.685  18.015  0.00  0.00    +0.000 F 
ATOM     25  F   UNL     1      -0.078  11.773  18.753  0.00  0.00    +0.000 F 
ENDBRANCH  19  22
ENDBRANCH   9  16
TORSDOF 3
ENDMDL
MODEL 5
REMARK VINA RESULT:      -7.0      5.457      8.649
REMARK  Name = 
REMARK  4 active torsions:
REMARK  status: ('A' for Active; 'I' for Inactive)
REMARK    1  A    between atoms: C_1  and  N_2
REMARK    2  A    between atoms: C_6  and  C_7
REMARK    3  A    between atoms: N_15  and  C_16
REMARK    4  A    between atoms: C_19  and  C_20
REMARK                            x       y       z     vdW  Elec       q    Type
REMARK                         _______ _______ _______ _____ _____    ______ ____
ROOT
ATOM      1  C   UNL     1      -1.986  12.769  19.709  0.00  0.00    +0.000 C 
ATOM      2  N   UNL     1      -0.577  12.969  19.448  0.00  0.00    +0.000 N 
ATOM      3  C   UNL     1      -0.010  14.226  19.508  0.00  0.00    +0.000 C 
ATOM      4  O   UNL     1      -0.582  15.273  19.780  0.00  0.00    +0.000 OA
ATOM      5  C   UNL     1       1.451  14.135  19.240  0.00  0.00    +0.000 C 
ATOM      6  C   UNL     1       2.291  15.167  19.399  0.00  0.00    +0.000 C 
ATOM      7  S   UNL     1       1.855  12.530  18.785  0.00  0.00    +0.000 S 
ATOM      8  C   UNL     1       0.274  11.913  19.225  0.00  0.00    +0.000 C 
ATOM      9  N   UNL     1      -0.103  10.681  19.358  0.00  0.00    +0.000 NA
ENDROOT
BRANCH   6  10
ATOM     10  C   UNL     1       3.744  15.100  19.225  0.00  0.00    +0.000 A 
ATOM     11  C   UNL     1       4.304  15.031  17.952  0.00  0.00    +0.000 A 
ATOM     12  C   UNL     1       5.682  14.948  17.844  0.00  0.00    +0.000 A 
ATOM     13  N   UNL     1       6.519  14.929  18.903  0.00  0.00    +0.000 NA
ATOM     14  C   UNL     1       5.953  14.995  20.126  0.00  0.00    +0.000 A 
ATOM     15  C   UNL     1       4.586  15.081  20.337  0.00  0.00    +0.000 A 
ENDBRANCH   6  10
BRANCH   9  16
ATOM     16  C   UNL     1       0.774   9.591  19.216  0.00  0.00    +0.000 A 
ATOM     17  C   UNL     1       1.128   8.753  20.279  0.00  0.00    +0.000 A 
ATOM     18  C   UNL     1       2.026   7.699  20.108  0.00  0.00    +0.000 A 
ATOM     19  C   UNL     1       2.525   7.390  18.839  0.00  0.00    +0.000 A 
ATOM     20  C   UNL     1       2.103   8.165  17.749  0.00  0.00    +0.000 A 
ATOM     21  C   UNL     1       1.243   9.258  17.941  0.00  0.00    +0.000 A 
BRANCH  19  22
ATOM     22  C   UNL     1       3.470   6.229  18.650  0.00  0.00    +0.000 C 
ATOM     23  F   UNL     1       4.554   6.534  17.882  0.00  0.00    +0.000 F 
ATOM     24  F   UNL     1       3.969   5.767  19.829  0.00  0.00    +0.000 F 
ATOM     25  F   UNL     1       2.878   5.161  18.047  0.00  0.00    +0.000 F 
ENDBRANCH  19  22
ENDBRANCH   9  16
TORSDOF 3
ENDMDL
MODEL 6
REMARK VINA RESULT:      -6.9      5.478      8.634
REMARK  Name = 
REMARK  4 active torsions:
REMARK  status: ('A' for Active; 'I' for Inactive)
REMARK    1  A    between atoms: C_1  and  N_2
REMARK    2  A    between atoms: C_6  and  C_7
REMARK    3  A    between atoms: N_15  and  C_16
REMARK    4  A    between atoms: C_19  and  C_20
REMARK                            x       y       z     vdW  Elec       q    Type
REMARK                         _______ _______ _______ _____ _____    ______ ____
ROOT
ATOM      1  C   UNL     1      -1.912  12.828  19.705  0.00  0.00    +0.000 C 
ATOM      2  N   UNL     1      -0.499  13.008  19.446  0.00  0.00    +0.000 N 
ATOM      3  C   UNL     1       0.093  14.251  19.544  0.00  0.00    +0.000 C 
ATOM      4  O   UNL     1      -0.456  15.300  19.851  0.00  0.00    +0.000 OA
ATOM      5  C   UNL     1       1.552  14.138  19.270  0.00  0.00    +0.000 C 
ATOM      6  C   UNL     1       2.413  15.147  19.459  0.00  0.00    +0.000 C 
ATOM      7  S   UNL     1       1.922  12.541  18.763  0.00  0.00    +0.000 S 
ATOM      8  C   UNL     1       0.330  11.942  19.188  0.00  0.00    +0.000 C 
ATOM      9  N   UNL     1      -0.073  10.715  19.282  0.00  0.00    +0.000 NA
ENDROOT
BRANCH   6  10
ATOM     10  C   UNL     1       3.864  15.056  19.279  0.00  0.00    +0.000 A 
ATOM     11  C   UNL     1       4.716  15.025  20.380  0.00  0.00    +0.000 A 
ATOM     12  C   UNL     1       6.081  14.960  20.153  0.00  0.00    +0.000 A 
ATOM     13  N   UNL     1       6.637  14.926  18.923  0.00  0.00    +0.000 NA
ATOM     14  C   UNL     1       5.792  14.960  17.873  0.00  0.00    +0.000 A 
ATOM     15  C   UNL     1       4.413  15.024  17.996  0.00  0.00    +0.000 A 
ENDBRANCH   6  10
BRANCH   9  16
ATOM     16  C   UNL     1       0.782   9.612  19.103  0.00  0.00    +0.000 A 
ATOM     17  C   UNL     1       1.389   9.310  17.879  0.00  0.00    +0.000 A 
ATOM     18  C   UNL     1       2.208   8.189  17.729  0.00  0.00    +0.000 A 
ATOM     19  C   UNL     1       2.522   7.387  18.830  0.00  0.00    +0.000 A 
ATOM     20  C   UNL     1       1.993   7.735  20.082  0.00  0.00    +0.000 A 
ATOM     21  C   UNL     1       1.127   8.832  20.211  0.00  0.00    +0.000 A 
BRANCH  19  22
ATOM     22  C   UNL     1       3.433   6.194  18.673  0.00  0.00    +0.000 C 
ATOM     23  F   UNL     1       3.842   5.666  19.861  0.00  0.00    +0.000 F 
ATOM     24  F   UNL     1       2.841   5.172  17.997  0.00  0.00    +0.000 F 
ATOM     25  F   UNL     1       4.573   6.490  17.988  0.00  0.00    +0.000 F 
ENDBRANCH  19  22
ENDBRANCH   9  16
TORSDOF 3
ENDMDL
MODEL 7
REMARK VINA RESULT:      -6.6      6.974     10.176
REMARK  Name = 
REMARK  4 active torsions:
REMARK  status: ('A' for Active; 'I' for Inactive)
REMARK    1  A    between atoms: C_1  and  N_2
REMARK    2  A    between atoms: C_6  and  C_7
REMARK    3  A    between atoms: N_15  and  C_16
REMARK    4  A    between atoms: C_19  and  C_20
REMARK                            x       y       z     vdW  Elec       q    Type
REMARK                         _______ _______ _______ _____ _____    ______ ____
ROOT
ATOM      1  C   UNL     1       0.685  10.134  18.719  0.00  0.00    +0.000 C 
ATOM      2  N   UNL     1      -0.635  10.728  18.747  0.00  0.00    +0.000 N 
ATOM      3  C   UNL     1      -1.607  10.354  17.842  0.00  0.00    +0.000 C 
ATOM      4  O   UNL     1      -1.497   9.518  16.955  0.00  0.00    +0.000 OA
ATOM      5  C   UNL     1      -2.871  11.087  18.126  0.00  0.00    +0.000 C 
ATOM      6  C   UNL     1      -4.033  10.805  17.522  0.00  0.00    +0.000 C 
ATOM      7  S   UNL     1      -2.599  12.249  19.359  0.00  0.00    +0.000 S 
ATOM      8  C   UNL     1      -1.008  11.614  19.730  0.00  0.00    +0.000 C 
ATOM      9  N   UNL     1      -0.252  11.872  20.750  0.00  0.00    +0.000 NA
ENDROOT
BRANCH   6  10
ATOM     10  C   UNL     1      -5.315  11.446  17.828  0.00  0.00    +0.000 A 
ATOM     11  C   UNL     1      -5.772  12.519  17.068  0.00  0.00    +0.000 A 
ATOM     12  C   UNL     1      -6.979  13.102  17.414  0.00  0.00    +0.000 A 
ATOM     13  N   UNL     1      -7.744  12.690  18.448  0.00  0.00    +0.000 NA
ATOM     14  C   UNL     1      -7.279  11.650  19.170  0.00  0.00    +0.000 A 
ATOM     15  C   UNL     1      -6.085  11.000  18.903  0.00  0.00    +0.000 A 
ENDBRANCH   6  10
BRANCH   9  16
ATOM     16  C   UNL     1      -0.652  12.711  21.807  0.00  0.00    +0.000 A 
ATOM     17  C   UNL     1      -1.494  12.287  22.840  0.00  0.00    +0.000 A 
ATOM     18  C   UNL     1      -1.894  13.156  23.856  0.00  0.00    +0.000 A 
ATOM     19  C   UNL     1      -1.384  14.456  23.920  0.00  0.00    +0.000 A 
ATOM     20  C   UNL     1      -0.465  14.862  22.941  0.00  0.00    +0.000 A 
ATOM     21  C   UNL     1      -0.112  13.998  21.893  0.00  0.00    +0.000 A 
BRANCH  19  22
ATOM     22  C   UNL     1      -1.792  15.384  25.038  0.00  0.00    +0.000 C 
ATOM     23  F   UNL     1      -0.957  15.335  26.115  0.00  0.00    +0.000 F 
ATOM     24  F   UNL     1      -1.818  16.688  24.649  0.00  0.00    +0.000 F 
ATOM     25  F   UNL     1      -3.035  15.109  25.522  0.00  0.00    +0.000 F 
ENDBRANCH  19  22
ENDBRANCH   9  16
TORSDOF 3
ENDMDL
MODEL 8
REMARK VINA RESULT:      -6.6      7.014     10.252
REMARK  Name = 
REMARK  4 active torsions:
REMARK  status: ('A' for Active; 'I' for Inactive)
REMARK    1  A    between atoms: C_1  and  N_2
REMARK    2  A    between atoms: C_6  and  C_7
REMARK    3  A    between atoms: N_15  and  C_16
REMARK    4  A    between atoms: C_19  and  C_20
REMARK                            x       y       z     vdW  Elec       q    Type
REMARK                         _______ _______ _______ _____ _____    ______ ____
ROOT
ATOM      1  C   UNL     1       0.582  10.083  18.808  0.00  0.00    +0.000 C 
ATOM      2  N   UNL     1      -0.725  10.704  18.823  0.00  0.00    +0.000 N 
ATOM      3  C   UNL     1      -1.701  10.338  17.918  0.00  0.00    +0.000 C 
ATOM      4  O   UNL     1      -1.604   9.489  17.042  0.00  0.00    +0.000 OA
ATOM      5  C   UNL     1      -2.951  11.101  18.187  0.00  0.00    +0.000 C 
ATOM      6  C   UNL     1      -4.116  10.835  17.581  0.00  0.00    +0.000 C 
ATOM      7  S   UNL     1      -2.661  12.273  19.406  0.00  0.00    +0.000 S 
ATOM      8  C   UNL     1      -1.084  11.610  19.793  0.00  0.00    +0.000 C 
ATOM      9  N   UNL     1      -0.328  11.866  20.812  0.00  0.00    +0.000 NA
ENDROOT
BRANCH   6  10
ATOM     10  C   UNL     1      -5.386  11.506  17.873  0.00  0.00    +0.000 A 
ATOM     11  C   UNL     1      -5.824  12.570  17.089  0.00  0.00    +0.000 A 
ATOM     12  C   UNL     1      -7.020  13.182  17.422  0.00  0.00    +0.000 A 
ATOM     13  N   UNL     1      -7.791  12.808  18.465  0.00  0.00    +0.000 NA
ATOM     14  C   UNL     1      -7.345  11.776  19.211  0.00  0.00    +0.000 A 
ATOM     15  C   UNL     1      -6.162  11.099  18.959  0.00  0.00    +0.000 A 
ENDBRANCH   6  10
BRANCH   9  16
ATOM     16  C   UNL     1      -0.714  12.727  21.856  0.00  0.00    +0.000 A 
ATOM     17  C   UNL     1      -0.268  14.049  21.958  0.00  0.00    +0.000 A 
ATOM     18  C   UNL     1      -0.648  14.866  23.024  0.00  0.00    +0.000 A 
ATOM     19  C   UNL     1      -1.568  14.411  23.974  0.00  0.00    +0.000 A 
ATOM     20  C   UNL     1      -2.094  13.119  23.828  0.00  0.00    +0.000 A 
ATOM     21  C   UNL     1      -1.663  12.287  22.784  0.00  0.00    +0.000 A 
BRANCH  19  22
ATOM     22  C   UNL     1      -2.002  15.307  25.108  0.00  0.00    +0.000 C 
ATOM     23  F   UNL     1      -2.106  16.619  24.752  0.00  0.00    +0.000 F 
ATOM     24  F   UNL     1      -3.221  14.962  25.606  0.00  0.00    +0.000 F 
ATOM     25  F   UNL     1      -1.141  15.277  26.162  0.00  0.00    +0.000 F 
ENDBRANCH  19  22
ENDBRANCH   9  16
TORSDOF 3
ENDMDL
MODEL 9
REMARK VINA RESULT:      -6.6      5.251      8.503
REMARK  Name = 
REMARK  4 active torsions:
REMARK  status: ('A' for Active; 'I' for Inactive)
REMARK    1  A    between atoms: C_1  and  N_2
REMARK    2  A    between atoms: C_6  and  C_7
REMARK    3  A    between atoms: N_15  and  C_16
REMARK    4  A    between atoms: C_19  and  C_20
REMARK                            x       y       z     vdW  Elec       q    Type
REMARK                         _______ _______ _______ _____ _____    ______ ____
ROOT
ATOM      1  C   UNL     1      -1.391  11.871  22.806  0.00  0.00    +0.000 C 
ATOM      2  N   UNL     1      -0.398  12.315  21.851  0.00  0.00    +0.000 N 
ATOM      3  C   UNL     1      -0.000  13.635  21.796  0.00  0.00    +0.000 C 
ATOM      4  O   UNL     1      -0.399  14.549  22.504  0.00  0.00    +0.000 OA
ATOM      5  C   UNL     1       1.055  13.802  20.759  0.00  0.00    +0.000 C 
ATOM      6  C   UNL     1       1.752  14.935  20.598  0.00  0.00    +0.000 C 
ATOM      7  S   UNL     1       1.258  12.330  19.901  0.00  0.00    +0.000 S 
ATOM      8  C   UNL     1       0.260  11.432  21.028  0.00  0.00    +0.000 C 
ATOM      9  N   UNL     1       0.124  10.149  21.142  0.00  0.00    +0.000 NA
ENDROOT
BRANCH   6  10
ATOM     10  C   UNL     1       2.851  15.116  19.646  0.00  0.00    +0.000 A 
ATOM     11  C   UNL     1       2.596  15.497  18.331  0.00  0.00    +0.000 A 
ATOM     12  C   UNL     1       3.669  15.633  17.467  0.00  0.00    +0.000 A 
ATOM     13  N   UNL     1       4.953  15.417  17.824  0.00  0.00    +0.000 NA
ATOM     14  C   UNL     1       5.175  15.048  19.102  0.00  0.00    +0.000 A 
ATOM     15  C   UNL     1       4.169  14.886  20.041  0.00  0.00    +0.000 A 
ENDBRANCH   6  10
BRANCH   9  16
ATOM     16  C   UNL     1       0.850   9.229  20.364  0.00  0.00    +0.000 A 
ATOM     17  C   UNL     1       1.142   9.438  19.012  0.00  0.00    +0.000 A 
ATOM     18  C   UNL     1       1.840   8.489  18.262  0.00  0.00    +0.000 A 
ATOM     19  C   UNL     1       2.352   7.340  18.872  0.00  0.00    +0.000 A 
ATOM     20  C   UNL     1       2.146   7.166  20.249  0.00  0.00    +0.000 A 
ATOM     21  C   UNL     1       1.395   8.099  20.981  0.00  0.00    +0.000 A 
BRANCH  19  22
ATOM     22  C   UNL     1       3.134   6.331  18.067  0.00  0.00    +0.000 C 
ATOM     23  F   UNL     1       3.793   6.878  17.007  0.00  0.00    +0.000 F 
ATOM     24  F   UNL     1       4.085   5.699  18.808  0.00  0.00    +0.000 F 
ATOM     25  F   UNL     1       2.347   5.349  17.547  0.00  0.00    +0.000 F 
ENDBRANCH  19  22
ENDBRANCH   9  16
TORSDOF 3
ENDMDL
