MODEL 1
REMARK VINA RESULT:      -8.2      0.000      0.000
REMARK  Name = 
REMARK  5 active torsions:
REMARK  status: ('A' for Active; 'I' for Inactive)
REMARK    1  A    between atoms: C_1  and  C_2
REMARK    2  A    between atoms: C_7  and  C_8
REMARK    3  A    between atoms: C_16  and  C_17
REMARK    4  A    between atoms: N_19  and  C_20
REMARK    5  A    between atoms: C_20  and  C_21
REMARK                            x       y       z     vdW  Elec       q    Type
REMARK                         _______ _______ _______ _____ _____    ______ ____
ROOT
ATOM      1  C   UNL     1       3.653   1.308  18.853  0.00  0.00    +0.000 C 
ATOM      2  C   UNL     1       3.046   2.596  19.325  0.00  0.00    +0.000 A 
ATOM      3  C   UNL     1       1.968   2.616  20.202  0.00  0.00    +0.000 A 
ATOM      4  C   UNL     1       1.419   3.835  20.600  0.00  0.00    +0.000 A 
ATOM      5  C   UNL     1       1.887   5.051  20.119  0.00  0.00    +0.000 A 
ATOM      6  N   UNL     1       1.294   6.168  20.571  0.00  0.00    +0.000 NA
ATOM      7  C   UNL     1       1.722   7.381  20.146  0.00  0.00    +0.000 A 
ATOM      8  C   UNL     1       2.720   7.489  19.194  0.00  0.00    +0.000 A 
ATOM      9  C   UNL     1       3.336   6.330  18.708  0.00  0.00    +0.000 A 
ATOM     10  C   UNL     1       2.951   5.059  19.195  0.00  0.00    +0.000 A 
ATOM     11  C   UNL     1       3.548   3.815  18.856  0.00  0.00    +0.000 A 
ENDROOT
BRANCH   7  12
ATOM     12  C   UNL     1       1.063   8.553  20.762  0.00  0.00    +0.000 A 
ATOM     13  C   UNL     1       0.699   8.577  22.123  0.00  0.00    +0.000 A 
ATOM     14  C   UNL     1       0.070   9.688  22.696  0.00  0.00    +0.000 A 
ATOM     15  C   UNL     1      -0.214  10.800  21.911  0.00  0.00    +0.000 A 
ATOM     16 BR   UNL     1      -1.069  12.299  22.682  0.00  0.00    +0.000 Br
ATOM     17  C   UNL     1       0.121  10.809  20.561  0.00  0.00    +0.000 A 
ATOM     18  C   UNL     1       0.750   9.695  19.996  0.00  0.00    +0.000 A 
ENDBRANCH   7  12
BRANCH   9  19
ATOM     19  C   UNL     1       4.394   6.567  17.684  0.00  0.00    +0.000 C 
ATOM     20  O   UNL     1       4.080   7.030  16.591  0.00  0.00    +0.000 OA
ATOM     21  N   UNL     1       5.676   6.182  17.993  0.00  0.00    +0.000 N 
ATOM     22  H   UNL     1       5.881   5.690  18.854  0.00  0.00    +0.000 HD
BRANCH  21  23
ATOM     23  C   UNL     1       6.793   6.360  17.075  0.00  0.00    +0.000 C 
BRANCH  23  24
ATOM     24  C   UNL     1       6.999   5.129  16.192  0.00  0.00    +0.000 C 
ATOM     25  C   UNL     1       6.564   5.314  14.745  0.00  0.00    +0.000 C 
ATOM     26  C   UNL     1       6.206   3.907  14.342  0.00  0.00    +0.000 C 
ATOM     27  C   UNL     1       5.614   3.339  15.613  0.00  0.00    +0.000 C 
ATOM     28  O   UNL     1       6.233   4.021  16.713  0.00  0.00    +0.000 OA
ENDBRANCH  23  24
ENDBRANCH  21  23
ENDBRANCH   9  19
TORSDOF 4
ENDMDL
MODEL 2
REMARK VINA RESULT:      -8.1      0.692      1.278
REMARK  Name = 
REMARK  5 active torsions:
REMARK  status: ('A' for Active; 'I' for Inactive)
REMARK    1  A    between atoms: C_1  and  C_2
REMARK    2  A    between atoms: C_7  and  C_8
REMARK    3  A    between atoms: C_16  and  C_17
REMARK    4  A    between atoms: N_19  and  C_20
REMARK    5  A    between atoms: C_20  and  C_21
REMARK                            x       y       z     vdW  Elec       q    Type
REMARK                         _______ _______ _______ _____ _____    ______ ____
ROOT
ATOM      1  C   UNL     1       3.642   1.305  18.885  0.00  0.00    +0.000 C 
ATOM      2  C   UNL     1       3.013   2.580  19.361  0.00  0.00    +0.000 A 
ATOM      3  C   UNL     1       1.926   2.577  20.228  0.00  0.00    +0.000 A 
ATOM      4  C   UNL     1       1.356   3.786  20.631  0.00  0.00    +0.000 A 
ATOM      5  C   UNL     1       1.811   5.012  20.164  0.00  0.00    +0.000 A 
ATOM      6  N   UNL     1       1.199   6.117  20.619  0.00  0.00    +0.000 NA
ATOM      7  C   UNL     1       1.613   7.339  20.208  0.00  0.00    +0.000 A 
ATOM      8  C   UNL     1       2.619   7.469  19.266  0.00  0.00    +0.000 A 
ATOM      9  C   UNL     1       3.255   6.322  18.777  0.00  0.00    +0.000 A 
ATOM     10  C   UNL     1       2.884   5.042  19.250  0.00  0.00    +0.000 A 
ATOM     11  C   UNL     1       3.502   3.810  18.907  0.00  0.00    +0.000 A 
ENDROOT
BRANCH   7  12
ATOM     12  C   UNL     1       0.932   8.497  20.827  0.00  0.00    +0.000 A 
ATOM     13  C   UNL     1       0.578   9.640  20.083  0.00  0.00    +0.000 A 
ATOM     14  C   UNL     1      -0.060  10.734  20.680  0.00  0.00    +0.000 A 
ATOM     15  C   UNL     1      -0.351  10.707  22.039  0.00  0.00    +0.000 A 
ATOM     16 BR   UNL     1      -1.207  12.186  22.846  0.00  0.00    +0.000 Br
ATOM     17  C   UNL     1      -0.007   9.600  22.807  0.00  0.00    +0.000 A 
ATOM     18  C   UNL     1       0.630   8.509  22.204  0.00  0.00    +0.000 A 
ENDBRANCH   7  12
BRANCH   9  19
ATOM     19  C   UNL     1       4.320   6.583  17.765  0.00  0.00    +0.000 C 
ATOM     20  O   UNL     1       4.121   7.416  16.885  0.00  0.00    +0.000 OA
ATOM     21  N   UNL     1       5.457   5.815  17.825  0.00  0.00    +0.000 N 
ATOM     22  H   UNL     1       5.538   5.052  18.486  0.00  0.00    +0.000 HD
BRANCH  21  23
ATOM     23  C   UNL     1       6.564   5.974  16.892  0.00  0.00    +0.000 C 
BRANCH  23  24
ATOM     24  C   UNL     1       6.148   5.632  15.460  0.00  0.00    +0.000 C 
ATOM     25  C   UNL     1       5.458   4.284  15.312  0.00  0.00    +0.000 C 
ATOM     26  C   UNL     1       5.802   3.909  13.893  0.00  0.00    +0.000 C 
ATOM     27  C   UNL     1       7.202   4.460  13.737  0.00  0.00    +0.000 C 
ATOM     28  O   UNL     1       7.315   5.592  14.610  0.00  0.00    +0.000 OA
ENDBRANCH  23  24
ENDBRANCH  21  23
ENDBRANCH   9  19
TORSDOF 4
ENDMDL
MODEL 3
REMARK VINA RESULT:      -8.0      1.799      2.270
REMARK  Name = 
REMARK  5 active torsions:
REMARK  status: ('A' for Active; 'I' for Inactive)
REMARK    1  A    between atoms: C_1  and  C_2
REMARK    2  A    between atoms: C_7  and  C_8
REMARK    3  A    between atoms: C_16  and  C_17
REMARK    4  A    between atoms: N_19  and  C_20
REMARK    5  A    between atoms: C_20  and  C_21
REMARK                            x       y       z     vdW  Elec       q    Type
REMARK                         _______ _______ _______ _____ _____    ______ ____
ROOT
ATOM      1  C   UNL     1       3.859   1.198  18.398  0.00  0.00    +0.000 C 
ATOM      2  C   UNL     1       3.345   2.592  18.596  0.00  0.00    +0.000 A 
ATOM      3  C   UNL     1       2.195   2.848  19.332  0.00  0.00    +0.000 A 
ATOM      4  C   UNL     1       1.738   4.159  19.475  0.00  0.00    +0.000 A 
ATOM      5  C   UNL     1       2.374   5.235  18.870  0.00  0.00    +0.000 A 
ATOM      6  N   UNL     1       1.859   6.458  19.077  0.00  0.00    +0.000 NA
ATOM      7  C   UNL     1       2.449   7.543  18.522  0.00  0.00    +0.000 A 
ATOM      8  C   UNL     1       3.541   7.408  17.683  0.00  0.00    +0.000 A 
ATOM      9  C   UNL     1       4.078   6.136  17.452  0.00  0.00    +0.000 A 
ATOM     10  C   UNL     1       3.519   5.000  18.081  0.00  0.00    +0.000 A 
ATOM     11  C   UNL     1       4.014   3.671  18.006  0.00  0.00    +0.000 A 
ENDROOT
BRANCH   7  12
ATOM     12  C   UNL     1       1.858   8.853  18.873  0.00  0.00    +0.000 A 
ATOM     13  C   UNL     1       1.103   9.041  20.048  0.00  0.00    +0.000 A 
ATOM     14  C   UNL     1       0.542  10.283  20.369  0.00  0.00    +0.000 A 
ATOM     15  C   UNL     1       0.722  11.363  19.512  0.00  0.00    +0.000 A 
ATOM     16 BR   UNL     1      -0.040  13.038  19.942  0.00  0.00    +0.000 Br
ATOM     17  C   UNL     1       1.453  11.213  18.339  0.00  0.00    +0.000 A 
ATOM     18  C   UNL     1       2.011   9.969  18.025  0.00  0.00    +0.000 A 
ENDBRANCH   7  12
BRANCH   9  19
ATOM     19  C   UNL     1       5.250   6.112  16.530  0.00  0.00    +0.000 C 
ATOM     20  O   UNL     1       6.152   6.930  16.682  0.00  0.00    +0.000 OA
ATOM     21  N   UNL     1       5.226   5.209  15.494  0.00  0.00    +0.000 N 
ATOM     22  H   UNL     1       4.412   4.633  15.322  0.00  0.00    +0.000 HD
BRANCH  21  23
ATOM     23  C   UNL     1       6.309   5.092  14.528  0.00  0.00    +0.000 C 
BRANCH  23  24
ATOM     24  C   UNL     1       6.181   3.818  13.689  0.00  0.00    +0.000 C 
ATOM     25  C   UNL     1       7.105   3.767  12.481  0.00  0.00    +0.000 C 
ATOM     26  C   UNL     1       6.333   2.884  11.533  0.00  0.00    +0.000 C 
ATOM     27  C   UNL     1       4.898   3.272  11.816  0.00  0.00    +0.000 C 
ATOM     28  O   UNL     1       4.834   3.701  13.183  0.00  0.00    +0.000 OA
ENDBRANCH  23  24
ENDBRANCH  21  23
ENDBRANCH   9  19
TORSDOF 4
ENDMDL
MODEL 4
REMARK VINA RESULT:      -7.9      1.278      2.044
REMARK  Name = 
REMARK  5 active torsions:
REMARK  status: ('A' for Active; 'I' for Inactive)
REMARK    1  A    between atoms: C_1  and  C_2
REMARK    2  A    between atoms: C_7  and  C_8
REMARK    3  A    between atoms: C_16  and  C_17
REMARK    4  A    between atoms: N_19  and  C_20
REMARK    5  A    between atoms: C_20  and  C_21
REMARK                            x       y       z     vdW  Elec       q    Type
REMARK                         _______ _______ _______ _____ _____    ______ ____
ROOT
ATOM      1  C   UNL     1       4.046   1.529  19.665  0.00  0.00    +0.000 C 
ATOM      2  C   UNL     1       3.334   2.789  20.058  0.00  0.00    +0.000 A 
ATOM      3  C   UNL     1       2.355   2.796  21.044  0.00  0.00    +0.000 A 
ATOM      4  C   UNL     1       1.701   3.986  21.365  0.00  0.00    +0.000 A 
ATOM      5  C   UNL     1       1.963   5.177  20.703  0.00  0.00    +0.000 A 
ATOM      6  N   UNL     1       1.284   6.269  21.093  0.00  0.00    +0.000 NA
ATOM      7  C   UNL     1       1.512   7.459  20.490  0.00  0.00    +0.000 A 
ATOM      8  C   UNL     1       2.389   7.561  19.424  0.00  0.00    +0.000 A 
ATOM      9  C   UNL     1       3.092   6.426  19.002  0.00  0.00    +0.000 A 
ATOM     10  C   UNL     1       2.920   5.190  19.668  0.00  0.00    +0.000 A 
ATOM     11  C   UNL     1       3.631   3.989  19.403  0.00  0.00    +0.000 A 
ENDROOT
BRANCH   7  12
ATOM     12  C   UNL     1       0.777   8.618  21.044  0.00  0.00    +0.000 A 
ATOM     13  C   UNL     1       0.031   8.529  22.236  0.00  0.00    +0.000 A 
ATOM     14  C   UNL     1      -0.667   9.629  22.748  0.00  0.00    +0.000 A 
ATOM     15  C   UNL     1      -0.636  10.843  22.071  0.00  0.00    +0.000 A 
ATOM     16 BR   UNL     1      -1.582  12.326  22.759  0.00  0.00    +0.000 Br
ATOM     17  C   UNL     1       0.082  10.965  20.886  0.00  0.00    +0.000 A 
ATOM     18  C   UNL     1       0.778   9.862  20.380  0.00  0.00    +0.000 A 
ENDBRANCH   7  12
BRANCH   9  19
ATOM     19  C   UNL     1       4.005   6.653  17.845  0.00  0.00    +0.000 C 
ATOM     20  O   UNL     1       3.873   7.667  17.166  0.00  0.00    +0.000 OA
ATOM     21  N   UNL     1       4.911   5.665  17.546  0.00  0.00    +0.000 N 
ATOM     22  H   UNL     1       4.911   4.786  18.048  0.00  0.00    +0.000 HD
BRANCH  21  23
ATOM     23  C   UNL     1       5.853   5.770  16.439  0.00  0.00    +0.000 C 
BRANCH  23  24
ATOM     24  C   UNL     1       7.188   6.365  16.890  0.00  0.00    +0.000 C 
ATOM     25  C   UNL     1       7.515   6.131  18.358  0.00  0.00    +0.000 C 
ATOM     26  C   UNL     1       8.390   7.317  18.677  0.00  0.00    +0.000 C 
ATOM     27  C   UNL     1       7.774   8.417  17.839  0.00  0.00    +0.000 C 
ATOM     28  O   UNL     1       7.177   7.795  16.693  0.00  0.00    +0.000 OA
ENDBRANCH  23  24
ENDBRANCH  21  23
ENDBRANCH   9  19
TORSDOF 4
ENDMDL
MODEL 5
REMARK VINA RESULT:      -7.8      1.460      2.070
REMARK  Name = 
REMARK  5 active torsions:
REMARK  status: ('A' for Active; 'I' for Inactive)
REMARK    1  A    between atoms: C_1  and  C_2
REMARK    2  A    between atoms: C_7  and  C_8
REMARK    3  A    between atoms: C_16  and  C_17
REMARK    4  A    between atoms: N_19  and  C_20
REMARK    5  A    between atoms: C_20  and  C_21
REMARK                            x       y       z     vdW  Elec       q    Type
REMARK                         _______ _______ _______ _____ _____    ______ ____
ROOT
ATOM      1  C   UNL     1       3.868   1.095  18.628  0.00  0.00    +0.000 C 
ATOM      2  C   UNL     1       3.329   2.475  18.858  0.00  0.00    +0.000 A 
ATOM      3  C   UNL     1       2.215   2.698  19.659  0.00  0.00    +0.000 A 
ATOM      4  C   UNL     1       1.732   3.995  19.831  0.00  0.00    +0.000 A 
ATOM      5  C   UNL     1       2.303   5.089  19.195  0.00  0.00    +0.000 A 
ATOM      6  N   UNL     1       1.768   6.298  19.434  0.00  0.00    +0.000 NA
ATOM      7  C   UNL     1       2.296   7.400  18.851  0.00  0.00    +0.000 A 
ATOM      8  C   UNL     1       3.343   7.296  17.952  0.00  0.00    +0.000 A 
ATOM      9  C   UNL     1       3.901   6.039  17.687  0.00  0.00    +0.000 A 
ATOM     10  C   UNL     1       3.408   4.887  18.343  0.00  0.00    +0.000 A 
ATOM     11  C   UNL     1       3.934   3.572  18.236  0.00  0.00    +0.000 A 
ENDROOT
BRANCH   7  12
ATOM     12  C   UNL     1       1.691   8.692  19.239  0.00  0.00    +0.000 A 
ATOM     13  C   UNL     1       1.668   9.799  18.366  0.00  0.00    +0.000 A 
ATOM     14  C   UNL     1       1.098  11.020  18.745  0.00  0.00    +0.000 A 
ATOM     15  C   UNL     1       0.545  11.160  20.013  0.00  0.00    +0.000 A 
ATOM     16 BR   UNL     1      -0.218  12.810  20.527  0.00  0.00    +0.000 Br
ATOM     17  C   UNL     1       0.558  10.093  20.904  0.00  0.00    +0.000 A 
ATOM     18  C   UNL     1       1.128   8.874  20.519  0.00  0.00    +0.000 A 
ENDBRANCH   7  12
BRANCH   9  19
ATOM     19  C   UNL     1       5.019   6.048  16.701  0.00  0.00    +0.000 C 
ATOM     20  O   UNL     1       5.145   7.006  15.944  0.00  0.00    +0.000 OA
ATOM     21  N   UNL     1       5.820   4.934  16.637  0.00  0.00    +0.000 N 
ATOM     22  H   UNL     1       5.615   4.110  17.189  0.00  0.00    +0.000 HD
BRANCH  21  23
ATOM     23  C   UNL     1       6.942   4.823  15.715  0.00  0.00    +0.000 C 
BRANCH  23  24
ATOM     24  C   UNL     1       6.480   4.871  14.257  0.00  0.00    +0.000 C 
ATOM     25  C   UNL     1       6.026   3.530  13.699  0.00  0.00    +0.000 C 
ATOM     26  C   UNL     1       6.316   3.688  12.228  0.00  0.00    +0.000 C 
ATOM     27  C   UNL     1       7.582   4.518  12.228  0.00  0.00    +0.000 C 
ATOM     28  O   UNL     1       7.564   5.322  13.416  0.00  0.00    +0.000 OA
ENDBRANCH  23  24
ENDBRANCH  21  23
ENDBRANCH   9  19
TORSDOF 4
ENDMDL
MODEL 6
REMARK VINA RESULT:      -7.7      4.504      8.882
REMARK  Name = 
REMARK  5 active torsions:
REMARK  status: ('A' for Active; 'I' for Inactive)
REMARK    1  A    between atoms: C_1  and  C_2
REMARK    2  A    between atoms: C_7  and  C_8
REMARK    3  A    between atoms: C_16  and  C_17
REMARK    4  A    between atoms: N_19  and  C_20
REMARK    5  A    between atoms: C_20  and  C_21
REMARK                            x       y       z     vdW  Elec       q    Type
REMARK                         _______ _______ _______ _____ _____    ______ ____
ROOT
ATOM      1  C   UNL     1      -2.318  11.940  23.436  0.00  0.00    +0.000 C 
ATOM      2  C   UNL     1      -1.359  11.046  22.710  0.00  0.00    +0.000 A 
ATOM      3  C   UNL     1      -0.465  10.228  23.392  0.00  0.00    +0.000 A 
ATOM      4  C   UNL     1       0.425   9.425  22.678  0.00  0.00    +0.000 A 
ATOM      5  C   UNL     1       0.486   9.437  21.291  0.00  0.00    +0.000 A 
ATOM      6  N   UNL     1       1.374   8.621  20.699  0.00  0.00    +0.000 NA
ATOM      7  C   UNL     1       1.464   8.583  19.349  0.00  0.00    +0.000 A 
ATOM      8  C   UNL     1       0.699   9.426  18.562  0.00  0.00    +0.000 A 
ATOM      9  C   UNL     1      -0.221  10.289  19.169  0.00  0.00    +0.000 A 
ATOM     10  C   UNL     1      -0.379  10.290  20.574  0.00  0.00    +0.000 A 
ATOM     11  C   UNL     1      -1.330  11.045  21.310  0.00  0.00    +0.000 A 
ENDROOT
BRANCH   7  12
ATOM     12  C   UNL     1       2.411   7.594  18.790  0.00  0.00    +0.000 A 
ATOM     13  C   UNL     1       2.589   6.321  19.366  0.00  0.00    +0.000 A 
ATOM     14  C   UNL     1       3.494   5.395  18.834  0.00  0.00    +0.000 A 
ATOM     15  C   UNL     1       4.246   5.730  17.713  0.00  0.00    +0.000 A 
ATOM     16 BR   UNL     1       5.471   4.482  16.997  0.00  0.00    +0.000 Br
ATOM     17  C   UNL     1       4.104   6.981  17.123  0.00  0.00    +0.000 A 
ATOM     18  C   UNL     1       3.197   7.902  17.661  0.00  0.00    +0.000 A 
ENDBRANCH   7  12
BRANCH   9  19
ATOM     19  C   UNL     1      -0.985  11.152  18.223  0.00  0.00    +0.000 C 
ATOM     20  O   UNL     1      -0.711  12.346  18.143  0.00  0.00    +0.000 OA
ATOM     21  N   UNL     1      -2.023  10.575  17.532  0.00  0.00    +0.000 N 
ATOM     22  H   UNL     1      -2.303   9.619  17.711  0.00  0.00    +0.000 HD
BRANCH  21  23
ATOM     23  C   UNL     1      -2.843  11.315  16.582  0.00  0.00    +0.000 C 
BRANCH  23  24
ATOM     24  C   UNL     1      -4.330  11.004  16.760  0.00  0.00    +0.000 C 
ATOM     25  C   UNL     1      -5.220  12.234  16.864  0.00  0.00    +0.000 C 
ATOM     26  C   UNL     1      -6.370  11.720  17.693  0.00  0.00    +0.000 C 
ATOM     27  C   UNL     1      -5.688  10.761  18.644  0.00  0.00    +0.000 C 
ATOM     28  O   UNL     1      -4.529  10.248  17.974  0.00  0.00    +0.000 OA
ENDBRANCH  23  24
ENDBRANCH  21  23
ENDBRANCH   9  19
TORSDOF 4
ENDMDL
MODEL 7
REMARK VINA RESULT:      -7.7      0.895      1.064
REMARK  Name = 
REMARK  5 active torsions:
REMARK  status: ('A' for Active; 'I' for Inactive)
REMARK    1  A    between atoms: C_1  and  C_2
REMARK    2  A    between atoms: C_7  and  C_8
REMARK    3  A    between atoms: C_16  and  C_17
REMARK    4  A    between atoms: N_19  and  C_20
REMARK    5  A    between atoms: C_20  and  C_21
REMARK                            x       y       z     vdW  Elec       q    Type
REMARK                         _______ _______ _______ _____ _____    ______ ____
ROOT
ATOM      1  C   UNL     1       4.096   1.698  19.439  0.00  0.00    +0.000 C 
ATOM      2  C   UNL     1       3.366   2.933  19.874  0.00  0.00    +0.000 A 
ATOM      3  C   UNL     1       2.386   2.892  20.859  0.00  0.00    +0.000 A 
ATOM      4  C   UNL     1       1.716   4.061  21.221  0.00  0.00    +0.000 A 
ATOM      5  C   UNL     1       1.963   5.279  20.601  0.00  0.00    +0.000 A 
ATOM      6  N   UNL     1       1.269   6.347  21.029  0.00  0.00    +0.000 NA
ATOM      7  C   UNL     1       1.482   7.561  20.469  0.00  0.00    +0.000 A 
ATOM      8  C   UNL     1       2.359   7.711  19.409  0.00  0.00    +0.000 A 
ATOM      9  C   UNL     1       3.078   6.602  18.948  0.00  0.00    +0.000 A 
ATOM     10  C   UNL     1       2.921   5.341  19.569  0.00  0.00    +0.000 A 
ATOM     11  C   UNL     1       3.648   4.160  19.263  0.00  0.00    +0.000 A 
ENDROOT
BRANCH   7  12
ATOM     12  C   UNL     1       0.731   8.689  21.062  0.00  0.00    +0.000 A 
ATOM     13  C   UNL     1       0.253   8.654  22.387  0.00  0.00    +0.000 A 
ATOM     14  C   UNL     1      -0.462   9.724  22.937  0.00  0.00    +0.000 A 
ATOM     15  C   UNL     1      -0.720  10.852  22.166  0.00  0.00    +0.000 A 
ATOM     16 BR   UNL     1      -1.691  12.294  22.906  0.00  0.00    +0.000 Br
ATOM     17  C   UNL     1      -0.272  10.918  20.851  0.00  0.00    +0.000 A 
ATOM     18  C   UNL     1       0.443   9.845  20.307  0.00  0.00    +0.000 A 
ENDBRANCH   7  12
BRANCH   9  19
ATOM     19  C   UNL     1       3.988   6.882  17.800  0.00  0.00    +0.000 C 
ATOM     20  O   UNL     1       3.678   7.744  16.983  0.00  0.00    +0.000 OA
ATOM     21  N   UNL     1       5.109   6.098  17.672  0.00  0.00    +0.000 N 
ATOM     22  H   UNL     1       5.273   5.315  18.292  0.00  0.00    +0.000 HD
BRANCH  21  23
ATOM     23  C   UNL     1       6.072   6.273  16.593  0.00  0.00    +0.000 C 
BRANCH  23  24
ATOM     24  C   UNL     1       5.694   5.449  15.361  0.00  0.00    +0.000 C 
ATOM     25  C   UNL     1       5.747   3.944  15.573  0.00  0.00    +0.000 C 
ATOM     26  C   UNL     1       6.040   3.441  14.182  0.00  0.00    +0.000 C 
ATOM     27  C   UNL     1       6.950   4.515  13.627  0.00  0.00    +0.000 C 
ATOM     28  O   UNL     1       6.603   5.745  14.278  0.00  0.00    +0.000 OA
ENDBRANCH  23  24
ENDBRANCH  21  23
ENDBRANCH   9  19
TORSDOF 4
ENDMDL
MODEL 8
REMARK VINA RESULT:      -7.7      1.725      2.400
REMARK  Name = 
REMARK  5 active torsions:
REMARK  status: ('A' for Active; 'I' for Inactive)
REMARK    1  A    between atoms: C_1  and  C_2
REMARK    2  A    between atoms: C_7  and  C_8
REMARK    3  A    between atoms: C_16  and  C_17
REMARK    4  A    between atoms: N_19  and  C_20
REMARK    5  A    between atoms: C_20  and  C_21
REMARK                            x       y       z     vdW  Elec       q    Type
REMARK                         _______ _______ _______ _____ _____    ______ ____
ROOT
ATOM      1  C   UNL     1       4.415   1.025  19.361  0.00  0.00    +0.000 C 
ATOM      2  C   UNL     1       3.807   2.395  19.396  0.00  0.00    +0.000 A 
ATOM      3  C   UNL     1       2.644   2.659  20.110  0.00  0.00    +0.000 A 
ATOM      4  C   UNL     1       2.099   3.943  20.100  0.00  0.00    +0.000 A 
ATOM      5  C   UNL     1       2.655   4.979  19.361  0.00  0.00    +0.000 A 
ATOM      6  N   UNL     1       2.057   6.180  19.425  0.00  0.00    +0.000 NA
ATOM      7  C   UNL     1       2.568   7.228  18.736  0.00  0.00    +0.000 A 
ATOM      8  C   UNL     1       3.663   7.067  17.906  0.00  0.00    +0.000 A 
ATOM      9  C   UNL     1       4.287   5.816  17.824  0.00  0.00    +0.000 A 
ATOM     10  C   UNL     1       3.810   4.729  18.592  0.00  0.00    +0.000 A 
ATOM     11  C   UNL     1       4.397   3.438  18.672  0.00  0.00    +0.000 A 
ENDROOT
BRANCH   7  12
ATOM     12  C   UNL     1       1.889   8.527  18.935  0.00  0.00    +0.000 A 
ATOM     13  C   UNL     1       1.900   9.534  17.949  0.00  0.00    +0.000 A 
ATOM     14  C   UNL     1       1.261  10.763  18.148  0.00  0.00    +0.000 A 
ATOM     15  C   UNL     1       0.600  11.011  19.347  0.00  0.00    +0.000 A 
ATOM     16 BR   UNL     1      -0.259  12.672  19.619  0.00  0.00    +0.000 Br
ATOM     17  C   UNL     1       0.576  10.044  20.346  0.00  0.00    +0.000 A 
ATOM     18  C   UNL     1       1.217   8.817  20.140  0.00  0.00    +0.000 A 
ENDBRANCH   7  12
BRANCH   9  19
ATOM     19  C   UNL     1       5.454   5.761  16.897  0.00  0.00    +0.000 C 
ATOM     20  O   UNL     1       6.548   6.162  17.283  0.00  0.00    +0.000 OA
ATOM     21  N   UNL     1       5.226   5.326  15.614  0.00  0.00    +0.000 N 
ATOM     22  H   UNL     1       4.290   5.119  15.290  0.00  0.00    +0.000 HD
BRANCH  21  23
ATOM     23  C   UNL     1       6.285   5.229  14.617  0.00  0.00    +0.000 C 
BRANCH  23  24
ATOM     24  C   UNL     1       6.191   3.927  13.820  0.00  0.00    +0.000 C 
ATOM     25  C   UNL     1       7.112   3.864  12.610  0.00  0.00    +0.000 C 
ATOM     26  C   UNL     1       6.363   2.930  11.694  0.00  0.00    +0.000 C 
ATOM     27  C   UNL     1       4.918   3.284  11.970  0.00  0.00    +0.000 C 
ATOM     28  O   UNL     1       4.846   3.755  13.323  0.00  0.00    +0.000 OA
ENDBRANCH  23  24
ENDBRANCH  21  23
ENDBRANCH   9  19
TORSDOF 4
ENDMDL
MODEL 9
REMARK VINA RESULT:      -7.6      1.149      1.549
REMARK  Name = 
REMARK  5 active torsions:
REMARK  status: ('A' for Active; 'I' for Inactive)
REMARK    1  A    between atoms: C_1  and  C_2
REMARK    2  A    between atoms: C_7  and  C_8
REMARK    3  A    between atoms: C_16  and  C_17
REMARK    4  A    between atoms: N_19  and  C_20
REMARK    5  A    between atoms: C_20  and  C_21
REMARK                            x       y       z     vdW  Elec       q    Type
REMARK                         _______ _______ _______ _____ _____    ______ ____
ROOT
ATOM      1  C   UNL     1       3.598   1.741  19.111  0.00  0.00    +0.000 C 
ATOM      2  C   UNL     1       2.930   2.988  19.608  0.00  0.00    +0.000 A 
ATOM      3  C   UNL     1       1.952   2.947  20.595  0.00  0.00    +0.000 A 
ATOM      4  C   UNL     1       1.340   4.128  21.016  0.00  0.00    +0.000 A 
ATOM      5  C   UNL     1       1.642   5.361  20.453  0.00  0.00    +0.000 A 
ATOM      6  N   UNL     1       1.002   6.438  20.934  0.00  0.00    +0.000 NA
ATOM      7  C   UNL     1       1.270   7.666  20.431  0.00  0.00    +0.000 A 
ATOM      8  C   UNL     1       2.150   7.825  19.375  0.00  0.00    +0.000 A 
ATOM      9  C   UNL     1       2.814   6.706  18.858  0.00  0.00    +0.000 A 
ATOM     10  C   UNL     1       2.599   5.426  19.420  0.00  0.00    +0.000 A 
ATOM     11  C   UNL     1       3.268   4.227  19.054  0.00  0.00    +0.000 A 
ENDROOT
BRANCH   7  12
ATOM     12  C   UNL     1       0.576   8.800  21.081  0.00  0.00    +0.000 A 
ATOM     13  C   UNL     1       0.234   8.782  22.448  0.00  0.00    +0.000 A 
ATOM     14  C   UNL     1      -0.429   9.856  23.052  0.00  0.00    +0.000 A 
ATOM     15  C   UNL     1      -0.770  10.971  22.295  0.00  0.00    +0.000 A 
ATOM     16 BR   UNL     1      -1.670  12.419  23.109  0.00  0.00    +0.000 Br
ATOM     17  C   UNL     1      -0.457  11.020  20.941  0.00  0.00    +0.000 A 
ATOM     18  C   UNL     1       0.206   9.943  20.343  0.00  0.00    +0.000 A 
ENDBRANCH   7  12
BRANCH   9  19
ATOM     19  C   UNL     1       3.733   6.997  17.720  0.00  0.00    +0.000 C 
ATOM     20  O   UNL     1       3.954   8.163  17.408  0.00  0.00    +0.000 OA
ATOM     21  N   UNL     1       4.236   5.927  17.020  0.00  0.00    +0.000 N 
ATOM     22  H   UNL     1       3.938   4.982  17.224  0.00  0.00    +0.000 HD
BRANCH  21  23
ATOM     23  C   UNL     1       5.141   6.083  15.889  0.00  0.00    +0.000 C 
BRANCH  23  24
ATOM     24  C   UNL     1       6.582   5.732  16.268  0.00  0.00    +0.000 C 
ATOM     25  C   UNL     1       6.747   4.360  16.904  0.00  0.00    +0.000 C 
ATOM     26  C   UNL     1       7.970   4.558  17.763  0.00  0.00    +0.000 C 
ATOM     27  C   UNL     1       7.814   5.987  18.235  0.00  0.00    +0.000 C 
ATOM     28  O   UNL     1       7.082   6.692  17.223  0.00  0.00    +0.000 OA
ENDBRANCH  23  24
ENDBRANCH  21  23
ENDBRANCH   9  19
TORSDOF 4
ENDMDL
