MODEL 1
REMARK VINA RESULT:      -6.8      0.000      0.000
REMARK  Name = 
REMARK  7 active torsions:
REMARK  status: ('A' for Active; 'I' for Inactive)
REMARK    1  A    between atoms: C_1  and  C_2
REMARK    2  A    between atoms: C_2  and  C_3
REMARK    3  A    between atoms: C_2  and  N_4
REMARK    4  A    between atoms: C_6  and  N_7
REMARK    5  A    between atoms: C_8  and  C_10
REMARK    6  A    between atoms: C_10  and  C_11
REMARK    7  A    between atoms: C_11  and  C_12
REMARK                            x       y       z     vdW  Elec       q    Type
REMARK                         _______ _______ _______ _____ _____    ______ ____
ROOT
ATOM      1  N   UNL     1       7.388   6.204  18.084  0.00  0.00    +0.000 N 
ATOM      2  C   UNL     1       7.503   7.529  17.694  0.00  0.00    +0.000 C 
ATOM      3  O   UNL     1       6.889   8.061  16.772  0.00  0.00    +0.000 OA
ATOM      4  H   UNL     1       7.958   5.858  18.844  0.00  0.00    +0.000 HD
ENDROOT
BRANCH   1   7
ATOM      5  N   UNL     1       4.702   4.100  17.096  0.00  0.00    +0.000 N 
ATOM      6  C   UNL     1       5.185   5.081  17.910  0.00  0.00    +0.000 A 
ATOM      7  C   UNL     1       6.482   5.319  17.525  0.00  0.00    +0.000 A 
ATOM      8  C   UNL     1       6.679   4.435  16.437  0.00  0.00    +0.000 A 
ATOM      9  N   UNL     1       5.597   3.693  16.171  0.00  0.00    +0.000 NA
BRANCH   5  11
ATOM     10  C   UNL     1       3.408   2.182  17.960  0.00  0.00    +0.000 C 
ATOM     11  C   UNL     1       3.377   3.497  17.187  0.00  0.00    +0.000 C 
ATOM     12  C   UNL     1       2.355   4.471  17.768  0.00  0.00    +0.000 C 
ENDBRANCH   5  11
ENDBRANCH   1   7
BRANCH   2  13
ATOM     13  C   UNL     1       8.515   8.318  18.503  0.00  0.00    +0.000 C 
BRANCH  13  14
ATOM     14  C   UNL     1       8.476   9.782  18.062  0.00  0.00    +0.000 C 
BRANCH  14  15
ATOM     15  C   UNL     1       9.476  10.646  18.773  0.00  0.00    +0.000 A 
ATOM     16  C   UNL     1      10.512  11.271  18.073  0.00  0.00    +0.000 A 
ATOM     17  C   UNL     1      11.395  12.103  18.751  0.00  0.00    +0.000 A 
ATOM     18  C   UNL     1      11.221  12.274  20.114  0.00  0.00    +0.000 A 
ATOM     19  N   UNL     1      10.244  11.674  20.827  0.00  0.00    +0.000 NA
ATOM     20  C   UNL     1       9.393  10.877  20.142  0.00  0.00    +0.000 A 
ENDBRANCH  14  15
ENDBRANCH  13  14
ENDBRANCH   2  13
TORSDOF 5
ENDMDL
MODEL 2
REMARK VINA RESULT:      -6.8      4.905      7.881
REMARK  Name = 
REMARK  7 active torsions:
REMARK  status: ('A' for Active; 'I' for Inactive)
REMARK    1  A    between atoms: C_1  and  C_2
REMARK    2  A    between atoms: C_2  and  C_3
REMARK    3  A    between atoms: C_2  and  N_4
REMARK    4  A    between atoms: C_6  and  N_7
REMARK    5  A    between atoms: C_8  and  C_10
REMARK    6  A    between atoms: C_10  and  C_11
REMARK    7  A    between atoms: C_11  and  C_12
REMARK                            x       y       z     vdW  Elec       q    Type
REMARK                         _______ _______ _______ _____ _____    ______ ____
ROOT
ATOM      1  N   UNL     1       4.903   6.018  17.063  0.00  0.00    +0.000 N 
ATOM      2  C   UNL     1       4.885   5.468  18.335  0.00  0.00    +0.000 C 
ATOM      3  O   UNL     1       5.500   4.466  18.691  0.00  0.00    +0.000 OA
ATOM      4  H   UNL     1       4.341   6.834  16.864  0.00  0.00    +0.000 HD
ENDROOT
BRANCH   1   7
ATOM      5  N   UNL     1       6.449   4.566  14.213  0.00  0.00    +0.000 N 
ATOM      6  C   UNL     1       5.315   4.862  14.908  0.00  0.00    +0.000 A 
ATOM      7  C   UNL     1       5.703   5.543  16.036  0.00  0.00    +0.000 A 
ATOM      8  C   UNL     1       7.110   5.632  15.910  0.00  0.00    +0.000 A 
ATOM      9  N   UNL     1       7.567   5.040  14.801  0.00  0.00    +0.000 NA
BRANCH   5  11
ATOM     10  C   UNL     1       5.115   3.444  12.462  0.00  0.00    +0.000 C 
ATOM     11  C   UNL     1       6.509   3.799  12.974  0.00  0.00    +0.000 C 
ATOM     12  C   UNL     1       7.338   4.512  11.910  0.00  0.00    +0.000 C 
ENDBRANCH   5  11
ENDBRANCH   1   7
BRANCH   2  13
ATOM     13  C   UNL     1       3.983   6.207  19.305  0.00  0.00    +0.000 C 
BRANCH  13  14
ATOM     14  C   UNL     1       2.539   6.122  18.808  0.00  0.00    +0.000 C 
BRANCH  14  15
ATOM     15  C   UNL     1       1.913   4.775  19.018  0.00  0.00    +0.000 A 
ATOM     16  C   UNL     1       1.610   4.316  20.303  0.00  0.00    +0.000 A 
ATOM     17  C   UNL     1       0.987   3.084  20.464  0.00  0.00    +0.000 A 
ATOM     18  C   UNL     1       0.698   2.342  19.331  0.00  0.00    +0.000 A 
ATOM     19  N   UNL     1       0.991   2.743  18.075  0.00  0.00    +0.000 NA
ATOM     20  C   UNL     1       1.588   3.950  17.947  0.00  0.00    +0.000 A 
ENDBRANCH  14  15
ENDBRANCH  13  14
ENDBRANCH   2  13
TORSDOF 5
ENDMDL
MODEL 3
REMARK VINA RESULT:      -6.8      4.655      7.257
REMARK  Name = 
REMARK  7 active torsions:
REMARK  status: ('A' for Active; 'I' for Inactive)
REMARK    1  A    between atoms: C_1  and  C_2
REMARK    2  A    between atoms: C_2  and  C_3
REMARK    3  A    between atoms: C_2  and  N_4
REMARK    4  A    between atoms: C_6  and  N_7
REMARK    5  A    between atoms: C_8  and  C_10
REMARK    6  A    between atoms: C_10  and  C_11
REMARK    7  A    between atoms: C_11  and  C_12
REMARK                            x       y       z     vdW  Elec       q    Type
REMARK                         _______ _______ _______ _____ _____    ______ ____
ROOT
ATOM      1  N   UNL     1       6.795   4.777  15.762  0.00  0.00    +0.000 N 
ATOM      2  C   UNL     1       6.074   5.801  16.356  0.00  0.00    +0.000 C 
ATOM      3  O   UNL     1       5.389   6.631  15.765  0.00  0.00    +0.000 OA
ATOM      4  H   UNL     1       7.349   4.157  16.338  0.00  0.00    +0.000 HD
ENDROOT
BRANCH   1   7
ATOM      5  N   UNL     1       6.259   3.705  12.418  0.00  0.00    +0.000 N 
ATOM      6  C   UNL     1       5.876   3.701  13.726  0.00  0.00    +0.000 A 
ATOM      7  C   UNL     1       6.760   4.505  14.405  0.00  0.00    +0.000 A 
ATOM      8  C   UNL     1       7.632   4.975  13.394  0.00  0.00    +0.000 A 
ATOM      9  N   UNL     1       7.330   4.493  12.184  0.00  0.00    +0.000 NA
BRANCH   5  11
ATOM     10  C   UNL     1       5.994   1.458  11.427  0.00  0.00    +0.000 C 
ATOM     11  C   UNL     1       5.631   2.939  11.348  0.00  0.00    +0.000 C 
ATOM     12  C   UNL     1       4.120   3.151  11.315  0.00  0.00    +0.000 C 
ENDBRANCH   5  11
ENDBRANCH   1   7
BRANCH   2  13
ATOM     13  C   UNL     1       6.220   5.853  17.865  0.00  0.00    +0.000 C 
BRANCH  13  14
ATOM     14  C   UNL     1       4.833   5.971  18.498  0.00  0.00    +0.000 C 
BRANCH  14  15
ATOM     15  C   UNL     1       4.004   4.728  18.356  0.00  0.00    +0.000 A 
ATOM     16  C   UNL     1       2.735   4.773  17.774  0.00  0.00    +0.000 A 
ATOM     17  C   UNL     1       2.010   3.598  17.613  0.00  0.00    +0.000 A 
ATOM     18  C   UNL     1       2.576   2.413  18.052  0.00  0.00    +0.000 A 
ATOM     19  N   UNL     1       3.792   2.331  18.634  0.00  0.00    +0.000 NA
ATOM     20  C   UNL     1       4.479   3.488  18.770  0.00  0.00    +0.000 A 
ENDBRANCH  14  15
ENDBRANCH  13  14
ENDBRANCH   2  13
TORSDOF 5
ENDMDL
MODEL 4
REMARK VINA RESULT:      -6.7      5.148      7.704
REMARK  Name = 
REMARK  7 active torsions:
REMARK  status: ('A' for Active; 'I' for Inactive)
REMARK    1  A    between atoms: C_1  and  C_2
REMARK    2  A    between atoms: C_2  and  C_3
REMARK    3  A    between atoms: C_2  and  N_4
REMARK    4  A    between atoms: C_6  and  N_7
REMARK    5  A    between atoms: C_8  and  C_10
REMARK    6  A    between atoms: C_10  and  C_11
REMARK    7  A    between atoms: C_11  and  C_12
REMARK                            x       y       z     vdW  Elec       q    Type
REMARK                         _______ _______ _______ _____ _____    ______ ____
ROOT
ATOM      1  N   UNL     1       4.267   5.266  17.006  0.00  0.00    +0.000 N 
ATOM      2  C   UNL     1       3.988   6.528  17.507  0.00  0.00    +0.000 C 
ATOM      3  O   UNL     1       4.680   7.531  17.350  0.00  0.00    +0.000 OA
ATOM      4  H   UNL     1       3.643   4.498  17.212  0.00  0.00    +0.000 HD
ENDROOT
BRANCH   1   7
ATOM      5  N   UNL     1       6.605   4.454  14.457  0.00  0.00    +0.000 N 
ATOM      6  C   UNL     1       5.315   4.676  14.838  0.00  0.00    +0.000 A 
ATOM      7  C   UNL     1       5.340   4.995  16.174  0.00  0.00    +0.000 A 
ATOM      8  C   UNL     1       6.717   4.964  16.502  0.00  0.00    +0.000 A 
ATOM      9  N   UNL     1       7.490   4.637  15.460  0.00  0.00    +0.000 NA
BRANCH   5  11
ATOM     10  C   UNL     1       5.892   3.415  12.333  0.00  0.00    +0.000 C 
ATOM     11  C   UNL     1       7.038   4.034  13.129  0.00  0.00    +0.000 C 
ATOM     12  C   UNL     1       7.705   5.176  12.368  0.00  0.00    +0.000 C 
ENDBRANCH   5  11
ENDBRANCH   1   7
BRANCH   2  13
ATOM     13  C   UNL     1       2.719   6.587  18.335  0.00  0.00    +0.000 C 
BRANCH  13  14
ATOM     14  C   UNL     1       1.910   5.309  18.104  0.00  0.00    +0.000 C 
BRANCH  14  15
ATOM     15  C   UNL     1       1.819   4.434  19.319  0.00  0.00    +0.000 A 
ATOM     16  C   UNL     1       1.207   3.179  19.256  0.00  0.00    +0.000 A 
ATOM     17  C   UNL     1       1.179   2.370  20.386  0.00  0.00    +0.000 A 
ATOM     18  C   UNL     1       1.755   2.849  21.550  0.00  0.00    +0.000 A 
ATOM     19  N   UNL     1       2.340   4.062  21.655  0.00  0.00    +0.000 NA
ATOM     20  C   UNL     1       2.361   4.824  20.539  0.00  0.00    +0.000 A 
ENDBRANCH  14  15
ENDBRANCH  13  14
ENDBRANCH   2  13
TORSDOF 5
ENDMDL
MODEL 5
REMARK VINA RESULT:      -6.7      4.288      6.657
REMARK  Name = 
REMARK  7 active torsions:
REMARK  status: ('A' for Active; 'I' for Inactive)
REMARK    1  A    between atoms: C_1  and  C_2
REMARK    2  A    between atoms: C_2  and  C_3
REMARK    3  A    between atoms: C_2  and  N_4
REMARK    4  A    between atoms: C_6  and  N_7
REMARK    5  A    between atoms: C_8  and  C_10
REMARK    6  A    between atoms: C_10  and  C_11
REMARK    7  A    between atoms: C_11  and  C_12
REMARK                            x       y       z     vdW  Elec       q    Type
REMARK                         _______ _______ _______ _____ _____    ______ ____
ROOT
ATOM      1  N   UNL     1       7.195   5.432  15.599  0.00  0.00    +0.000 N 
ATOM      2  C   UNL     1       6.219   6.119  16.306  0.00  0.00    +0.000 C 
ATOM      3  O   UNL     1       5.080   6.354  15.910  0.00  0.00    +0.000 OA
ATOM      4  H   UNL     1       8.112   5.311  16.006  0.00  0.00    +0.000 HD
ENDROOT
BRANCH   1   7
ATOM      5  N   UNL     1       6.224   3.571  12.734  0.00  0.00    +0.000 N 
ATOM      6  C   UNL     1       6.043   3.877  14.049  0.00  0.00    +0.000 A 
ATOM      7  C   UNL     1       6.972   4.838  14.369  0.00  0.00    +0.000 A 
ATOM      8  C   UNL     1       7.656   5.065  13.150  0.00  0.00    +0.000 A 
ATOM      9  N   UNL     1       7.202   4.297  12.153  0.00  0.00    +0.000 NA
BRANCH   5  11
ATOM     10  C   UNL     1       4.316   3.160  11.220  0.00  0.00    +0.000 C 
ATOM     11  C   UNL     1       5.487   2.556  11.990  0.00  0.00    +0.000 C 
ATOM     12  C   UNL     1       6.408   1.748  11.078  0.00  0.00    +0.000 C 
ENDBRANCH   5  11
ENDBRANCH   1   7
BRANCH   2  13
ATOM     13  C   UNL     1       6.684   6.616  17.661  0.00  0.00    +0.000 C 
BRANCH  13  14
ATOM     14  C   UNL     1       6.684   5.449  18.649  0.00  0.00    +0.000 C 
BRANCH  14  15
ATOM     15  C   UNL     1       5.308   4.972  19.009  0.00  0.00    +0.000 A 
ATOM     16  C   UNL     1       4.309   5.874  19.382  0.00  0.00    +0.000 A 
ATOM     17  C   UNL     1       3.030   5.407  19.663  0.00  0.00    +0.000 A 
ATOM     18  C   UNL     1       2.795   4.046  19.574  0.00  0.00    +0.000 A 
ATOM     19  N   UNL     1       3.738   3.141  19.234  0.00  0.00    +0.000 NA
ATOM     20  C   UNL     1       4.970   3.623  18.956  0.00  0.00    +0.000 A 
ENDBRANCH  14  15
ENDBRANCH  13  14
ENDBRANCH   2  13
TORSDOF 5
ENDMDL
MODEL 6
REMARK VINA RESULT:      -6.7      0.564      1.005
REMARK  Name = 
REMARK  7 active torsions:
REMARK  status: ('A' for Active; 'I' for Inactive)
REMARK    1  A    between atoms: C_1  and  C_2
REMARK    2  A    between atoms: C_2  and  C_3
REMARK    3  A    between atoms: C_2  and  N_4
REMARK    4  A    between atoms: C_6  and  N_7
REMARK    5  A    between atoms: C_8  and  C_10
REMARK    6  A    between atoms: C_10  and  C_11
REMARK    7  A    between atoms: C_11  and  C_12
REMARK                            x       y       z     vdW  Elec       q    Type
REMARK                         _______ _______ _______ _____ _____    ______ ____
ROOT
ATOM      1  N   UNL     1       7.092   6.173  18.446  0.00  0.00    +0.000 N 
ATOM      2  C   UNL     1       7.324   7.393  17.831  0.00  0.00    +0.000 C 
ATOM      3  O   UNL     1       6.744   7.813  16.833  0.00  0.00    +0.000 OA
ATOM      4  H   UNL     1       7.642   5.909  19.253  0.00  0.00    +0.000 HD
ENDROOT
BRANCH   1   7
ATOM      5  N   UNL     1       4.285   4.051  17.966  0.00  0.00    +0.000 N 
ATOM      6  C   UNL     1       4.927   4.994  18.710  0.00  0.00    +0.000 A 
ATOM      7  C   UNL     1       6.096   5.295  18.053  0.00  0.00    +0.000 A 
ATOM      8  C   UNL     1       6.048   4.487  16.892  0.00  0.00    +0.000 A 
ATOM      9  N   UNL     1       4.947   3.730  16.834  0.00  0.00    +0.000 NA
BRANCH   5  11
ATOM     10  C   UNL     1       1.849   4.006  17.559  0.00  0.00    +0.000 C 
ATOM     11  C   UNL     1       3.027   3.402  18.319  0.00  0.00    +0.000 C 
ATOM     12  C   UNL     1       3.103   1.889  18.137  0.00  0.00    +0.000 C 
ENDBRANCH   5  11
ENDBRANCH   1   7
BRANCH   2  13
ATOM     13  C   UNL     1       8.422   8.208  18.487  0.00  0.00    +0.000 C 
BRANCH  13  14
ATOM     14  C   UNL     1       8.399   9.628  17.919  0.00  0.00    +0.000 C 
BRANCH  14  15
ATOM     15  C   UNL     1       9.335  10.567  18.620  0.00  0.00    +0.000 A 
ATOM     16  C   UNL     1      10.248  11.342  17.900  0.00  0.00    +0.000 A 
ATOM     17  C   UNL     1      11.070  12.238  18.573  0.00  0.00    +0.000 A 
ATOM     18  C   UNL     1      10.962  12.321  19.951  0.00  0.00    +0.000 A 
ATOM     19  N   UNL     1      10.105  11.576  20.683  0.00  0.00    +0.000 NA
ATOM     20  C   UNL     1       9.310  10.720  20.002  0.00  0.00    +0.000 A 
ENDBRANCH  14  15
ENDBRANCH  13  14
ENDBRANCH   2  13
TORSDOF 5
ENDMDL
MODEL 7
REMARK VINA RESULT:      -6.7      1.376      1.487
REMARK  Name = 
REMARK  7 active torsions:
REMARK  status: ('A' for Active; 'I' for Inactive)
REMARK    1  A    between atoms: C_1  and  C_2
REMARK    2  A    between atoms: C_2  and  C_3
REMARK    3  A    between atoms: C_2  and  N_4
REMARK    4  A    between atoms: C_6  and  N_7
REMARK    5  A    between atoms: C_8  and  C_10
REMARK    6  A    between atoms: C_10  and  C_11
REMARK    7  A    between atoms: C_11  and  C_12
REMARK                            x       y       z     vdW  Elec       q    Type
REMARK                         _______ _______ _______ _____ _____    ______ ____
ROOT
ATOM      1  N   UNL     1       6.730   7.630  17.046  0.00  0.00    +0.000 N 
ATOM      2  C   UNL     1       7.780   8.010  17.868  0.00  0.00    +0.000 C 
ATOM      3  O   UNL     1       8.369   7.280  18.661  0.00  0.00    +0.000 OA
ATOM      4  H   UNL     1       6.296   8.316  16.444  0.00  0.00    +0.000 HD
ENDROOT
BRANCH   1   7
ATOM      5  N   UNL     1       5.202   4.433  17.285  0.00  0.00    +0.000 N 
ATOM      6  C   UNL     1       5.289   5.725  17.709  0.00  0.00    +0.000 A 
ATOM      7  C   UNL     1       6.264   6.330  16.953  0.00  0.00    +0.000 A 
ATOM      8  C   UNL     1       6.690   5.308  16.071  0.00  0.00    +0.000 A 
ATOM      9  N   UNL     1       6.045   4.153  16.269  0.00  0.00    +0.000 NA
BRANCH   5  11
ATOM     10  C   UNL     1       4.283   3.490  19.375  0.00  0.00    +0.000 C 
ATOM     11  C   UNL     1       4.329   3.411  17.852  0.00  0.00    +0.000 C 
ATOM     12  C   UNL     1       2.932   3.462  17.239  0.00  0.00    +0.000 C 
ENDBRANCH   5  11
ENDBRANCH   1   7
BRANCH   2  13
ATOM     13  C   UNL     1       8.154   9.475  17.742  0.00  0.00    +0.000 C 
BRANCH  13  14
ATOM     14  C   UNL     1       9.131   9.840  18.860  0.00  0.00    +0.000 C 
BRANCH  14  15
ATOM     15  C   UNL     1       9.790  11.174  18.666  0.00  0.00    +0.000 A 
ATOM     16  C   UNL     1      10.986  11.287  17.952  0.00  0.00    +0.000 A 
ATOM     17  C   UNL     1      11.548  12.542  17.747  0.00  0.00    +0.000 A 
ATOM     18  C   UNL     1      10.900  13.646  18.276  0.00  0.00    +0.000 A 
ATOM     19  N   UNL     1       9.752  13.574  18.986  0.00  0.00    +0.000 NA
ATOM     20  C   UNL     1       9.223  12.343  19.161  0.00  0.00    +0.000 A 
ENDBRANCH  14  15
ENDBRANCH  13  14
ENDBRANCH   2  13
TORSDOF 5
ENDMDL
MODEL 8
REMARK VINA RESULT:      -6.7      4.425      6.953
REMARK  Name = 
REMARK  7 active torsions:
REMARK  status: ('A' for Active; 'I' for Inactive)
REMARK    1  A    between atoms: C_1  and  C_2
REMARK    2  A    between atoms: C_2  and  C_3
REMARK    3  A    between atoms: C_2  and  N_4
REMARK    4  A    between atoms: C_6  and  N_7
REMARK    5  A    between atoms: C_8  and  C_10
REMARK    6  A    between atoms: C_10  and  C_11
REMARK    7  A    between atoms: C_11  and  C_12
REMARK                            x       y       z     vdW  Elec       q    Type
REMARK                         _______ _______ _______ _____ _____    ______ ____
ROOT
ATOM      1  N   UNL     1       7.077   5.117  15.542  0.00  0.00    +0.000 N 
ATOM      2  C   UNL     1       6.273   6.078  16.134  0.00  0.00    +0.000 C 
ATOM      3  O   UNL     1       5.429   6.760  15.558  0.00  0.00    +0.000 OA
ATOM      4  H   UNL     1       7.760   4.625  16.102  0.00  0.00    +0.000 HD
ENDROOT
BRANCH   1   7
ATOM      5  N   UNL     1       6.350   3.784  12.331  0.00  0.00    +0.000 N 
ATOM      6  C   UNL     1       6.043   3.886  13.655  0.00  0.00    +0.000 A 
ATOM      7  C   UNL     1       6.964   4.737  14.215  0.00  0.00    +0.000 A 
ATOM      8  C   UNL     1       7.778   5.121  13.122  0.00  0.00    +0.000 A 
ATOM      9  N   UNL     1       7.407   4.544  11.974  0.00  0.00    +0.000 NA
BRANCH   5  11
ATOM     10  C   UNL     1       6.059   1.471  11.513  0.00  0.00    +0.000 C 
ATOM     11  C   UNL     1       5.662   2.937  11.363  0.00  0.00    +0.000 C 
ATOM     12  C   UNL     1       4.148   3.123  11.429  0.00  0.00    +0.000 C 
ENDBRANCH   5  11
ENDBRANCH   1   7
BRANCH   2  13
ATOM     13  C   UNL     1       6.539   6.267  17.615  0.00  0.00    +0.000 C 
BRANCH  13  14
ATOM     14  C   UNL     1       6.026   5.043  18.376  0.00  0.00    +0.000 C 
BRANCH  14  15
ATOM     15  C   UNL     1       4.563   4.781  18.167  0.00  0.00    +0.000 A 
ATOM     16  C   UNL     1       4.130   3.669  17.440  0.00  0.00    +0.000 A 
ATOM     17  C   UNL     1       2.768   3.425  17.303  0.00  0.00    +0.000 A 
ATOM     18  C   UNL     1       1.881   4.313  17.889  0.00  0.00    +0.000 A 
ATOM     19  N   UNL     1       2.261   5.407  18.583  0.00  0.00    +0.000 NA
ATOM     20  C   UNL     1       3.591   5.615  18.709  0.00  0.00    +0.000 A 
ENDBRANCH  14  15
ENDBRANCH  13  14
ENDBRANCH   2  13
TORSDOF 5
ENDMDL
MODEL 9
REMARK VINA RESULT:      -6.7      5.034      6.665
REMARK  Name = 
REMARK  7 active torsions:
REMARK  status: ('A' for Active; 'I' for Inactive)
REMARK    1  A    between atoms: C_1  and  C_2
REMARK    2  A    between atoms: C_2  and  C_3
REMARK    3  A    between atoms: C_2  and  N_4
REMARK    4  A    between atoms: C_6  and  N_7
REMARK    5  A    between atoms: C_8  and  C_10
REMARK    6  A    between atoms: C_10  and  C_11
REMARK    7  A    between atoms: C_11  and  C_12
REMARK                            x       y       z     vdW  Elec       q    Type
REMARK                         _______ _______ _______ _____ _____    ______ ____
ROOT
ATOM      1  N   UNL     1       4.263   5.492  16.897  0.00  0.00    +0.000 N 
ATOM      2  C   UNL     1       3.671   4.494  17.655  0.00  0.00    +0.000 C 
ATOM      3  O   UNL     1       3.966   3.302  17.625  0.00  0.00    +0.000 OA
ATOM      4  H   UNL     1       3.931   6.444  16.979  0.00  0.00    +0.000 HD
ENDROOT
BRANCH   1   7
ATOM      5  N   UNL     1       6.628   4.691  14.371  0.00  0.00    +0.000 N 
ATOM      6  C   UNL     1       5.331   4.753  14.785  0.00  0.00    +0.000 A 
ATOM      7  C   UNL     1       5.341   5.276  16.056  0.00  0.00    +0.000 A 
ATOM      8  C   UNL     1       6.712   5.525  16.308  0.00  0.00    +0.000 A 
ATOM      9  N   UNL     1       7.498   5.172  15.284  0.00  0.00    +0.000 NA
BRANCH   5  11
ATOM     10  C   UNL     1       5.963   3.433  12.352  0.00  0.00    +0.000 C 
ATOM     11  C   UNL     1       7.087   4.147  13.097  0.00  0.00    +0.000 C 
ATOM     12  C   UNL     1       7.747   5.219  12.234  0.00  0.00    +0.000 C 
ENDBRANCH   5  11
ENDBRANCH   1   7
BRANCH   2  13
ATOM     13  C   UNL     1       2.554   4.992  18.552  0.00  0.00    +0.000 C 
BRANCH  13  14
ATOM     14  C   UNL     1       3.091   6.109  19.448  0.00  0.00    +0.000 C 
BRANCH  14  15
ATOM     15  C   UNL     1       2.340   7.400  19.308  0.00  0.00    +0.000 A 
ATOM     16  C   UNL     1       2.258   8.053  18.076  0.00  0.00    +0.000 A 
ATOM     17  C   UNL     1       1.515   9.223  17.965  0.00  0.00    +0.000 A 
ATOM     18  C   UNL     1       0.886   9.710  19.099  0.00  0.00    +0.000 A 
ATOM     19  N   UNL     1       0.956   9.117  20.311  0.00  0.00    +0.000 NA
ATOM     20  C   UNL     1       1.677   7.975  20.387  0.00  0.00    +0.000 A 
ENDBRANCH  14  15
ENDBRANCH  13  14
ENDBRANCH   2  13
TORSDOF 5
ENDMDL
