MODEL 1
REMARK VINA RESULT:      -8.5      0.000      0.000
REMARK  Name = 
REMARK  4 active torsions:
REMARK  status: ('A' for Active; 'I' for Inactive)
REMARK    1  A    between atoms: C_1  and  C_2
REMARK    2  A    between atoms: C_8  and  C_9
REMARK    3  A    between atoms: C_11  and  C_12
REMARK    4  A    between atoms: C_11  and  C_13
REMARK                            x       y       z     vdW  Elec       q    Type
REMARK                         _______ _______ _______ _____ _____    ______ ____
ROOT
ATOM      1  C   UNL     1       6.437   3.974  12.326  0.00  0.00    +0.000 C 
ATOM      2  C   UNL     1       6.696   4.336  13.767  0.00  0.00    +0.000 C 
ATOM      3  O   UNL     1       7.718   4.916  14.105  0.00  0.00    +0.000 OA
ATOM      4  N   UNL     1       5.653   3.975  14.599  0.00  0.00    +0.000 N 
ATOM      5  C   UNL     1       5.581   4.203  15.940  0.00  0.00    +0.000 C 
ATOM      6  N   UNL     1       6.485   4.712  16.704  0.00  0.00    +0.000 NA
ATOM      7  N   UNL     1       6.021   4.838  18.003  0.00  0.00    +0.000 N 
ATOM      8  C   UNL     1       6.840   5.324  19.012  0.00  0.00    +0.000 C 
ATOM      9  C   UNL     1       8.267   5.662  18.652  0.00  0.00    +0.000 C 
ATOM     10  O   UNL     1       6.459   5.465  20.175  0.00  0.00    +0.000 OA
ATOM     11  C   UNL     1       4.591   4.537  18.230  0.00  0.00    +0.000 C 
ATOM     12  C   UNL     1       4.416   3.471  19.329  0.00  0.00    +0.000 C 
ATOM     13  S   UNL     1       4.065   3.736  16.634  0.00  0.00    +0.000 S 
ATOM     14  H   UNL     1       4.830   3.555  14.191  0.00  0.00    +0.000 HD
ENDROOT
BRANCH  11  15
ATOM     15  C   UNL     1       3.742   5.808  18.410  0.00  0.00    +0.000 A 
ATOM     16  C   UNL     1       3.701   6.814  17.431  0.00  0.00    +0.000 A 
ATOM     17  C   UNL     1       2.918   7.960  17.605  0.00  0.00    +0.000 A 
ATOM     18  C   UNL     1       2.163   8.148  18.768  0.00  0.00    +0.000 A 
ATOM     19  C   UNL     1       1.361   9.287  18.945  0.00  0.00    +0.000 A 
ATOM     20  C   UNL     1       0.618   9.461  20.112  0.00  0.00    +0.000 A 
ATOM     21  C   UNL     1       0.667   8.500  21.119  0.00  0.00    +0.000 A 
ATOM     22  C   UNL     1       1.459   7.362  20.954  0.00  0.00    +0.000 A 
ATOM     23  C   UNL     1       2.208   7.170  19.783  0.00  0.00    +0.000 A 
ATOM     24  C   UNL     1       2.999   6.022  19.593  0.00  0.00    +0.000 A 
ENDBRANCH  11  15
TORSDOF 1
ENDMDL
MODEL 2
REMARK VINA RESULT:      -8.0      0.700      1.639
REMARK  Name = 
REMARK  4 active torsions:
REMARK  status: ('A' for Active; 'I' for Inactive)
REMARK    1  A    between atoms: C_1  and  C_2
REMARK    2  A    between atoms: C_8  and  C_9
REMARK    3  A    between atoms: C_11  and  C_12
REMARK    4  A    between atoms: C_11  and  C_13
REMARK                            x       y       z     vdW  Elec       q    Type
REMARK                         _______ _______ _______ _____ _____    ______ ____
ROOT
ATOM      1  C   UNL     1       5.688   3.983  12.487  0.00  0.00    +0.000 C 
ATOM      2  C   UNL     1       6.106   4.328  13.894  0.00  0.00    +0.000 C 
ATOM      3  O   UNL     1       7.097   5.008  14.117  0.00  0.00    +0.000 OA
ATOM      4  N   UNL     1       5.232   3.828  14.842  0.00  0.00    +0.000 N 
ATOM      5  C   UNL     1       5.325   4.007  16.190  0.00  0.00    +0.000 C 
ATOM      6  N   UNL     1       6.266   4.590  16.847  0.00  0.00    +0.000 NA
ATOM      7  N   UNL     1       5.978   4.625  18.201  0.00  0.00    +0.000 N 
ATOM      8  C   UNL     1       6.873   5.168  19.110  0.00  0.00    +0.000 C 
ATOM      9  C   UNL     1       8.193   5.673  18.577  0.00  0.00    +0.000 C 
ATOM     10  O   UNL     1       6.645   5.231  20.320  0.00  0.00    +0.000 OA
ATOM     11  C   UNL     1       4.633   4.160  18.605  0.00  0.00    +0.000 C 
ATOM     12  C   UNL     1       4.727   3.048  19.668  0.00  0.00    +0.000 C 
ATOM     13  S   UNL     1       3.978   3.354  17.060  0.00  0.00    +0.000 S 
ATOM     14  H   UNL     1       4.411   3.332  14.531  0.00  0.00    +0.000 HD
ENDROOT
BRANCH  11  15
ATOM     15  C   UNL     1       3.688   5.322  18.956  0.00  0.00    +0.000 A 
ATOM     16  C   UNL     1       2.893   5.305  20.114  0.00  0.00    +0.000 A 
ATOM     17  C   UNL     1       2.045   6.373  20.425  0.00  0.00    +0.000 A 
ATOM     18  C   UNL     1       1.950   7.486  19.582  0.00  0.00    +0.000 A 
ATOM     19  C   UNL     1       1.114   8.571  19.894  0.00  0.00    +0.000 A 
ATOM     20  C   UNL     1       1.027   9.671  19.041  0.00  0.00    +0.000 A 
ATOM     21  C   UNL     1       1.773   9.702  17.866  0.00  0.00    +0.000 A 
ATOM     22  C   UNL     1       2.610   8.631  17.546  0.00  0.00    +0.000 A 
ATOM     23  C   UNL     1       2.712   7.519  18.397  0.00  0.00    +0.000 A 
ATOM     24  C   UNL     1       3.562   6.438  18.099  0.00  0.00    +0.000 A 
ENDBRANCH  11  15
TORSDOF 1
ENDMDL
MODEL 3
REMARK VINA RESULT:      -7.1      6.444      9.711
REMARK  Name = 
REMARK  4 active torsions:
REMARK  status: ('A' for Active; 'I' for Inactive)
REMARK    1  A    between atoms: C_1  and  C_2
REMARK    2  A    between atoms: C_8  and  C_9
REMARK    3  A    between atoms: C_11  and  C_12
REMARK    4  A    between atoms: C_11  and  C_13
REMARK                            x       y       z     vdW  Elec       q    Type
REMARK                         _______ _______ _______ _____ _____    ______ ____
ROOT
ATOM      1  C   UNL     1      -6.335  11.814  18.903  0.00  0.00    +0.000 C 
ATOM      2  C   UNL     1      -5.057  12.141  19.634  0.00  0.00    +0.000 C 
ATOM      3  O   UNL     1      -5.058  12.429  20.823  0.00  0.00    +0.000 OA
ATOM      4  N   UNL     1      -3.942  12.033  18.824  0.00  0.00    +0.000 N 
ATOM      5  C   UNL     1      -2.650  12.228  19.210  0.00  0.00    +0.000 C 
ATOM      6  N   UNL     1      -2.219  12.627  20.356  0.00  0.00    +0.000 NA
ATOM      7  N   UNL     1      -0.834  12.650  20.384  0.00  0.00    +0.000 N 
ATOM      8  C   UNL     1      -0.148  13.089  21.506  0.00  0.00    +0.000 C 
ATOM      9  C   UNL     1      -0.965  13.589  22.674  0.00  0.00    +0.000 C 
ATOM     10  O   UNL     1       1.082  13.109  21.574  0.00  0.00    +0.000 OA
ATOM     11  C   UNL     1      -0.137  12.080  19.210  0.00  0.00    +0.000 C 
ATOM     12  C   UNL     1       0.851  13.096  18.606  0.00  0.00    +0.000 C 
ATOM     13  S   UNL     1      -1.503  11.872  17.962  0.00  0.00    +0.000 S 
ATOM     14  H   UNL     1      -4.063  11.725  17.871  0.00  0.00    +0.000 HD
ENDROOT
BRANCH  11  15
ATOM     15  C   UNL     1       0.449  10.686  19.491  0.00  0.00    +0.000 A 
ATOM     16  C   UNL     1       0.204  10.011  20.699  0.00  0.00    +0.000 A 
ATOM     17  C   UNL     1       0.736   8.740  20.937  0.00  0.00    +0.000 A 
ATOM     18  C   UNL     1       1.543   8.106  19.986  0.00  0.00    +0.000 A 
ATOM     19  C   UNL     1       2.068   6.823  20.209  0.00  0.00    +0.000 A 
ATOM     20  C   UNL     1       2.874   6.207  19.252  0.00  0.00    +0.000 A 
ATOM     21  C   UNL     1       3.167   6.865  18.060  0.00  0.00    +0.000 A 
ATOM     22  C   UNL     1       2.649   8.141  17.825  0.00  0.00    +0.000 A 
ATOM     23  C   UNL     1       1.832   8.771  18.776  0.00  0.00    +0.000 A 
ATOM     24  C   UNL     1       1.288  10.049  18.550  0.00  0.00    +0.000 A 
ENDBRANCH  11  15
TORSDOF 1
ENDMDL
MODEL 4
REMARK VINA RESULT:      -6.9      4.059      5.877
REMARK  Name = 
REMARK  4 active torsions:
REMARK  status: ('A' for Active; 'I' for Inactive)
REMARK    1  A    between atoms: C_1  and  C_2
REMARK    2  A    between atoms: C_8  and  C_9
REMARK    3  A    between atoms: C_11  and  C_12
REMARK    4  A    between atoms: C_11  and  C_13
REMARK                            x       y       z     vdW  Elec       q    Type
REMARK                         _______ _______ _______ _____ _____    ______ ____
ROOT
ATOM      1  C   UNL     1       6.944  -1.241  21.521  0.00  0.00    +0.000 C 
ATOM      2  C   UNL     1       5.913  -0.141  21.490  0.00  0.00    +0.000 C 
ATOM      3  O   UNL     1       5.521   0.396  22.516  0.00  0.00    +0.000 OA
ATOM      4  N   UNL     1       5.526   0.185  20.203  0.00  0.00    +0.000 N 
ATOM      5  C   UNL     1       4.641   1.160  19.855  0.00  0.00    +0.000 C 
ATOM      6  N   UNL     1       3.937   1.903  20.636  0.00  0.00    +0.000 NA
ATOM      7  N   UNL     1       3.194   2.821  19.911  0.00  0.00    +0.000 N 
ATOM      8  C   UNL     1       2.326   3.698  20.543  0.00  0.00    +0.000 C 
ATOM      9  C   UNL     1       2.182   3.582  22.041  0.00  0.00    +0.000 C 
ATOM     10  O   UNL     1       1.661   4.538  19.933  0.00  0.00    +0.000 OA
ATOM     11  C   UNL     1       3.460   2.888  18.457  0.00  0.00    +0.000 C 
ATOM     12  C   UNL     1       2.163   2.697  17.647  0.00  0.00    +0.000 C 
ATOM     13  S   UNL     1       4.502   1.379  18.143  0.00  0.00    +0.000 S 
ATOM     14  H   UNL     1       5.968  -0.289  19.429  0.00  0.00    +0.000 HD
ENDROOT
BRANCH  11  15
ATOM     15  C   UNL     1       4.298   4.118  18.068  0.00  0.00    +0.000 A 
ATOM     16  C   UNL     1       3.915   4.973  17.021  0.00  0.00    +0.000 A 
ATOM     17  C   UNL     1       4.683   6.092  16.683  0.00  0.00    +0.000 A 
ATOM     18  C   UNL     1       5.867   6.387  17.369  0.00  0.00    +0.000 A 
ATOM     19  C   UNL     1       6.636   7.518  17.049  0.00  0.00    +0.000 A 
ATOM     20  C   UNL     1       7.816   7.795  17.738  0.00  0.00    +0.000 A 
ATOM     21  C   UNL     1       8.244   6.946  18.756  0.00  0.00    +0.000 A 
ATOM     22  C   UNL     1       7.487   5.820  19.086  0.00  0.00    +0.000 A 
ATOM     23  C   UNL     1       6.294   5.531  18.404  0.00  0.00    +0.000 A 
ATOM     24  C   UNL     1       5.510   4.409  18.733  0.00  0.00    +0.000 A 
ENDBRANCH  11  15
TORSDOF 1
ENDMDL
MODEL 5
REMARK VINA RESULT:      -6.8      6.497      9.527
REMARK  Name = 
REMARK  4 active torsions:
REMARK  status: ('A' for Active; 'I' for Inactive)
REMARK    1  A    between atoms: C_1  and  C_2
REMARK    2  A    between atoms: C_8  and  C_9
REMARK    3  A    between atoms: C_11  and  C_12
REMARK    4  A    between atoms: C_11  and  C_13
REMARK                            x       y       z     vdW  Elec       q    Type
REMARK                         _______ _______ _______ _____ _____    ______ ____
ROOT
ATOM      1  C   UNL     1      -5.432  11.924  16.938  0.00  0.00    +0.000 C 
ATOM      2  C   UNL     1      -4.690  11.905  18.251  0.00  0.00    +0.000 C 
ATOM      3  O   UNL     1      -5.268  11.697  19.308  0.00  0.00    +0.000 OA
ATOM      4  N   UNL     1      -3.331  12.103  18.093  0.00  0.00    +0.000 N 
ATOM      5  C   UNL     1      -2.400  12.102  19.088  0.00  0.00    +0.000 C 
ATOM      6  N   UNL     1      -2.599  12.003  20.356  0.00  0.00    +0.000 NA
ATOM      7  N   UNL     1      -1.398  11.983  21.046  0.00  0.00    +0.000 N 
ATOM      8  C   UNL     1      -1.370  11.925  22.432  0.00  0.00    +0.000 C 
ATOM      9  C   UNL     1      -2.692  11.937  23.160  0.00  0.00    +0.000 C 
ATOM     10  O   UNL     1      -0.322  11.890  23.080  0.00  0.00    +0.000 OA
ATOM     11  C   UNL     1      -0.165  11.912  20.231  0.00  0.00    +0.000 C 
ATOM     12  C   UNL     1       0.797  13.063  20.582  0.00  0.00    +0.000 C 
ATOM     13  S   UNL     1      -0.776  12.246  18.505  0.00  0.00    +0.000 S 
ATOM     14  H   UNL     1      -2.960  12.203  17.160  0.00  0.00    +0.000 HD
ENDROOT
BRANCH  11  15
ATOM     15  C   UNL     1       0.465  10.509  20.235  0.00  0.00    +0.000 A 
ATOM     16  C   UNL     1       0.379   9.663  21.354  0.00  0.00    +0.000 A 
ATOM     17  C   UNL     1       0.949   8.386  21.341  0.00  0.00    +0.000 A 
ATOM     18  C   UNL     1       1.638   7.916  20.216  0.00  0.00    +0.000 A 
ATOM     19  C   UNL     1       2.199   6.629  20.187  0.00  0.00    +0.000 A 
ATOM     20  C   UNL     1       2.885   6.178  19.060  0.00  0.00    +0.000 A 
ATOM     21  C   UNL     1       3.021   7.005  17.948  0.00  0.00    +0.000 A 
ATOM     22  C   UNL     1       2.465   8.287  17.964  0.00  0.00    +0.000 A 
ATOM     23  C   UNL     1       1.767   8.753  19.089  0.00  0.00    +0.000 A 
ATOM     24  C   UNL     1       1.186  10.035  19.117  0.00  0.00    +0.000 A 
ENDBRANCH  11  15
TORSDOF 1
ENDMDL
MODEL 6
REMARK VINA RESULT:      -6.8      6.505     10.057
REMARK  Name = 
REMARK  4 active torsions:
REMARK  status: ('A' for Active; 'I' for Inactive)
REMARK    1  A    between atoms: C_1  and  C_2
REMARK    2  A    between atoms: C_8  and  C_9
REMARK    3  A    between atoms: C_11  and  C_12
REMARK    4  A    between atoms: C_11  and  C_13
REMARK                            x       y       z     vdW  Elec       q    Type
REMARK                         _______ _______ _______ _____ _____    ______ ____
ROOT
ATOM      1  C   UNL     1      -3.168  14.256  24.796  0.00  0.00    +0.000 C 
ATOM      2  C   UNL     1      -1.906  14.232  23.971  0.00  0.00    +0.000 C 
ATOM      3  O   UNL     1      -0.853  14.683  24.402  0.00  0.00    +0.000 OA
ATOM      4  N   UNL     1      -2.088  13.624  22.743  0.00  0.00    +0.000 N 
ATOM      5  C   UNL     1      -1.127  13.421  21.799  0.00  0.00    +0.000 C 
ATOM      6  N   UNL     1       0.097  13.819  21.820  0.00  0.00    +0.000 NA
ATOM      7  N   UNL     1       0.784  13.369  20.704  0.00  0.00    +0.000 N 
ATOM      8  C   UNL     1       2.111  13.713  20.492  0.00  0.00    +0.000 C 
ATOM      9  C   UNL     1       2.762  14.636  21.494  0.00  0.00    +0.000 C 
ATOM     10  O   UNL     1       2.758  13.319  19.520  0.00  0.00    +0.000 OA
ATOM     11  C   UNL     1       0.068  12.421  19.822  0.00  0.00    +0.000 C 
ATOM     12  C   UNL     1       0.040  12.930  18.368  0.00  0.00    +0.000 C 
ATOM     13  S   UNL     1      -1.686  12.504  20.440  0.00  0.00    +0.000 S 
ATOM     14  H   UNL     1      -2.993  13.234  22.525  0.00  0.00    +0.000 HD
ENDROOT
BRANCH  11  15
ATOM     15  C   UNL     1       0.551  10.971  19.999  0.00  0.00    +0.000 A 
ATOM     16  C   UNL     1       0.452  10.303  21.231  0.00  0.00    +0.000 A 
ATOM     17  C   UNL     1       0.887   8.982  21.375  0.00  0.00    +0.000 A 
ATOM     18  C   UNL     1       1.452   8.288  20.298  0.00  0.00    +0.000 A 
ATOM     19  C   UNL     1       1.876   6.956  20.428  0.00  0.00    +0.000 A 
ATOM     20  C   UNL     1       2.440   6.280  19.346  0.00  0.00    +0.000 A 
ATOM     21  C   UNL     1       2.588   6.925  18.121  0.00  0.00    +0.000 A 
ATOM     22  C   UNL     1       2.167   8.250  17.979  0.00  0.00    +0.000 A 
ATOM     23  C   UNL     1       1.593   8.941  19.057  0.00  0.00    +0.000 A 
ATOM     24  C   UNL     1       1.148  10.270  18.927  0.00  0.00    +0.000 A 
ENDBRANCH  11  15
TORSDOF 1
ENDMDL
MODEL 7
REMARK VINA RESULT:      -6.5      8.058     10.863
REMARK  Name = 
REMARK  4 active torsions:
REMARK  status: ('A' for Active; 'I' for Inactive)
REMARK    1  A    between atoms: C_1  and  C_2
REMARK    2  A    between atoms: C_8  and  C_9
REMARK    3  A    between atoms: C_11  and  C_12
REMARK    4  A    between atoms: C_11  and  C_13
REMARK                            x       y       z     vdW  Elec       q    Type
REMARK                         _______ _______ _______ _____ _____    ______ ____
ROOT
ATOM      1  C   UNL     1      -5.732  14.063  23.855  0.00  0.00    +0.000 C 
ATOM      2  C   UNL     1      -4.555  13.145  23.635  0.00  0.00    +0.000 C 
ATOM      3  O   UNL     1      -4.439  12.097  24.253  0.00  0.00    +0.000 OA
ATOM      4  N   UNL     1      -3.695  13.613  22.659  0.00  0.00    +0.000 N 
ATOM      5  C   UNL     1      -2.569  12.987  22.216  0.00  0.00    +0.000 C 
ATOM      6  N   UNL     1      -2.041  11.901  22.663  0.00  0.00    +0.000 NA
ATOM      7  N   UNL     1      -0.929  11.547  21.917  0.00  0.00    +0.000 N 
ATOM      8  C   UNL     1      -0.172  10.432  22.245  0.00  0.00    +0.000 C 
ATOM      9  C   UNL     1      -0.575   9.649  23.472  0.00  0.00    +0.000 C 
ATOM     10  O   UNL     1       0.814  10.077  21.597  0.00  0.00    +0.000 OA
ATOM     11  C   UNL     1      -0.662  12.348  20.702  0.00  0.00    +0.000 C 
ATOM     12  C   UNL     1       0.768  12.922  20.719  0.00  0.00    +0.000 C 
ATOM     13  S   UNL     1      -1.812  13.800  20.887  0.00  0.00    +0.000 S 
ATOM     14  H   UNL     1      -3.931  14.466  22.173  0.00  0.00    +0.000 HD
ENDROOT
BRANCH  11  15
ATOM     15  C   UNL     1      -1.054  11.609  19.411  0.00  0.00    +0.000 A 
ATOM     16  C   UNL     1      -0.209  10.656  18.819  0.00  0.00    +0.000 A 
ATOM     17  C   UNL     1      -0.583   9.985  17.650  0.00  0.00    +0.000 A 
ATOM     18  C   UNL     1      -1.805  10.254  17.024  0.00  0.00    +0.000 A 
ATOM     19  C   UNL     1      -2.197   9.574  15.859  0.00  0.00    +0.000 A 
ATOM     20  C   UNL     1      -3.417   9.857  15.246  0.00  0.00    +0.000 A 
ATOM     21  C   UNL     1      -4.261  10.823  15.786  0.00  0.00    +0.000 A 
ATOM     22  C   UNL     1      -3.884  11.505  16.946  0.00  0.00    +0.000 A 
ATOM     23  C   UNL     1      -2.662  11.227  17.578  0.00  0.00    +0.000 A 
ATOM     24  C   UNL     1      -2.273  11.892  18.755  0.00  0.00    +0.000 A 
ENDBRANCH  11  15
TORSDOF 1
ENDMDL
MODEL 8
REMARK VINA RESULT:      -6.4      5.556      8.055
REMARK  Name = 
REMARK  4 active torsions:
REMARK  status: ('A' for Active; 'I' for Inactive)
REMARK    1  A    between atoms: C_1  and  C_2
REMARK    2  A    between atoms: C_8  and  C_9
REMARK    3  A    between atoms: C_11  and  C_12
REMARK    4  A    between atoms: C_11  and  C_13
REMARK                            x       y       z     vdW  Elec       q    Type
REMARK                         _______ _______ _______ _____ _____    ______ ____
ROOT
ATOM      1  C   UNL     1       2.775   5.962  18.798  0.00  0.00    +0.000 C 
ATOM      2  C   UNL     1       2.577   7.453  18.688  0.00  0.00    +0.000 C 
ATOM      3  O   UNL     1       3.188   8.119  17.865  0.00  0.00    +0.000 OA
ATOM      4  N   UNL     1       1.628   7.927  19.575  0.00  0.00    +0.000 N 
ATOM      5  C   UNL     1       1.208   9.218  19.685  0.00  0.00    +0.000 C 
ATOM      6  N   UNL     1       1.658  10.251  19.062  0.00  0.00    +0.000 NA
ATOM      7  N   UNL     1       0.938  11.386  19.398  0.00  0.00    +0.000 N 
ATOM      8  C   UNL     1       1.275  12.627  18.879  0.00  0.00    +0.000 C 
ATOM      9  C   UNL     1       2.483  12.704  17.977  0.00  0.00    +0.000 C 
ATOM     10  O   UNL     1       0.649  13.656  19.143  0.00  0.00    +0.000 OA
ATOM     11  C   UNL     1      -0.262  11.185  20.240  0.00  0.00    +0.000 C 
ATOM     12  C   UNL     1      -0.202  12.058  21.508  0.00  0.00    +0.000 C 
ATOM     13  S   UNL     1      -0.093   9.421  20.810  0.00  0.00    +0.000 S 
ATOM     14  H   UNL     1       1.144   7.267  20.166  0.00  0.00    +0.000 HD
ENDROOT
BRANCH  11  15
ATOM     15  C   UNL     1      -1.570  11.287  19.436  0.00  0.00    +0.000 A 
ATOM     16  C   UNL     1      -1.726  10.649  18.194  0.00  0.00    +0.000 A 
ATOM     17  C   UNL     1      -2.924  10.744  17.478  0.00  0.00    +0.000 A 
ATOM     18  C   UNL     1      -4.000  11.491  17.970  0.00  0.00    +0.000 A 
ATOM     19  C   UNL     1      -5.213  11.579  17.267  0.00  0.00    +0.000 A 
ATOM     20  C   UNL     1      -6.274  12.331  17.769  0.00  0.00    +0.000 A 
ATOM     21  C   UNL     1      -6.138  13.007  18.978  0.00  0.00    +0.000 A 
ATOM     22  C   UNL     1      -4.938  12.926  19.689  0.00  0.00    +0.000 A 
ATOM     23  C   UNL     1      -3.863  12.168  19.199  0.00  0.00    +0.000 A 
ATOM     24  C   UNL     1      -2.652  12.062  19.908  0.00  0.00    +0.000 A 
ENDBRANCH  11  15
TORSDOF 1
ENDMDL
MODEL 9
REMARK VINA RESULT:      -6.4      8.129     10.832
REMARK  Name = 
REMARK  4 active torsions:
REMARK  status: ('A' for Active; 'I' for Inactive)
REMARK    1  A    between atoms: C_1  and  C_2
REMARK    2  A    between atoms: C_8  and  C_9
REMARK    3  A    between atoms: C_11  and  C_12
REMARK    4  A    between atoms: C_11  and  C_13
REMARK                            x       y       z     vdW  Elec       q    Type
REMARK                         _______ _______ _______ _____ _____    ______ ____
ROOT
ATOM      1  C   UNL     1      -0.676  16.871  23.957  0.00  0.00    +0.000 C 
ATOM      2  C   UNL     1      -0.642  15.398  23.637  0.00  0.00    +0.000 C 
ATOM      3  O   UNL     1      -0.900  14.555  24.484  0.00  0.00    +0.000 OA
ATOM      4  N   UNL     1      -0.336  15.152  22.311  0.00  0.00    +0.000 N 
ATOM      5  C   UNL     1      -0.269  13.928  21.718  0.00  0.00    +0.000 C 
ATOM      6  N   UNL     1      -0.389  12.773  22.275  0.00  0.00    +0.000 NA
ATOM      7  N   UNL     1      -0.318  11.759  21.333  0.00  0.00    +0.000 N 
ATOM      8  C   UNL     1      -0.379  10.426  21.711  0.00  0.00    +0.000 C 
ATOM      9  C   UNL     1      -0.475  10.120  23.186  0.00  0.00    +0.000 C 
ATOM     10  O   UNL     1      -0.334   9.497  20.901  0.00  0.00    +0.000 OA
ATOM     11  C   UNL     1      -0.287  12.173  19.913  0.00  0.00    +0.000 C 
ATOM     12  C   UNL     1       0.935  11.576  19.188  0.00  0.00    +0.000 C 
ATOM     13  S   UNL     1       0.006  14.009  20.010  0.00  0.00    +0.000 S 
ATOM     14  H   UNL     1      -0.204  15.937  21.690  0.00  0.00    +0.000 HD
ENDROOT
BRANCH  11  15
ATOM     15  C   UNL     1      -1.636  11.957  19.207  0.00  0.00    +0.000 A 
ATOM     16  C   UNL     1      -1.716  11.403  17.918  0.00  0.00    +0.000 A 
ATOM     17  C   UNL     1      -2.950  11.204  17.291  0.00  0.00    +0.000 A 
ATOM     18  C   UNL     1      -4.146  11.566  17.923  0.00  0.00    +0.000 A 
ATOM     19  C   UNL     1      -5.391  11.355  17.309  0.00  0.00    +0.000 A 
ATOM     20  C   UNL     1      -6.572  11.726  17.950  0.00  0.00    +0.000 A 
ATOM     21  C   UNL     1      -6.526  12.312  19.211  0.00  0.00    +0.000 A 
ATOM     22  C   UNL     1      -5.294  12.526  19.834  0.00  0.00    +0.000 A 
ATOM     23  C   UNL     1      -4.097  12.153  19.204  0.00  0.00    +0.000 A 
ATOM     24  C   UNL     1      -2.847  12.345  19.822  0.00  0.00    +0.000 A 
ENDBRANCH  11  15
TORSDOF 1
ENDMDL
