MODEL 1
REMARK VINA RESULT:      -7.9      0.000      0.000
REMARK  Name = 
REMARK  3 active torsions:
REMARK  status: ('A' for Active; 'I' for Inactive)
REMARK    1  A    between atoms: C_5  and  C_6
REMARK    2  A    between atoms: C_21  and  C_22
REMARK    3  A    between atoms: C_25  and  C_26
REMARK                            x       y       z     vdW  Elec       q    Type
REMARK                         _______ _______ _______ _____ _____    ______ ____
ROOT
ATOM      1  O   UNL     1      -6.684  16.052  18.689  0.00  0.00    +0.000 OA
ATOM      2  C   UNL     1      -6.607  14.879  18.369  0.00  0.00    +0.000 C 
ATOM      3  O   UNL     1      -7.157  14.409  17.209  0.00  0.00    +0.000 OA
ATOM      4  C   UNL     1      -6.975  12.993  17.146  0.00  0.00    +0.000 C 
ATOM      5  C   UNL     1      -6.030  12.640  18.284  0.00  0.00    +0.000 C 
ATOM      6  N   UNL     1      -5.971  13.856  19.056  0.00  0.00    +0.000 N 
ATOM      7  C   UNL     1      -5.210  13.981  20.205  0.00  0.00    +0.000 A 
ATOM      8  C   UNL     1      -5.719  14.976  21.201  0.00  0.00    +0.000 A 
ATOM      9  C   UNL     1      -5.064  15.013  22.370  0.00  0.00    +0.000 A 
ATOM     10  N   UNL     1      -3.946  14.220  22.574  0.00  0.00    +0.000 N 
ATOM     11  N   UNL     1      -3.176  14.170  23.685  0.00  0.00    +0.000 NA
ATOM     12  C   UNL     1      -2.171  13.364  23.348  0.00  0.00    +0.000 A 
ATOM     13  C   UNL     1      -2.284  12.847  22.038  0.00  0.00    +0.000 A 
ATOM     14  C   UNL     1      -3.483  13.365  21.566  0.00  0.00    +0.000 A 
ATOM     15  N   UNL     1      -4.179  13.207  20.389  0.00  0.00    +0.000 NA
ENDROOT
BRANCH   5  16
ATOM     16  C   UNL     1      -6.552  11.468  19.104  0.00  0.00    +0.000 A 
ATOM     17  C   UNL     1      -7.461  11.665  20.163  0.00  0.00    +0.000 A 
ATOM     18  C   UNL     1      -7.910  10.589  20.932  0.00  0.00    +0.000 A 
ATOM     19  C   UNL     1      -7.455   9.307  20.645  0.00  0.00    +0.000 A 
ATOM     20  F   UNL     1      -7.889   8.277  21.383  0.00  0.00    +0.000 F 
ATOM     21  C   UNL     1      -6.559   9.097  19.604  0.00  0.00    +0.000 A 
ATOM     22  F   UNL     1      -6.123   7.860  19.332  0.00  0.00    +0.000 F 
ATOM     23  C   UNL     1      -6.105  10.165  18.833  0.00  0.00    +0.000 A 
ENDBRANCH   5  16
BRANCH  13  24
ATOM     24  C   UNL     1      -1.372  11.981  21.307  0.00  0.00    +0.000 A 
ATOM     25  C   UNL     1      -1.669  11.581  19.996  0.00  0.00    +0.000 A 
ATOM     26  C   UNL     1      -0.812  10.718  19.300  0.00  0.00    +0.000 A 
ATOM     27  C   UNL     1       0.359  10.227  19.898  0.00  0.00    +0.000 A 
ATOM     28  C   UNL     1       0.641  10.626  21.206  0.00  0.00    +0.000 A 
ATOM     29  F   UNL     1       1.738  10.197  21.850  0.00  0.00    +0.000 F 
ATOM     30  C   UNL     1      -0.211  11.484  21.905  0.00  0.00    +0.000 A 
BRANCH  27  31
ATOM     31  C   UNL     1       1.243   9.324  19.170  0.00  0.00    +0.000 A 
ATOM     32  N   UNL     1       1.587   8.073  19.632  0.00  0.00    +0.000 NA
ATOM     33  C   UNL     1       2.371   7.593  18.701  0.00  0.00    +0.000 A 
ATOM     34  N   UNL     1       2.505   8.512  17.714  0.00  0.00    +0.000 N 
ATOM     35  N   UNL     1       1.802   9.622  17.982  0.00  0.00    +0.000 NA
ATOM     36  H   UNL     1       3.039   8.456  16.855  0.00  0.00    +0.000 HD
ENDBRANCH  27  31
ENDBRANCH  13  24
TORSDOF 3
ENDMDL
MODEL 2
REMARK VINA RESULT:      -7.7     10.137     13.362
REMARK  Name = 
REMARK  3 active torsions:
REMARK  status: ('A' for Active; 'I' for Inactive)
REMARK    1  A    between atoms: C_5  and  C_6
REMARK    2  A    between atoms: C_21  and  C_22
REMARK    3  A    between atoms: C_25  and  C_26
REMARK                            x       y       z     vdW  Elec       q    Type
REMARK                         _______ _______ _______ _____ _____    ______ ____
ROOT
ATOM      1  O   UNL     1       9.916  18.111  18.737  0.00  0.00    +0.000 OA
ATOM      2  C   UNL     1      10.338  17.055  19.176  0.00  0.00    +0.000 C 
ATOM      3  O   UNL     1      11.676  16.809  19.302  0.00  0.00    +0.000 OA
ATOM      4  C   UNL     1      11.863  15.469  19.766  0.00  0.00    +0.000 C 
ATOM      5  C   UNL     1      10.482  14.964  20.156  0.00  0.00    +0.000 C 
ATOM      6  N   UNL     1       9.598  15.972  19.626  0.00  0.00    +0.000 N 
ATOM      7  C   UNL     1       8.222  15.909  19.757  0.00  0.00    +0.000 A 
ATOM      8  C   UNL     1       7.447  16.595  18.675  0.00  0.00    +0.000 A 
ATOM      9  C   UNL     1       6.117  16.430  18.721  0.00  0.00    +0.000 A 
ATOM     10  N   UNL     1       5.531  15.729  19.763  0.00  0.00    +0.000 N 
ATOM     11  N   UNL     1       4.211  15.506  19.952  0.00  0.00    +0.000 NA
ATOM     12  C   UNL     1       4.151  14.903  21.138  0.00  0.00    +0.000 A 
ATOM     13  C   UNL     1       5.418  14.689  21.722  0.00  0.00    +0.000 A 
ATOM     14  C   UNL     1       6.317  15.177  20.782  0.00  0.00    +0.000 A 
ATOM     15  N   UNL     1       7.692  15.221  20.727  0.00  0.00    +0.000 NA
ENDROOT
BRANCH   5  16
ATOM     16  C   UNL     1      10.200  13.590  19.564  0.00  0.00    +0.000 A 
ATOM     17  C   UNL     1      10.242  13.372  18.171  0.00  0.00    +0.000 A 
ATOM     18  C   UNL     1       9.950  12.116  17.634  0.00  0.00    +0.000 A 
ATOM     19  C   UNL     1       9.617  11.069  18.486  0.00  0.00    +0.000 A 
ATOM     20  F   UNL     1       9.338   9.865  17.966  0.00  0.00    +0.000 F 
ATOM     21  C   UNL     1       9.571  11.268  19.859  0.00  0.00    +0.000 A 
ATOM     22  F   UNL     1       9.248  10.256  20.675  0.00  0.00    +0.000 F 
ATOM     23  C   UNL     1       9.859  12.519  20.404  0.00  0.00    +0.000 A 
ENDBRANCH   5  16
BRANCH  13  24
ATOM     24  C   UNL     1       5.752  14.108  23.013  0.00  0.00    +0.000 A 
ATOM     25  C   UNL     1       5.666  14.878  24.182  0.00  0.00    +0.000 A 
ATOM     26  C   UNL     1       6.021  14.334  25.425  0.00  0.00    +0.000 A 
ATOM     27  C   UNL     1       6.477  13.011  25.529  0.00  0.00    +0.000 A 
ATOM     28  C   UNL     1       6.565  12.256  24.358  0.00  0.00    +0.000 A 
ATOM     29  F   UNL     1       6.996  10.985  24.373  0.00  0.00    +0.000 F 
ATOM     30  C   UNL     1       6.215  12.794  23.118  0.00  0.00    +0.000 A 
BRANCH  27  31
ATOM     31  C   UNL     1       6.850  12.454  26.824  0.00  0.00    +0.000 A 
ATOM     32  N   UNL     1       6.365  11.254  27.295  0.00  0.00    +0.000 NA
ATOM     33  C   UNL     1       6.938  11.114  28.464  0.00  0.00    +0.000 A 
ATOM     34  N   UNL     1       7.737  12.184  28.699  0.00  0.00    +0.000 N 
ATOM     35  N   UNL     1       7.703  13.052  27.678  0.00  0.00    +0.000 NA
ATOM     36  H   UNL     1       8.317  12.385  29.504  0.00  0.00    +0.000 HD
ENDBRANCH  27  31
ENDBRANCH  13  24
TORSDOF 3
ENDMDL
MODEL 3
REMARK VINA RESULT:      -7.7      4.787      6.825
REMARK  Name = 
REMARK  3 active torsions:
REMARK  status: ('A' for Active; 'I' for Inactive)
REMARK    1  A    between atoms: C_5  and  C_6
REMARK    2  A    between atoms: C_21  and  C_22
REMARK    3  A    between atoms: C_25  and  C_26
REMARK                            x       y       z     vdW  Elec       q    Type
REMARK                         _______ _______ _______ _____ _____    ______ ____
ROOT
ATOM      1  O   UNL     1       0.496  17.466  26.092  0.00  0.00    +0.000 OA
ATOM      2  C   UNL     1       0.905  17.277  24.959  0.00  0.00    +0.000 C 
ATOM      3  O   UNL     1       2.064  17.840  24.506  0.00  0.00    +0.000 OA
ATOM      4  C   UNL     1       2.239  17.505  23.127  0.00  0.00    +0.000 C 
ATOM      5  C   UNL     1       1.180  16.458  22.813  0.00  0.00    +0.000 C 
ATOM      6  N   UNL     1       0.327  16.490  23.974  0.00  0.00    +0.000 N 
ATOM      7  C   UNL     1      -0.785  15.679  24.112  0.00  0.00    +0.000 A 
ATOM      8  C   UNL     1      -1.877  16.235  24.973  0.00  0.00    +0.000 A 
ATOM      9  C   UNL     1      -3.009  15.519  25.009  0.00  0.00    +0.000 A 
ATOM     10  N   UNL     1      -3.096  14.308  24.341  0.00  0.00    +0.000 N 
ATOM     11  N   UNL     1      -4.158  13.471  24.308  0.00  0.00    +0.000 NA
ATOM     12  C   UNL     1      -3.711  12.405  23.648  0.00  0.00    +0.000 A 
ATOM     13  C   UNL     1      -2.375  12.538  23.208  0.00  0.00    +0.000 A 
ATOM     14  C   UNL     1      -2.006  13.815  23.613  0.00  0.00    +0.000 A 
ATOM     15  N   UNL     1      -0.859  14.559  23.452  0.00  0.00    +0.000 NA
ENDROOT
BRANCH   5  16
ATOM     16  C   UNL     1       0.421  16.794  21.537  0.00  0.00    +0.000 A 
ATOM     17  C   UNL     1      -0.190  18.053  21.361  0.00  0.00    +0.000 A 
ATOM     18  C   UNL     1      -0.913  18.342  20.201  0.00  0.00    +0.000 A 
ATOM     19  C   UNL     1      -1.028  17.376  19.208  0.00  0.00    +0.000 A 
ATOM     20  F   UNL     1      -1.721  17.658  18.097  0.00  0.00    +0.000 F 
ATOM     21  C   UNL     1      -0.432  16.131  19.367  0.00  0.00    +0.000 A 
ATOM     22  F   UNL     1      -0.546  15.204  18.408  0.00  0.00    +0.000 F 
ATOM     23  C   UNL     1       0.290  15.834  20.522  0.00  0.00    +0.000 A 
ENDBRANCH   5  16
BRANCH  13  24
ATOM     24  C   UNL     1      -1.537  11.581  22.504  0.00  0.00    +0.000 A 
ATOM     25  C   UNL     1      -0.927  10.525  23.197  0.00  0.00    +0.000 A 
ATOM     26  C   UNL     1      -0.089   9.621  22.530  0.00  0.00    +0.000 A 
ATOM     27  C   UNL     1       0.166   9.752  21.156  0.00  0.00    +0.000 A 
ATOM     28  C   UNL     1      -0.441  10.811  20.478  0.00  0.00    +0.000 A 
ATOM     29  F   UNL     1      -0.243  11.009  19.165  0.00  0.00    +0.000 F 
ATOM     30  C   UNL     1      -1.274  11.716  21.138  0.00  0.00    +0.000 A 
BRANCH  27  31
ATOM     31  C   UNL     1       1.044   8.811  20.471  0.00  0.00    +0.000 A 
ATOM     32  N   UNL     1       1.493   9.003  19.182  0.00  0.00    +0.000 NA
ATOM     33  C   UNL     1       2.247   7.959  18.948  0.00  0.00    +0.000 A 
ATOM     34  N   UNL     1       2.254   7.161  20.043  0.00  0.00    +0.000 N 
ATOM     35  N   UNL     1       1.501   7.674  21.027  0.00  0.00    +0.000 NA
ATOM     36  H   UNL     1       2.735   6.281  20.191  0.00  0.00    +0.000 HD
ENDBRANCH  27  31
ENDBRANCH  13  24
TORSDOF 3
ENDMDL
MODEL 4
REMARK VINA RESULT:      -7.7      4.060      5.753
REMARK  Name = 
REMARK  3 active torsions:
REMARK  status: ('A' for Active; 'I' for Inactive)
REMARK    1  A    between atoms: C_5  and  C_6
REMARK    2  A    between atoms: C_21  and  C_22
REMARK    3  A    between atoms: C_25  and  C_26
REMARK                            x       y       z     vdW  Elec       q    Type
REMARK                         _______ _______ _______ _____ _____    ______ ____
ROOT
ATOM      1  O   UNL     1      -7.614  10.954  21.701  0.00  0.00    +0.000 OA
ATOM      2  C   UNL     1      -7.113  12.053  21.862  0.00  0.00    +0.000 C 
ATOM      3  O   UNL     1      -7.466  12.862  22.905  0.00  0.00    +0.000 OA
ATOM      4  C   UNL     1      -6.774  14.107  22.786  0.00  0.00    +0.000 C 
ATOM      5  C   UNL     1      -5.750  13.913  21.678  0.00  0.00    +0.000 C 
ATOM      6  N   UNL     1      -6.135  12.657  21.086  0.00  0.00    +0.000 N 
ATOM      7  C   UNL     1      -5.458  12.089  20.021  0.00  0.00    +0.000 A 
ATOM      8  C   UNL     1      -6.286  11.207  19.138  0.00  0.00    +0.000 A 
ATOM      9  C   UNL     1      -5.675  10.757  18.033  0.00  0.00    +0.000 A 
ATOM     10  N   UNL     1      -4.340  11.047  17.800  0.00  0.00    +0.000 N 
ATOM     11  N   UNL     1      -3.591  10.644  16.749  0.00  0.00    +0.000 NA
ATOM     12  C   UNL     1      -2.365  11.070  17.041  0.00  0.00    +0.000 A 
ATOM     13  C   UNL     1      -2.296  11.787  18.256  0.00  0.00    +0.000 A 
ATOM     14  C   UNL     1      -3.608  11.819  18.711  0.00  0.00    +0.000 A 
ATOM     15  N   UNL     1      -4.212  12.398  19.804  0.00  0.00    +0.000 NA
ENDROOT
BRANCH   5  16
ATOM     16  C   UNL     1      -5.790  15.055  20.672  0.00  0.00    +0.000 A 
ATOM     17  C   UNL     1      -6.878  15.212  19.789  0.00  0.00    +0.000 A 
ATOM     18  C   UNL     1      -6.893  16.242  18.846  0.00  0.00    +0.000 A 
ATOM     19  C   UNL     1      -5.820  17.124  18.781  0.00  0.00    +0.000 A 
ATOM     20  F   UNL     1      -5.838  18.112  17.876  0.00  0.00    +0.000 F 
ATOM     21  C   UNL     1      -4.741  16.983  19.644  0.00  0.00    +0.000 A 
ATOM     22  F   UNL     1      -3.710  17.835  19.577  0.00  0.00    +0.000 F 
ATOM     23  C   UNL     1      -4.718  15.956  20.587  0.00  0.00    +0.000 A 
ENDBRANCH   5  16
BRANCH  13  24
ATOM     24  C   UNL     1      -1.138  12.363  18.922  0.00  0.00    +0.000 A 
ATOM     25  C   UNL     1      -0.713  11.867  20.164  0.00  0.00    +0.000 A 
ATOM     26  C   UNL     1       0.379  12.442  20.827  0.00  0.00    +0.000 A 
ATOM     27  C   UNL     1       1.071  13.530  20.271  0.00  0.00    +0.000 A 
ATOM     28  C   UNL     1       0.635  14.019  19.038  0.00  0.00    +0.000 A 
ATOM     29  F   UNL     1       1.238  15.058  18.442  0.00  0.00    +0.000 F 
ATOM     30  C   UNL     1      -0.455  13.451  18.374  0.00  0.00    +0.000 A 
BRANCH  27  31
ATOM     31  C   UNL     1       2.202  14.126  20.970  0.00  0.00    +0.000 A 
ATOM     32  N   UNL     1       3.477  14.158  20.448  0.00  0.00    +0.000 NA
ATOM     33  C   UNL     1       4.182  14.774  21.363  0.00  0.00    +0.000 A 
ATOM     34  N   UNL     1       3.374  15.101  22.402  0.00  0.00    +0.000 N 
ATOM     35  N   UNL     1       2.112  14.704  22.183  0.00  0.00    +0.000 NA
ATOM     36  H   UNL     1       3.603  15.581  23.264  0.00  0.00    +0.000 HD
ENDBRANCH  27  31
ENDBRANCH  13  24
TORSDOF 3
ENDMDL
MODEL 5
REMARK VINA RESULT:      -7.7      6.714     11.914
REMARK  Name = 
REMARK  3 active torsions:
REMARK  status: ('A' for Active; 'I' for Inactive)
REMARK    1  A    between atoms: C_5  and  C_6
REMARK    2  A    between atoms: C_21  and  C_22
REMARK    3  A    between atoms: C_25  and  C_26
REMARK                            x       y       z     vdW  Elec       q    Type
REMARK                         _______ _______ _______ _____ _____    ______ ____
ROOT
ATOM      1  O   UNL     1       4.993   2.558  15.574  0.00  0.00    +0.000 OA
ATOM      2  C   UNL     1       5.347   3.722  15.514  0.00  0.00    +0.000 C 
ATOM      3  O   UNL     1       5.966   4.233  14.408  0.00  0.00    +0.000 OA
ATOM      4  C   UNL     1       6.331   5.592  14.662  0.00  0.00    +0.000 C 
ATOM      5  C   UNL     1       5.656   5.968  15.973  0.00  0.00    +0.000 C 
ATOM      6  N   UNL     1       5.187   4.704  16.481  0.00  0.00    +0.000 N 
ATOM      7  C   UNL     1       4.502   4.581  17.677  0.00  0.00    +0.000 A 
ATOM      8  C   UNL     1       4.653   3.260  18.364  0.00  0.00    +0.000 A 
ATOM      9  C   UNL     1       4.102   3.175  19.583  0.00  0.00    +0.000 A 
ATOM     10  N   UNL     1       3.381   4.237  20.104  0.00  0.00    +0.000 N 
ATOM     11  N   UNL     1       2.753   4.285  21.301  0.00  0.00    +0.000 NA
ATOM     12  C   UNL     1       2.110   5.451  21.284  0.00  0.00    +0.000 A 
ATOM     13  C   UNL     1       2.335   6.197  20.106  0.00  0.00    +0.000 A 
ATOM     14  C   UNL     1       3.219   5.418  19.369  0.00  0.00    +0.000 A 
ATOM     15  N   UNL     1       3.854   5.601  18.162  0.00  0.00    +0.000 NA
ENDROOT
BRANCH   5  16
ATOM     16  C   UNL     1       6.630   6.642  16.931  0.00  0.00    +0.000 A 
ATOM     17  C   UNL     1       7.334   5.897  17.899  0.00  0.00    +0.000 A 
ATOM     18  C   UNL     1       8.201   6.527  18.796  0.00  0.00    +0.000 A 
ATOM     19  C   UNL     1       8.371   7.905  18.729  0.00  0.00    +0.000 A 
ATOM     20  F   UNL     1       9.203   8.505  19.590  0.00  0.00    +0.000 F 
ATOM     21  C   UNL     1       7.683   8.652  17.781  0.00  0.00    +0.000 A 
ATOM     22  F   UNL     1       7.850   9.980  17.721  0.00  0.00    +0.000 F 
ATOM     23  C   UNL     1       6.815   8.032  16.883  0.00  0.00    +0.000 A 
ENDBRANCH   5  16
BRANCH  13  24
ATOM     24  C   UNL     1       1.778   7.480  19.706  0.00  0.00    +0.000 A 
ATOM     25  C   UNL     1       2.019   7.991  18.423  0.00  0.00    +0.000 A 
ATOM     26  C   UNL     1       1.516   9.244  18.045  0.00  0.00    +0.000 A 
ATOM     27  C   UNL     1       0.764  10.019  18.942  0.00  0.00    +0.000 A 
ATOM     28  C   UNL     1       0.536   9.503  20.219  0.00  0.00    +0.000 A 
ATOM     29  F   UNL     1      -0.169  10.185  21.136  0.00  0.00    +0.000 F 
ATOM     30  C   UNL     1       1.038   8.257  20.601  0.00  0.00    +0.000 A 
BRANCH  27  31
ATOM     31  C   UNL     1       0.249  11.323  18.544  0.00  0.00    +0.000 A 
ATOM     32  N   UNL     1       0.974  12.489  18.667  0.00  0.00    +0.000 NA
ATOM     33  C   UNL     1       0.174  13.414  18.200  0.00  0.00    +0.000 A 
ATOM     34  N   UNL     1      -0.991  12.840  17.812  0.00  0.00    +0.000 N 
ATOM     35  N   UNL     1      -0.975  11.515  18.016  0.00  0.00    +0.000 NA
ATOM     36  H   UNL     1      -1.814  13.272  17.409  0.00  0.00    +0.000 HD
ENDBRANCH  27  31
ENDBRANCH  13  24
TORSDOF 3
ENDMDL
MODEL 6
REMARK VINA RESULT:      -7.6      4.370      7.451
REMARK  Name = 
REMARK  3 active torsions:
REMARK  status: ('A' for Active; 'I' for Inactive)
REMARK    1  A    between atoms: C_5  and  C_6
REMARK    2  A    between atoms: C_21  and  C_22
REMARK    3  A    between atoms: C_25  and  C_26
REMARK                            x       y       z     vdW  Elec       q    Type
REMARK                         _______ _______ _______ _____ _____    ______ ____
ROOT
ATOM      1  O   UNL     1      -0.673  15.543  23.471  0.00  0.00    +0.000 OA
ATOM      2  C   UNL     1       0.389  15.363  22.900  0.00  0.00    +0.000 C 
ATOM      3  O   UNL     1       1.565  15.859  23.389  0.00  0.00    +0.000 OA
ATOM      4  C   UNL     1       2.617  15.557  22.469  0.00  0.00    +0.000 C 
ATOM      5  C   UNL     1       2.021  14.598  21.450  0.00  0.00    +0.000 C 
ATOM      6  N   UNL     1       0.608  14.652  21.730  0.00  0.00    +0.000 N 
ATOM      7  C   UNL     1      -0.327  13.917  21.023  0.00  0.00    +0.000 A 
ATOM      8  C   UNL     1      -1.696  14.520  20.961  0.00  0.00    +0.000 A 
ATOM      9  C   UNL     1      -2.574  13.883  20.172  0.00  0.00    +0.000 A 
ATOM     10  N   UNL     1      -2.221  12.704  19.536  0.00  0.00    +0.000 N 
ATOM     11  N   UNL     1      -3.004  11.946  18.735  0.00  0.00    +0.000 NA
ATOM     12  C   UNL     1      -2.260  10.873  18.476  0.00  0.00    +0.000 A 
ATOM     13  C   UNL     1      -0.977  10.927  19.062  0.00  0.00    +0.000 A 
ATOM     14  C   UNL     1      -0.941  12.160  19.701  0.00  0.00    +0.000 A 
ATOM     15  N   UNL     1       0.033  12.827  20.408  0.00  0.00    +0.000 NA
ENDROOT
BRANCH   5  16
ATOM     16  C   UNL     1       2.337  15.029  20.024  0.00  0.00    +0.000 A 
ATOM     17  C   UNL     1       3.084  14.201  19.160  0.00  0.00    +0.000 A 
ATOM     18  C   UNL     1       3.398  14.617  17.864  0.00  0.00    +0.000 A 
ATOM     19  C   UNL     1       2.965  15.862  17.422  0.00  0.00    +0.000 A 
ATOM     20  F   UNL     1       3.267  16.257  16.178  0.00  0.00    +0.000 F 
ATOM     21  C   UNL     1       2.228  16.688  18.261  0.00  0.00    +0.000 A 
ATOM     22  F   UNL     1       1.814  17.887  17.830  0.00  0.00    +0.000 F 
ATOM     23  C   UNL     1       1.912  16.282  19.556  0.00  0.00    +0.000 A 
ENDBRANCH   5  16
BRANCH  13  24
ATOM     24  C   UNL     1       0.089   9.936  19.041  0.00  0.00    +0.000 A 
ATOM     25  C   UNL     1       0.767   9.647  17.848  0.00  0.00    +0.000 A 
ATOM     26  C   UNL     1       1.769   8.668  17.814  0.00  0.00    +0.000 A 
ATOM     27  C   UNL     1       2.116   7.950  18.969  0.00  0.00    +0.000 A 
ATOM     28  C   UNL     1       1.430   8.242  20.150  0.00  0.00    +0.000 A 
ATOM     29  F   UNL     1       1.698   7.596  21.295  0.00  0.00    +0.000 F 
ATOM     30  C   UNL     1       0.428   9.214  20.188  0.00  0.00    +0.000 A 
BRANCH  27  31
ATOM     31  C   UNL     1       3.156   6.929  18.925  0.00  0.00    +0.000 A 
ATOM     32  N   UNL     1       3.258   5.918  19.856  0.00  0.00    +0.000 NA
ATOM     33  C   UNL     1       4.296   5.225  19.462  0.00  0.00    +0.000 A 
ATOM     34  N   UNL     1       4.809   5.790  18.342  0.00  0.00    +0.000 N 
ATOM     35  N   UNL     1       4.108   6.872  17.975  0.00  0.00    +0.000 NA
ATOM     36  H   UNL     1       5.607   5.502  17.788  0.00  0.00    +0.000 HD
ENDBRANCH  27  31
ENDBRANCH  13  24
TORSDOF 3
ENDMDL
MODEL 7
REMARK VINA RESULT:      -7.6      4.621      7.571
REMARK  Name = 
REMARK  3 active torsions:
REMARK  status: ('A' for Active; 'I' for Inactive)
REMARK    1  A    between atoms: C_5  and  C_6
REMARK    2  A    between atoms: C_21  and  C_22
REMARK    3  A    between atoms: C_25  and  C_26
REMARK                            x       y       z     vdW  Elec       q    Type
REMARK                         _______ _______ _______ _____ _____    ______ ____
ROOT
ATOM      1  O   UNL     1       0.255  16.231  24.047  0.00  0.00    +0.000 OA
ATOM      2  C   UNL     1       1.185  15.987  23.298  0.00  0.00    +0.000 C 
ATOM      3  O   UNL     1       2.462  16.385  23.579  0.00  0.00    +0.000 OA
ATOM      4  C   UNL     1       3.314  16.027  22.488  0.00  0.00    +0.000 C 
ATOM      5  C   UNL     1       2.480  15.135  21.580  0.00  0.00    +0.000 C 
ATOM      6  N   UNL     1       1.145  15.285  22.102  0.00  0.00    +0.000 N 
ATOM      7  C   UNL     1       0.049  14.635  21.563  0.00  0.00    +0.000 A 
ATOM      8  C   UNL     1      -1.261  15.337  21.745  0.00  0.00    +0.000 A 
ATOM      9  C   UNL     1      -2.307  14.783  21.116  0.00  0.00    +0.000 A 
ATOM     10  N   UNL     1      -2.159  13.595  20.418  0.00  0.00    +0.000 N 
ATOM     11  N   UNL     1      -3.123  12.912  19.760  0.00  0.00    +0.000 NA
ATOM     12  C   UNL     1      -2.518  11.793  19.367  0.00  0.00    +0.000 A 
ATOM     13  C   UNL     1      -1.152  11.742  19.721  0.00  0.00    +0.000 A 
ATOM     14  C   UNL     1      -0.915  12.955  20.353  0.00  0.00    +0.000 A 
ATOM     15  N   UNL     1       0.214  13.535  20.886  0.00  0.00    +0.000 NA
ENDROOT
BRANCH   5  16
ATOM     16  C   UNL     1       2.576  15.571  20.124  0.00  0.00    +0.000 A 
ATOM     17  C   UNL     1       3.325  14.829  19.188  0.00  0.00    +0.000 A 
ATOM     18  C   UNL     1       3.435  15.254  17.862  0.00  0.00    +0.000 A 
ATOM     19  C   UNL     1       2.796  16.421  17.462  0.00  0.00    +0.000 A 
ATOM     20  F   UNL     1       2.904  16.825  16.189  0.00  0.00    +0.000 F 
ATOM     21  C   UNL     1       2.055  17.163  18.373  0.00  0.00    +0.000 A 
ATOM     22  F   UNL     1       1.441  18.288  17.983  0.00  0.00    +0.000 F 
ATOM     23  C   UNL     1       1.940  16.748  19.699  0.00  0.00    +0.000 A 
ENDBRANCH   5  16
BRANCH  13  24
ATOM     24  C   UNL     1      -0.184  10.677  19.507  0.00  0.00    +0.000 A 
ATOM     25  C   UNL     1       0.281  10.388  18.216  0.00  0.00    +0.000 A 
ATOM     26  C   UNL     1       1.186   9.340  17.999  0.00  0.00    +0.000 A 
ATOM     27  C   UNL     1       1.646   8.551  19.066  0.00  0.00    +0.000 A 
ATOM     28  C   UNL     1       1.172   8.845  20.346  0.00  0.00    +0.000 A 
ATOM     29  F   UNL     1       1.558   8.135  21.417  0.00  0.00    +0.000 F 
ATOM     30  C   UNL     1       0.267   9.886  20.566  0.00  0.00    +0.000 A 
BRANCH  27  31
ATOM     31  C   UNL     1       2.583   7.460  18.832  0.00  0.00    +0.000 A 
ATOM     32  N   UNL     1       3.454   7.431  17.765  0.00  0.00    +0.000 NA
ATOM     33  C   UNL     1       4.113   6.311  17.920  0.00  0.00    +0.000 A 
ATOM     34  N   UNL     1       3.661   5.679  19.031  0.00  0.00    +0.000 N 
ATOM     35  N   UNL     1       2.691   6.382  19.632  0.00  0.00    +0.000 NA
ATOM     36  H   UNL     1       3.958   4.797  19.431  0.00  0.00    +0.000 HD
ENDBRANCH  27  31
ENDBRANCH  13  24
TORSDOF 3
ENDMDL
MODEL 8
REMARK VINA RESULT:      -7.6      3.920      5.588
REMARK  Name = 
REMARK  3 active torsions:
REMARK  status: ('A' for Active; 'I' for Inactive)
REMARK    1  A    between atoms: C_5  and  C_6
REMARK    2  A    between atoms: C_21  and  C_22
REMARK    3  A    between atoms: C_25  and  C_26
REMARK                            x       y       z     vdW  Elec       q    Type
REMARK                         _______ _______ _______ _____ _____    ______ ____
ROOT
ATOM      1  O   UNL     1      -7.730  11.151  21.949  0.00  0.00    +0.000 OA
ATOM      2  C   UNL     1      -7.193  12.238  22.066  0.00  0.00    +0.000 C 
ATOM      3  O   UNL     1      -7.482  13.080  23.103  0.00  0.00    +0.000 OA
ATOM      4  C   UNL     1      -6.762  14.302  22.929  0.00  0.00    +0.000 C 
ATOM      5  C   UNL     1      -5.788  14.055  21.787  0.00  0.00    +0.000 C 
ATOM      6  N   UNL     1      -6.230  12.798  21.239  0.00  0.00    +0.000 N 
ATOM      7  C   UNL     1      -5.612  12.188  20.162  0.00  0.00    +0.000 A 
ATOM      8  C   UNL     1      -6.497  11.311  19.332  0.00  0.00    +0.000 A 
ATOM      9  C   UNL     1      -5.943  10.820  18.214  0.00  0.00    +0.000 A 
ATOM     10  N   UNL     1      -4.611  11.067  17.923  0.00  0.00    +0.000 N 
ATOM     11  N   UNL     1      -3.915  10.620  16.853  0.00  0.00    +0.000 NA
ATOM     12  C   UNL     1      -2.667  11.019  17.087  0.00  0.00    +0.000 A 
ATOM     13  C   UNL     1      -2.531  11.759  18.282  0.00  0.00    +0.000 A 
ATOM     14  C   UNL     1      -3.823  11.838  18.787  0.00  0.00    +0.000 A 
ATOM     15  N   UNL     1      -4.367  12.457  19.889  0.00  0.00    +0.000 NA
ENDROOT
BRANCH   5  16
ATOM     16  C   UNL     1      -5.837  15.176  20.757  0.00  0.00    +0.000 A 
ATOM     17  C   UNL     1      -6.957  15.347  19.916  0.00  0.00    +0.000 A 
ATOM     18  C   UNL     1      -6.980  16.356  18.952  0.00  0.00    +0.000 A 
ATOM     19  C   UNL     1      -5.886  17.204  18.822  0.00  0.00    +0.000 A 
ATOM     20  F   UNL     1      -5.913  18.172  17.895  0.00  0.00    +0.000 F 
ATOM     21  C   UNL     1      -4.776  17.048  19.642  0.00  0.00    +0.000 A 
ATOM     22  F   UNL     1      -3.724  17.867  19.512  0.00  0.00    +0.000 F 
ATOM     23  C   UNL     1      -4.743  16.042  20.607  0.00  0.00    +0.000 A 
ENDBRANCH   5  16
BRANCH  13  24
ATOM     24  C   UNL     1      -1.333  12.317  18.890  0.00  0.00    +0.000 A 
ATOM     25  C   UNL     1      -0.687  13.418  18.308  0.00  0.00    +0.000 A 
ATOM     26  C   UNL     1       0.488  13.937  18.869  0.00  0.00    +0.000 A 
ATOM     27  C   UNL     1       1.051  13.365  20.021  0.00  0.00    +0.000 A 
ATOM     28  C   UNL     1       0.403  12.266  20.588  0.00  0.00    +0.000 A 
ATOM     29  F   UNL     1       0.880  11.660  21.686  0.00  0.00    +0.000 F 
ATOM     30  C   UNL     1      -0.766  11.743  20.031  0.00  0.00    +0.000 A 
BRANCH  27  31
ATOM     31  C   UNL     1       2.277  13.907  20.595  0.00  0.00    +0.000 A 
ATOM     32  N   UNL     1       3.405  14.169  19.849  0.00  0.00    +0.000 NA
ATOM     33  C   UNL     1       4.260  14.643  20.720  0.00  0.00    +0.000 A 
ATOM     34  N   UNL     1       3.682  14.665  21.946  0.00  0.00    +0.000 N 
ATOM     35  N   UNL     1       2.424  14.204  21.900  0.00  0.00    +0.000 NA
ATOM     36  H   UNL     1       4.068  14.972  22.830  0.00  0.00    +0.000 HD
ENDBRANCH  27  31
ENDBRANCH  13  24
TORSDOF 3
ENDMDL
MODEL 9
REMARK VINA RESULT:      -7.6      6.658     11.862
REMARK  Name = 
REMARK  3 active torsions:
REMARK  status: ('A' for Active; 'I' for Inactive)
REMARK    1  A    between atoms: C_5  and  C_6
REMARK    2  A    between atoms: C_21  and  C_22
REMARK    3  A    between atoms: C_25  and  C_26
REMARK                            x       y       z     vdW  Elec       q    Type
REMARK                         _______ _______ _______ _____ _____    ______ ____
ROOT
ATOM      1  O   UNL     1       4.826   2.577  15.589  0.00  0.00    +0.000 OA
ATOM      2  C   UNL     1       5.195   3.737  15.534  0.00  0.00    +0.000 C 
ATOM      3  O   UNL     1       5.822   4.245  14.432  0.00  0.00    +0.000 OA
ATOM      4  C   UNL     1       6.203   5.599  14.692  0.00  0.00    +0.000 C 
ATOM      5  C   UNL     1       5.531   5.978  16.003  0.00  0.00    +0.000 C 
ATOM      6  N   UNL     1       5.045   4.717  16.505  0.00  0.00    +0.000 N 
ATOM      7  C   UNL     1       4.357   4.598  17.699  0.00  0.00    +0.000 A 
ATOM      8  C   UNL     1       4.491   3.272  18.382  0.00  0.00    +0.000 A 
ATOM      9  C   UNL     1       3.937   3.189  19.600  0.00  0.00    +0.000 A 
ATOM     10  N   UNL     1       3.228   4.258  20.124  0.00  0.00    +0.000 N 
ATOM     11  N   UNL     1       2.599   4.309  21.320  0.00  0.00    +0.000 NA
ATOM     12  C   UNL     1       1.970   5.482  21.307  0.00  0.00    +0.000 A 
ATOM     13  C   UNL     1       2.206   6.230  20.132  0.00  0.00    +0.000 A 
ATOM     14  C   UNL     1       3.082   5.444  19.394  0.00  0.00    +0.000 A 
ATOM     15  N   UNL     1       3.721   5.624  18.188  0.00  0.00    +0.000 NA
ENDROOT
BRANCH   5  16
ATOM     16  C   UNL     1       6.511   6.636  16.965  0.00  0.00    +0.000 A 
ATOM     17  C   UNL     1       6.817   8.009  16.869  0.00  0.00    +0.000 A 
ATOM     18  C   UNL     1       7.742   8.598  17.734  0.00  0.00    +0.000 A 
ATOM     19  C   UNL     1       8.366   7.819  18.702  0.00  0.00    +0.000 A 
ATOM     20  F   UNL     1       9.252   8.389  19.531  0.00  0.00    +0.000 F 
ATOM     21  C   UNL     1       8.075   6.465  18.809  0.00  0.00    +0.000 A 
ATOM     22  F   UNL     1       8.679   5.719  19.743  0.00  0.00    +0.000 F 
ATOM     23  C   UNL     1       7.154   5.869  17.949  0.00  0.00    +0.000 A 
ENDBRANCH   5  16
BRANCH  13  24
ATOM     24  C   UNL     1       1.665   7.522  19.737  0.00  0.00    +0.000 A 
ATOM     25  C   UNL     1       1.890   8.021  18.446  0.00  0.00    +0.000 A 
ATOM     26  C   UNL     1       1.402   9.281  18.072  0.00  0.00    +0.000 A 
ATOM     27  C   UNL     1       0.684  10.076  18.979  0.00  0.00    +0.000 A 
ATOM     28  C   UNL     1       0.472   9.570  20.264  0.00  0.00    +0.000 A 
ATOM     29  F   UNL     1      -0.200  10.270  21.191  0.00  0.00    +0.000 F 
ATOM     30  C   UNL     1       0.959   8.317  20.642  0.00  0.00    +0.000 A 
BRANCH  27  31
ATOM     31  C   UNL     1       0.185  11.387  18.585  0.00  0.00    +0.000 A 
ATOM     32  N   UNL     1       0.906  12.549  18.757  0.00  0.00    +0.000 NA
ATOM     33  C   UNL     1       0.125  13.483  18.275  0.00  0.00    +0.000 A 
ATOM     34  N   UNL     1      -1.024  12.918  17.832  0.00  0.00    +0.000 N 
ATOM     35  N   UNL     1      -1.017  11.590  18.014  0.00  0.00    +0.000 NA
ATOM     36  H   UNL     1      -1.831  13.358  17.406  0.00  0.00    +0.000 HD
ENDBRANCH  27  31
ENDBRANCH  13  24
TORSDOF 3
ENDMDL
