MODEL 1
REMARK VINA RESULT:      -8.3      0.000      0.000
REMARK  Name = 
REMARK  6 active torsions:
REMARK  status: ('A' for Active; 'I' for Inactive)
REMARK    1  A    between atoms: O_1  and  C_2
REMARK    2  A    between atoms: C_2  and  C_3
REMARK    3  A    between atoms: C_2  and  C_9
REMARK    4  A    between atoms: C_11  and  C_12
REMARK    5  A    between atoms: C_13  and  C_14
REMARK    6  A    between atoms: C_17  and  C_18
REMARK                            x       y       z     vdW  Elec       q    Type
REMARK                         _______ _______ _______ _____ _____    ______ ____
ROOT
ATOM      1  C   UNL     1       6.338   5.739  17.181  0.00  0.00    +0.000 A 
ATOM      2  N   UNL     1       6.561   7.013  16.907  0.00  0.00    +0.000 NA
ATOM      3  C   UNL     1       7.534   7.508  17.748  0.00  0.00    +0.000 A 
ATOM      4  C   UNL     1       8.013   6.631  18.693  0.00  0.00    +0.000 A 
ATOM      5  S   UNL     1       7.250   5.110  18.507  0.00  0.00    +0.000 S 
ENDROOT
BRANCH   3   6
ATOM      6  C   UNL     1       8.004   8.848  17.585  0.00  0.00    +0.000 C 
ATOM      7  C   UNL     1       8.772   9.504  18.471  0.00  0.00    +0.000 C 
BRANCH   7   8
ATOM      8  C   UNL     1       9.216  10.898  18.326  0.00  0.00    +0.000 A 
ATOM      9  C   UNL     1      10.490  11.249  18.792  0.00  0.00    +0.000 A 
ATOM     10  C   UNL     1      10.968  12.556  18.653  0.00  0.00    +0.000 A 
ATOM     11  C   UNL     1      10.184  13.539  18.032  0.00  0.00    +0.000 A 
ATOM     12  C   UNL     1       8.911  13.187  17.561  0.00  0.00    +0.000 A 
ATOM     13  C   UNL     1       8.436  11.879  17.699  0.00  0.00    +0.000 A 
BRANCH  11  14
ATOM     14  C   UNL     1      10.691  14.948  17.849  0.00  0.00    +0.000 C 
ATOM     15  F   UNL     1      11.487  15.105  16.755  0.00  0.00    +0.000 F 
ATOM     16  F   UNL     1       9.678  15.848  17.705  0.00  0.00    +0.000 F 
ATOM     17  F   UNL     1      11.426  15.380  18.911  0.00  0.00    +0.000 F 
ENDBRANCH  11  14
ENDBRANCH   7   8
ENDBRANCH   3   6
BRANCH   1  18
ATOM     18  C   UNL     1       5.404   4.866  16.382  0.00  0.00    +0.000 C 
BRANCH  18  19
ATOM     19  C   UNL     1       4.096   4.536  17.059  0.00  0.00    +0.000 A 
ATOM     20  C   UNL     1       3.300   5.505  17.683  0.00  0.00    +0.000 A 
ATOM     21  C   UNL     1       2.126   5.131  18.329  0.00  0.00    +0.000 A 
ATOM     22  C   UNL     1       1.775   3.792  18.324  0.00  0.00    +0.000 A 
ATOM     23  N   UNL     1       2.498   2.831  17.713  0.00  0.00    +0.000 NA
ATOM     24  C   UNL     1       3.633   3.224  17.087  0.00  0.00    +0.000 A 
ENDBRANCH  18  19
BRANCH  18  25
ATOM     25  O   UNL     1       6.112   3.674  16.020  0.00  0.00    +0.000 OA
ATOM     26  H   UNL     1       6.846   3.594  16.651  0.00  0.00    +0.000 HD
ENDBRANCH  18  25
ENDBRANCH   1  18
TORSDOF 6
ENDMDL
MODEL 2
REMARK VINA RESULT:      -8.3      0.305      1.255
REMARK  Name = 
REMARK  6 active torsions:
REMARK  status: ('A' for Active; 'I' for Inactive)
REMARK    1  A    between atoms: O_1  and  C_2
REMARK    2  A    between atoms: C_2  and  C_3
REMARK    3  A    between atoms: C_2  and  C_9
REMARK    4  A    between atoms: C_11  and  C_12
REMARK    5  A    between atoms: C_13  and  C_14
REMARK    6  A    between atoms: C_17  and  C_18
REMARK                            x       y       z     vdW  Elec       q    Type
REMARK                         _______ _______ _______ _____ _____    ______ ____
ROOT
ATOM      1  C   UNL     1       6.149   5.841  17.137  0.00  0.00    +0.000 A 
ATOM      2  N   UNL     1       6.460   7.106  16.913  0.00  0.00    +0.000 NA
ATOM      3  C   UNL     1       7.493   7.488  17.741  0.00  0.00    +0.000 A 
ATOM      4  C   UNL     1       7.933   6.534  18.629  0.00  0.00    +0.000 A 
ATOM      5  S   UNL     1       7.050   5.085  18.402  0.00  0.00    +0.000 S 
ENDROOT
BRANCH   3   6
ATOM      6  C   UNL     1       8.059   8.795  17.622  0.00  0.00    +0.000 C 
ATOM      7  C   UNL     1       8.738   9.427  18.593  0.00  0.00    +0.000 C 
BRANCH   7   8
ATOM      8  C   UNL     1       9.279  10.790  18.488  0.00  0.00    +0.000 A 
ATOM      9  C   UNL     1       8.550  11.749  17.773  0.00  0.00    +0.000 A 
ATOM     10  C   UNL     1       9.010  13.066  17.667  0.00  0.00    +0.000 A 
ATOM     11  C   UNL     1      10.207  13.454  18.284  0.00  0.00    +0.000 A 
ATOM     12  C   UNL     1      10.936  12.495  19.002  0.00  0.00    +0.000 A 
ATOM     13  C   UNL     1      10.473  11.180  19.109  0.00  0.00    +0.000 A 
BRANCH  11  14
ATOM     14  C   UNL     1      10.708  14.875  18.202  0.00  0.00    +0.000 C 
ATOM     15  F   UNL     1       9.715  15.796  18.058  0.00  0.00    +0.000 F 
ATOM     16  F   UNL     1      11.400  15.244  19.316  0.00  0.00    +0.000 F 
ATOM     17  F   UNL     1      11.555  15.070  17.154  0.00  0.00    +0.000 F 
ENDBRANCH  11  14
ENDBRANCH   7   8
ENDBRANCH   3   6
BRANCH   1  18
ATOM     18  C   UNL     1       5.127   5.079  16.332  0.00  0.00    +0.000 C 
BRANCH  18  19
ATOM     19  C   UNL     1       3.858   4.728  17.072  0.00  0.00    +0.000 A 
ATOM     20  C   UNL     1       3.227   5.614  17.954  0.00  0.00    +0.000 A 
ATOM     21  C   UNL     1       2.083   5.216  18.640  0.00  0.00    +0.000 A 
ATOM     22  C   UNL     1       1.596   3.940  18.414  0.00  0.00    +0.000 A 
ATOM     23  N   UNL     1       2.158   3.066  17.553  0.00  0.00    +0.000 NA
ATOM     24  C   UNL     1       3.266   3.482  16.895  0.00  0.00    +0.000 A 
ENDBRANCH  18  19
BRANCH  18  25
ATOM     25  O   UNL     1       5.760   3.905  15.810  0.00  0.00    +0.000 OA
ATOM     26  H   UNL     1       5.182   3.160  16.043  0.00  0.00    +0.000 HD
ENDBRANCH  18  25
ENDBRANCH   1  18
TORSDOF 6
ENDMDL
MODEL 3
REMARK VINA RESULT:      -8.2      0.746      1.638
REMARK  Name = 
REMARK  6 active torsions:
REMARK  status: ('A' for Active; 'I' for Inactive)
REMARK    1  A    between atoms: O_1  and  C_2
REMARK    2  A    between atoms: C_2  and  C_3
REMARK    3  A    between atoms: C_2  and  C_9
REMARK    4  A    between atoms: C_11  and  C_12
REMARK    5  A    between atoms: C_13  and  C_14
REMARK    6  A    between atoms: C_17  and  C_18
REMARK                            x       y       z     vdW  Elec       q    Type
REMARK                         _______ _______ _______ _____ _____    ______ ____
ROOT
ATOM      1  C   UNL     1       6.043   6.059  17.150  0.00  0.00    +0.000 A 
ATOM      2  N   UNL     1       6.473   7.292  16.944  0.00  0.00    +0.000 NA
ATOM      3  C   UNL     1       7.550   7.554  17.763  0.00  0.00    +0.000 A 
ATOM      4  C   UNL     1       7.907   6.544  18.626  0.00  0.00    +0.000 A 
ATOM      5  S   UNL     1       6.884   5.193  18.386  0.00  0.00    +0.000 S 
ENDROOT
BRANCH   3   6
ATOM      6  C   UNL     1       8.239   8.802  17.660  0.00  0.00    +0.000 C 
ATOM      7  C   UNL     1       8.723   9.499  18.701  0.00  0.00    +0.000 C 
BRANCH   7   8
ATOM      8  C   UNL     1       9.390  10.805  18.598  0.00  0.00    +0.000 A 
ATOM      9  C   UNL     1       8.787  11.809  17.830  0.00  0.00    +0.000 A 
ATOM     10  C   UNL     1       9.369  13.077  17.724  0.00  0.00    +0.000 A 
ATOM     11  C   UNL     1      10.564  13.370  18.395  0.00  0.00    +0.000 A 
ATOM     12  C   UNL     1      11.167  12.366  19.167  0.00  0.00    +0.000 A 
ATOM     13  C   UNL     1      10.581  11.101  19.274  0.00  0.00    +0.000 A 
BRANCH  11  14
ATOM     14  C   UNL     1      11.195  14.738  18.313  0.00  0.00    +0.000 C 
ATOM     15  F   UNL     1      10.290  15.755  18.264  0.00  0.00    +0.000 F 
ATOM     16  F   UNL     1      11.996  15.003  19.383  0.00  0.00    +0.000 F 
ATOM     17  F   UNL     1      11.982  14.885  17.212  0.00  0.00    +0.000 F 
ENDBRANCH  11  14
ENDBRANCH   7   8
ENDBRANCH   3   6
BRANCH   1  18
ATOM     18  C   UNL     1       4.940   5.416  16.348  0.00  0.00    +0.000 C 
BRANCH  18  19
ATOM     19  C   UNL     1       3.886   4.704  17.161  0.00  0.00    +0.000 A 
ATOM     20  C   UNL     1       3.726   3.313  17.140  0.00  0.00    +0.000 A 
ATOM     21  C   UNL     1       2.706   2.719  17.878  0.00  0.00    +0.000 A 
ATOM     22  C   UNL     1       1.879   3.537  18.627  0.00  0.00    +0.000 A 
ATOM     23  N   UNL     1       2.015   4.878  18.696  0.00  0.00    +0.000 NA
ATOM     24  C   UNL     1       3.019   5.428  17.973  0.00  0.00    +0.000 A 
ENDBRANCH  18  19
BRANCH  18  25
ATOM     25  O   UNL     1       5.542   4.531  15.396  0.00  0.00    +0.000 OA
ATOM     26  H   UNL     1       5.008   3.720  15.406  0.00  0.00    +0.000 HD
ENDBRANCH  18  25
ENDBRANCH   1  18
TORSDOF 6
ENDMDL
MODEL 4
REMARK VINA RESULT:      -8.1      6.710      8.514
REMARK  Name = 
REMARK  6 active torsions:
REMARK  status: ('A' for Active; 'I' for Inactive)
REMARK    1  A    between atoms: O_1  and  C_2
REMARK    2  A    between atoms: C_2  and  C_3
REMARK    3  A    between atoms: C_2  and  C_9
REMARK    4  A    between atoms: C_11  and  C_12
REMARK    5  A    between atoms: C_13  and  C_14
REMARK    6  A    between atoms: C_17  and  C_18
REMARK                            x       y       z     vdW  Elec       q    Type
REMARK                         _______ _______ _______ _____ _____    ______ ____
ROOT
ATOM      1  C   UNL     1       3.878   4.629  19.361  0.00  0.00    +0.000 A 
ATOM      2  N   UNL     1       3.633   5.911  19.570  0.00  0.00    +0.000 NA
ATOM      3  C   UNL     1       2.320   6.080  19.953  0.00  0.00    +0.000 A 
ATOM      4  C   UNL     1       1.553   4.938  19.985  0.00  0.00    +0.000 A 
ATOM      5  S   UNL     1       2.514   3.587  19.556  0.00  0.00    +0.000 S 
ENDROOT
BRANCH   3   6
ATOM      6  C   UNL     1       1.842   7.377  20.316  0.00  0.00    +0.000 C 
ATOM      7  C   UNL     1       0.854   7.611  21.195  0.00  0.00    +0.000 C 
BRANCH   7   8
ATOM      8  C   UNL     1       0.330   8.943  21.533  0.00  0.00    +0.000 A 
ATOM      9  C   UNL     1       0.343   9.940  20.548  0.00  0.00    +0.000 A 
ATOM     10  C   UNL     1      -0.168  11.215  20.813  0.00  0.00    +0.000 A 
ATOM     11  C   UNL     1      -0.714  11.516  22.068  0.00  0.00    +0.000 A 
ATOM     12  C   UNL     1      -0.730  10.518  23.053  0.00  0.00    +0.000 A 
ATOM     13  C   UNL     1      -0.221   9.244  22.785  0.00  0.00    +0.000 A 
BRANCH  11  14
ATOM     14  C   UNL     1      -1.293  12.877  22.366  0.00  0.00    +0.000 C 
ATOM     15  F   UNL     1      -2.639  12.953  22.170  0.00  0.00    +0.000 F 
ATOM     16  F   UNL     1      -1.082  13.258  23.657  0.00  0.00    +0.000 F 
ATOM     17  F   UNL     1      -0.747  13.857  21.594  0.00  0.00    +0.000 F 
ENDBRANCH  11  14
ENDBRANCH   7   8
ENDBRANCH   3   6
BRANCH   1  18
ATOM     18  C   UNL     1       5.243   4.086  19.026  0.00  0.00    +0.000 C 
BRANCH  18  19
ATOM     19  C   UNL     1       5.707   4.340  17.612  0.00  0.00    +0.000 A 
ATOM     20  C   UNL     1       4.838   4.316  16.514  0.00  0.00    +0.000 A 
ATOM     21  C   UNL     1       5.334   4.515  15.229  0.00  0.00    +0.000 A 
ATOM     22  C   UNL     1       6.691   4.743  15.080  0.00  0.00    +0.000 A 
ATOM     23  N   UNL     1       7.558   4.800  16.112  0.00  0.00    +0.000 NA
ATOM     24  C   UNL     1       7.047   4.609  17.352  0.00  0.00    +0.000 A 
ENDBRANCH  18  19
BRANCH  18  25
ATOM     25  O   UNL     1       5.249   2.685  19.326  0.00  0.00    +0.000 OA
ATOM     26  H   UNL     1       4.326   2.445  19.511  0.00  0.00    +0.000 HD
ENDBRANCH  18  25
ENDBRANCH   1  18
TORSDOF 6
ENDMDL
MODEL 5
REMARK VINA RESULT:      -8.0      6.662      8.705
REMARK  Name = 
REMARK  6 active torsions:
REMARK  status: ('A' for Active; 'I' for Inactive)
REMARK    1  A    between atoms: O_1  and  C_2
REMARK    2  A    between atoms: C_2  and  C_3
REMARK    3  A    between atoms: C_2  and  C_9
REMARK    4  A    between atoms: C_11  and  C_12
REMARK    5  A    between atoms: C_13  and  C_14
REMARK    6  A    between atoms: C_17  and  C_18
REMARK                            x       y       z     vdW  Elec       q    Type
REMARK                         _______ _______ _______ _____ _____    ______ ____
ROOT
ATOM      1  C   UNL     1       3.651   4.632  19.673  0.00  0.00    +0.000 A 
ATOM      2  N   UNL     1       3.044   5.790  19.869  0.00  0.00    +0.000 NA
ATOM      3  C   UNL     1       1.823   5.581  20.472  0.00  0.00    +0.000 A 
ATOM      4  C   UNL     1       1.477   4.266  20.687  0.00  0.00    +0.000 A 
ATOM      5  S   UNL     1       2.741   3.244  20.152  0.00  0.00    +0.000 S 
ENDROOT
BRANCH   3   6
ATOM      6  C   UNL     1       1.017   6.695  20.859  0.00  0.00    +0.000 C 
ATOM      7  C   UNL     1       1.455   7.961  20.955  0.00  0.00    +0.000 C 
BRANCH   7   8
ATOM      8  C   UNL     1       0.638   9.100  21.399  0.00  0.00    +0.000 A 
ATOM      9  C   UNL     1       0.019   9.035  22.654  0.00  0.00    +0.000 A 
ATOM     10  C   UNL     1      -0.747  10.104  23.132  0.00  0.00    +0.000 A 
ATOM     11  C   UNL     1      -0.900  11.268  22.366  0.00  0.00    +0.000 A 
ATOM     12  C   UNL     1      -0.278  11.336  21.111  0.00  0.00    +0.000 A 
ATOM     13  C   UNL     1       0.489  10.267  20.637  0.00  0.00    +0.000 A 
BRANCH  11  14
ATOM     14  C   UNL     1      -1.701  12.441  22.874  0.00  0.00    +0.000 C 
ATOM     15  F   UNL     1      -0.973  13.316  23.624  0.00  0.00    +0.000 F 
ATOM     16  F   UNL     1      -2.239  13.177  21.861  0.00  0.00    +0.000 F 
ATOM     17  F   UNL     1      -2.748  12.060  23.655  0.00  0.00    +0.000 F 
ENDBRANCH  11  14
ENDBRANCH   7   8
ENDBRANCH   3   6
BRANCH   1  18
ATOM     18  C   UNL     1       5.050   4.507  19.124  0.00  0.00    +0.000 C 
BRANCH  18  19
ATOM     19  C   UNL     1       5.205   4.879  17.669  0.00  0.00    +0.000 A 
ATOM     20  C   UNL     1       5.061   3.951  16.631  0.00  0.00    +0.000 A 
ATOM     21  C   UNL     1       5.258   4.346  15.311  0.00  0.00    +0.000 A 
ATOM     22  C   UNL     1       5.587   5.668  15.067  0.00  0.00    +0.000 A 
ATOM     23  N   UNL     1       5.709   6.601  16.035  0.00  0.00    +0.000 NA
ATOM     24  C   UNL     1       5.505   6.190  17.309  0.00  0.00    +0.000 A 
ENDBRANCH  18  19
BRANCH  18  25
ATOM     25  O   UNL     1       5.503   3.169  19.364  0.00  0.00    +0.000 OA
ATOM     26  H   UNL     1       5.194   2.936  20.255  0.00  0.00    +0.000 HD
ENDBRANCH  18  25
ENDBRANCH   1  18
TORSDOF 6
ENDMDL
MODEL 6
REMARK VINA RESULT:      -8.0      0.806      1.191
REMARK  Name = 
REMARK  6 active torsions:
REMARK  status: ('A' for Active; 'I' for Inactive)
REMARK    1  A    between atoms: O_1  and  C_2
REMARK    2  A    between atoms: C_2  and  C_3
REMARK    3  A    between atoms: C_2  and  C_9
REMARK    4  A    between atoms: C_11  and  C_12
REMARK    5  A    between atoms: C_13  and  C_14
REMARK    6  A    between atoms: C_17  and  C_18
REMARK                            x       y       z     vdW  Elec       q    Type
REMARK                         _______ _______ _______ _____ _____    ______ ____
ROOT
ATOM      1  C   UNL     1       6.501   5.872  17.236  0.00  0.00    +0.000 A 
ATOM      2  N   UNL     1       6.763   7.153  17.041  0.00  0.00    +0.000 NA
ATOM      3  C   UNL     1       7.713   7.578  17.944  0.00  0.00    +0.000 A 
ATOM      4  C   UNL     1       8.134   6.640  18.858  0.00  0.00    +0.000 A 
ATOM      5  S   UNL     1       7.344   5.151  18.560  0.00  0.00    +0.000 S 
ENDROOT
BRANCH   3   6
ATOM      6  C   UNL     1       8.219   8.913  17.873  0.00  0.00    +0.000 C 
ATOM      7  C   UNL     1       9.004   9.485  18.801  0.00  0.00    +0.000 C 
BRANCH   7   8
ATOM      8  C   UNL     1       9.487  10.873  18.751  0.00  0.00    +0.000 A 
ATOM      9  C   UNL     1       9.167  11.734  19.809  0.00  0.00    +0.000 A 
ATOM     10  C   UNL     1       9.625  13.056  19.820  0.00  0.00    +0.000 A 
ATOM     11  C   UNL     1      10.424  13.541  18.775  0.00  0.00    +0.000 A 
ATOM     12  C   UNL     1      10.747  12.679  17.717  0.00  0.00    +0.000 A 
ATOM     13  C   UNL     1      10.290  11.357  17.710  0.00  0.00    +0.000 A 
BRANCH  11  14
ATOM     14  C   UNL     1      10.948  14.956  18.781  0.00  0.00    +0.000 C 
ATOM     15  F   UNL     1      11.618  15.286  19.920  0.00  0.00    +0.000 F 
ATOM     16  F   UNL     1      11.817  15.190  17.757  0.00  0.00    +0.000 F 
ATOM     17  F   UNL     1       9.958  15.880  18.648  0.00  0.00    +0.000 F 
ENDBRANCH  11  14
ENDBRANCH   7   8
ENDBRANCH   3   6
BRANCH   1  18
ATOM     18  C   UNL     1       5.580   5.067  16.355  0.00  0.00    +0.000 C 
BRANCH  18  19
ATOM     19  C   UNL     1       4.195   4.838  16.912  0.00  0.00    +0.000 A 
ATOM     20  C   UNL     1       3.507   5.807  17.652  0.00  0.00    +0.000 A 
ATOM     21  C   UNL     1       2.250   5.520  18.176  0.00  0.00    +0.000 A 
ATOM     22  C   UNL     1       1.712   4.268  17.936  0.00  0.00    +0.000 A 
ATOM     23  N   UNL     1       2.329   3.315  17.207  0.00  0.00    +0.000 NA
ATOM     24  C   UNL     1       3.548   3.624  16.703  0.00  0.00    +0.000 A 
ENDBRANCH  18  19
BRANCH  18  25
ATOM     25  O   UNL     1       6.227   3.823  16.057  0.00  0.00    +0.000 OA
ATOM     26  H   UNL     1       6.533   3.892  15.138  0.00  0.00    +0.000 HD
ENDBRANCH  18  25
ENDBRANCH   1  18
TORSDOF 6
ENDMDL
MODEL 7
REMARK VINA RESULT:      -7.9      6.796      8.508
REMARK  Name = 
REMARK  6 active torsions:
REMARK  status: ('A' for Active; 'I' for Inactive)
REMARK    1  A    between atoms: O_1  and  C_2
REMARK    2  A    between atoms: C_2  and  C_3
REMARK    3  A    between atoms: C_2  and  C_9
REMARK    4  A    between atoms: C_11  and  C_12
REMARK    5  A    between atoms: C_13  and  C_14
REMARK    6  A    between atoms: C_17  and  C_18
REMARK                            x       y       z     vdW  Elec       q    Type
REMARK                         _______ _______ _______ _____ _____    ______ ____
ROOT
ATOM      1  C   UNL     1       4.050   4.974  19.346  0.00  0.00    +0.000 A 
ATOM      2  N   UNL     1       3.685   6.237  19.485  0.00  0.00    +0.000 NA
ATOM      3  C   UNL     1       2.359   6.302  19.856  0.00  0.00    +0.000 A 
ATOM      4  C   UNL     1       1.702   5.096  19.948  0.00  0.00    +0.000 A 
ATOM      5  S   UNL     1       2.788   3.821  19.595  0.00  0.00    +0.000 S 
ENDROOT
BRANCH   3   6
ATOM      6  C   UNL     1       1.759   7.566  20.147  0.00  0.00    +0.000 C 
ATOM      7  C   UNL     1       1.188   7.892  21.318  0.00  0.00    +0.000 C 
BRANCH   7   8
ATOM      8  C   UNL     1       0.529   9.175  21.601  0.00  0.00    +0.000 A 
ATOM      9  C   UNL     1      -0.276   9.280  22.743  0.00  0.00    +0.000 A 
ATOM     10  C   UNL     1      -0.902  10.488  23.069  0.00  0.00    +0.000 A 
ATOM     11  C   UNL     1      -0.726  11.621  22.264  0.00  0.00    +0.000 A 
ATOM     12  C   UNL     1       0.083  11.519  21.123  0.00  0.00    +0.000 A 
ATOM     13  C   UNL     1       0.710  10.311  20.800  0.00  0.00    +0.000 A 
BRANCH  11  14
ATOM     14  C   UNL     1      -1.372  12.940  22.613  0.00  0.00    +0.000 C 
ATOM     15  F   UNL     1      -2.499  12.813  23.368  0.00  0.00    +0.000 F 
ATOM     16  F   UNL     1      -0.539  13.754  23.320  0.00  0.00    +0.000 F 
ATOM     17  F   UNL     1      -1.739  13.649  21.510  0.00  0.00    +0.000 F 
ENDBRANCH  11  14
ENDBRANCH   7   8
ENDBRANCH   3   6
BRANCH   1  18
ATOM     18  C   UNL     1       5.463   4.544  19.044  0.00  0.00    +0.000 C 
BRANCH  18  19
ATOM     19  C   UNL     1       5.889   4.703  17.604  0.00  0.00    +0.000 A 
ATOM     20  C   UNL     1       4.979   4.945  16.568  0.00  0.00    +0.000 A 
ATOM     21  C   UNL     1       5.429   5.039  15.254  0.00  0.00    +0.000 A 
ATOM     22  C   UNL     1       6.785   4.897  15.016  0.00  0.00    +0.000 A 
ATOM     23  N   UNL     1       7.698   4.689  15.988  0.00  0.00    +0.000 NA
ATOM     24  C   UNL     1       7.233   4.609  17.257  0.00  0.00    +0.000 A 
ENDBRANCH  18  19
BRANCH  18  25
ATOM     25  O   UNL     1       5.616   3.188  19.479  0.00  0.00    +0.000 OA
ATOM     26  H   UNL     1       4.905   3.028  20.121  0.00  0.00    +0.000 HD
ENDBRANCH  18  25
ENDBRANCH   1  18
TORSDOF 6
ENDMDL
MODEL 8
REMARK VINA RESULT:      -7.8      5.895      8.578
REMARK  Name = 
REMARK  6 active torsions:
REMARK  status: ('A' for Active; 'I' for Inactive)
REMARK    1  A    between atoms: O_1  and  C_2
REMARK    2  A    between atoms: C_2  and  C_3
REMARK    3  A    between atoms: C_2  and  C_9
REMARK    4  A    between atoms: C_11  and  C_12
REMARK    5  A    between atoms: C_13  and  C_14
REMARK    6  A    between atoms: C_17  and  C_18
REMARK                            x       y       z     vdW  Elec       q    Type
REMARK                         _______ _______ _______ _____ _____    ______ ____
ROOT
ATOM      1  C   UNL     1       3.883   4.236  18.862  0.00  0.00    +0.000 A 
ATOM      2  N   UNL     1       3.189   5.332  19.116  0.00  0.00    +0.000 NA
ATOM      3  C   UNL     1       2.378   5.127  20.211  0.00  0.00    +0.000 A 
ATOM      4  C   UNL     1       2.415   3.865  20.758  0.00  0.00    +0.000 A 
ATOM      5  S   UNL     1       3.535   2.898  19.897  0.00  0.00    +0.000 S 
ENDROOT
BRANCH   3   6
ATOM      6  C   UNL     1       1.590   6.202  20.728  0.00  0.00    +0.000 C 
ATOM      7  C   UNL     1       1.743   7.494  20.394  0.00  0.00    +0.000 C 
BRANCH   7   8
ATOM      8  C   UNL     1       0.964   8.604  20.960  0.00  0.00    +0.000 A 
ATOM      9  C   UNL     1       0.655   9.696  20.139  0.00  0.00    +0.000 A 
ATOM     10  C   UNL     1      -0.106  10.765  20.624  0.00  0.00    +0.000 A 
ATOM     11  C   UNL     1      -0.585  10.758  21.941  0.00  0.00    +0.000 A 
ATOM     12  C   UNL     1      -0.278   9.664  22.764  0.00  0.00    +0.000 A 
ATOM     13  C   UNL     1       0.480   8.595  22.275  0.00  0.00    +0.000 A 
BRANCH  11  14
ATOM     14  C   UNL     1      -1.428  11.889  22.476  0.00  0.00    +0.000 C 
ATOM     15  F   UNL     1      -0.699  12.941  22.941  0.00  0.00    +0.000 F 
ATOM     16  F   UNL     1      -2.264  12.403  21.531  0.00  0.00    +0.000 F 
ATOM     17  F   UNL     1      -2.226  11.502  23.509  0.00  0.00    +0.000 F 
ENDBRANCH  11  14
ENDBRANCH   7   8
ENDBRANCH   3   6
BRANCH   1  18
ATOM     18  C   UNL     1       4.940   4.150  17.790  0.00  0.00    +0.000 C 
BRANCH  18  19
ATOM     19  C   UNL     1       5.957   5.265  17.798  0.00  0.00    +0.000 A 
ATOM     20  C   UNL     1       6.986   5.345  18.746  0.00  0.00    +0.000 A 
ATOM     21  C   UNL     1       7.867   6.422  18.728  0.00  0.00    +0.000 A 
ATOM     22  C   UNL     1       7.698   7.388  17.751  0.00  0.00    +0.000 A 
ATOM     23  N   UNL     1       6.738   7.337  16.805  0.00  0.00    +0.000 NA
ATOM     24  C   UNL     1       5.899   6.274  16.842  0.00  0.00    +0.000 A 
ENDBRANCH  18  19
BRANCH  18  25
ATOM     25  O   UNL     1       4.280   4.065  16.521  0.00  0.00    +0.000 OA
ATOM     26  H   UNL     1       4.694   4.737  15.956  0.00  0.00    +0.000 HD
ENDBRANCH  18  25
ENDBRANCH   1  18
TORSDOF 6
ENDMDL
MODEL 9
REMARK VINA RESULT:      -7.7      7.698      9.812
REMARK  Name = 
REMARK  6 active torsions:
REMARK  status: ('A' for Active; 'I' for Inactive)
REMARK    1  A    between atoms: O_1  and  C_2
REMARK    2  A    between atoms: C_2  and  C_3
REMARK    3  A    between atoms: C_2  and  C_9
REMARK    4  A    between atoms: C_11  and  C_12
REMARK    5  A    between atoms: C_13  and  C_14
REMARK    6  A    between atoms: C_17  and  C_18
REMARK                            x       y       z     vdW  Elec       q    Type
REMARK                         _______ _______ _______ _____ _____    ______ ____
ROOT
ATOM      1  C   UNL     1      -0.421  11.234  19.142  0.00  0.00    +0.000 A 
ATOM      2  N   UNL     1       0.395  10.655  18.279  0.00  0.00    +0.000 NA
ATOM      3  C   UNL     1       1.076   9.628  18.896  0.00  0.00    +0.000 A 
ATOM      4  C   UNL     1       0.819   9.458  20.237  0.00  0.00    +0.000 A 
ATOM      5  S   UNL     1      -0.350  10.601  20.748  0.00  0.00    +0.000 S 
ENDROOT
BRANCH   3   6
ATOM      6  C   UNL     1       1.960   8.800  18.138  0.00  0.00    +0.000 C 
ATOM      7  C   UNL     1       2.422   7.604  18.538  0.00  0.00    +0.000 C 
BRANCH   7   8
ATOM      8  C   UNL     1       3.368   6.773  17.779  0.00  0.00    +0.000 A 
ATOM      9  C   UNL     1       3.248   5.379  17.853  0.00  0.00    +0.000 A 
ATOM     10  C   UNL     1       4.107   4.547  17.128  0.00  0.00    +0.000 A 
ATOM     11  C   UNL     1       5.099   5.094  16.304  0.00  0.00    +0.000 A 
ATOM     12  C   UNL     1       5.219   6.489  16.226  0.00  0.00    +0.000 A 
ATOM     13  C   UNL     1       4.356   7.319  16.950  0.00  0.00    +0.000 A 
BRANCH  11  14
ATOM     14  C   UNL     1       6.020   4.214  15.495  0.00  0.00    +0.000 C 
ATOM     15  F   UNL     1       7.342   4.432  15.742  0.00  0.00    +0.000 F 
ATOM     16  F   UNL     1       5.811   2.888  15.733  0.00  0.00    +0.000 F 
ATOM     17  F   UNL     1       5.858   4.382  14.153  0.00  0.00    +0.000 F 
ENDBRANCH  11  14
ENDBRANCH   7   8
ENDBRANCH   3   6
BRANCH   1  18
ATOM     18  C   UNL     1      -1.388  12.330  18.770  0.00  0.00    +0.000 C 
BRANCH  18  19
ATOM     19  C   UNL     1      -2.835  11.910  18.687  0.00  0.00    +0.000 A 
ATOM     20  C   UNL     1      -3.319  11.055  17.688  0.00  0.00    +0.000 A 
ATOM     21  C   UNL     1      -4.674  10.739  17.639  0.00  0.00    +0.000 A 
ATOM     22  C   UNL     1      -5.507  11.282  18.601  0.00  0.00    +0.000 A 
ATOM     23  N   UNL     1      -5.078  12.087  19.596  0.00  0.00    +0.000 NA
ATOM     24  C   UNL     1      -3.754  12.373  19.623  0.00  0.00    +0.000 A 
ENDBRANCH  18  19
BRANCH  18  25
ATOM     25  O   UNL     1      -0.948  12.908  17.534  0.00  0.00    +0.000 OA
ATOM     26  H   UNL     1      -1.747  13.231  17.088  0.00  0.00    +0.000 HD
ENDBRANCH  18  25
ENDBRANCH   1  18
TORSDOF 6
ENDMDL
