MODEL 1
REMARK VINA RESULT:      -6.8      0.000      0.000
REMARK  Name = 
REMARK  4 active torsions:
REMARK  status: ('A' for Active; 'I' for Inactive)
REMARK    1  A    between atoms: C_1  and  C_2
REMARK    2  A    between atoms: C_2  and  N_3
REMARK    3  A    between atoms: C_7  and  C_8
REMARK    4  A    between atoms: N_13  and  C_14
REMARK                            x       y       z     vdW  Elec       q    Type
REMARK                         _______ _______ _______ _____ _____    ______ ____
ROOT
ATOM      1  N   UNL     1      -5.338  12.283  18.140  0.00  0.00    +0.000 N 
ATOM      2  C   UNL     1      -5.907  12.217  19.420  0.00  0.00    +0.000 A 
ATOM      3  C   UNL     1      -7.195  11.713  19.648  0.00  0.00    +0.000 A 
ATOM      4  C   UNL     1      -7.732  11.670  20.940  0.00  0.00    +0.000 A 
ATOM      5  C   UNL     1      -6.991  12.142  22.027  0.00  0.00    +0.000 A 
ATOM      6  C   UNL     1      -5.726  12.692  21.808  0.00  0.00    +0.000 A 
ATOM      7  C   UNL     1      -5.177  12.695  20.520  0.00  0.00    +0.000 A 
ATOM      8  N   UNL     1      -3.885  13.229  20.315  0.00  0.00    +0.000 N 
ATOM      9  C   UNL     1      -3.588  14.564  20.799  0.00  0.00    +0.000 C 
ATOM     10  C   UNL     1      -2.840  12.494  19.762  0.00  0.00    +0.000 C 
ATOM     11  O   UNL     1      -1.675  12.700  20.119  0.00  0.00    +0.000 OA
ATOM     12  C   UNL     1      -3.069  11.513  18.665  0.00  0.00    +0.000 A 
ATOM     13  C   UNL     1      -1.982  10.688  18.322  0.00  0.00    +0.000 A 
ATOM     14  C   UNL     1      -2.000   9.968  17.135  0.00  0.00    +0.000 A 
ATOM     15  C   UNL     1      -3.107  10.106  16.324  0.00  0.00    +0.000 A 
ATOM     16  N   UNL     1      -4.184  10.863  16.637  0.00  0.00    +0.000 NA
ATOM     17  C   UNL     1      -4.182  11.553  17.813  0.00  0.00    +0.000 A 
ENDROOT
BRANCH   5  18
ATOM     18  C   UNL     1      -7.582  12.038  23.388  0.00  0.00    +0.000 C 
ATOM     19  N   UNL     1      -7.693  13.189  24.118  0.00  0.00    +0.000 N 
ATOM     20  O   UNL     1      -7.916  10.959  23.861  0.00  0.00    +0.000 OA
ATOM     21  H   UNL     1      -7.206  14.040  23.874  0.00  0.00    +0.000 HD
ATOM     22  H   UNL     1      -7.983  13.079  25.082  0.00  0.00    +0.000 HD
ENDBRANCH   5  18
BRANCH   1  24
ATOM     23  C   UNL     1      -6.666  14.182  17.356  0.00  0.00    +0.000 C 
ATOM     24  C   UNL     1      -6.136  12.789  17.022  0.00  0.00    +0.000 C 
ENDBRANCH   1  24
TORSDOF 2
ENDMDL
MODEL 2
REMARK VINA RESULT:      -6.5      5.083      8.066
REMARK  Name = 
REMARK  4 active torsions:
REMARK  status: ('A' for Active; 'I' for Inactive)
REMARK    1  A    between atoms: C_1  and  C_2
REMARK    2  A    between atoms: C_2  and  N_3
REMARK    3  A    between atoms: C_7  and  C_8
REMARK    4  A    between atoms: N_13  and  C_14
REMARK                            x       y       z     vdW  Elec       q    Type
REMARK                         _______ _______ _______ _____ _____    ______ ____
ROOT
ATOM      1  N   UNL     1      -0.220  10.707  18.659  0.00  0.00    +0.000 N 
ATOM      2  C   UNL     1       0.671   9.630  18.770  0.00  0.00    +0.000 A 
ATOM      3  C   UNL     1       1.366   9.110  17.671  0.00  0.00    +0.000 A 
ATOM      4  C   UNL     1       2.242   8.027  17.819  0.00  0.00    +0.000 A 
ATOM      5  C   UNL     1       2.428   7.439  19.073  0.00  0.00    +0.000 A 
ATOM      6  C   UNL     1       1.705   7.916  20.169  0.00  0.00    +0.000 A 
ATOM      7  C   UNL     1       0.861   9.024  20.023  0.00  0.00    +0.000 A 
ATOM      8  N   UNL     1       0.155   9.514  21.144  0.00  0.00    +0.000 N 
ATOM      9  C   UNL     1      -0.648   8.596  21.930  0.00  0.00    +0.000 C 
ATOM     10  C   UNL     1       0.275  10.824  21.602  0.00  0.00    +0.000 C 
ATOM     11  O   UNL     1       0.180  11.074  22.809  0.00  0.00    +0.000 OA
ATOM     12  C   UNL     1       0.421  11.970  20.662  0.00  0.00    +0.000 A 
ATOM     13  C   UNL     1       0.731  13.218  21.235  0.00  0.00    +0.000 A 
ATOM     14  C   UNL     1       0.592  14.381  20.491  0.00  0.00    +0.000 A 
ATOM     15  C   UNL     1       0.134  14.257  19.196  0.00  0.00    +0.000 A 
ATOM     16  N   UNL     1      -0.142  13.073  18.601  0.00  0.00    +0.000 NA
ATOM     17  C   UNL     1       0.017  11.926  19.320  0.00  0.00    +0.000 A 
ENDROOT
BRANCH   5  18
ATOM     18  C   UNL     1       3.400   6.320  19.195  0.00  0.00    +0.000 C 
ATOM     19  N   UNL     1       3.272   5.487  20.272  0.00  0.00    +0.000 N 
ATOM     20  O   UNL     1       4.311   6.171  18.391  0.00  0.00    +0.000 OA
ATOM     21  H   UNL     1       2.708   5.718  21.078  0.00  0.00    +0.000 HD
ATOM     22  H   UNL     1       4.013   4.809  20.402  0.00  0.00    +0.000 HD
ENDBRANCH   5  18
BRANCH   1  24
ATOM     23  C   UNL     1      -2.451   9.972  17.976  0.00  0.00    +0.000 C 
ATOM     24  C   UNL     1      -1.190  10.730  17.564  0.00  0.00    +0.000 C 
ENDBRANCH   1  24
TORSDOF 2
ENDMDL
MODEL 3
REMARK VINA RESULT:      -6.4      3.200      5.133
REMARK  Name = 
REMARK  4 active torsions:
REMARK  status: ('A' for Active; 'I' for Inactive)
REMARK    1  A    between atoms: C_1  and  C_2
REMARK    2  A    between atoms: C_2  and  N_3
REMARK    3  A    between atoms: C_7  and  C_8
REMARK    4  A    between atoms: N_13  and  C_14
REMARK                            x       y       z     vdW  Elec       q    Type
REMARK                         _______ _______ _______ _____ _____    ______ ____
ROOT
ATOM      1  N   UNL     1      -0.657  11.283  19.588  0.00  0.00    +0.000 N 
ATOM      2  C   UNL     1      -1.981  11.349  19.133  0.00  0.00    +0.000 A 
ATOM      3  C   UNL     1      -2.416  10.684  17.979  0.00  0.00    +0.000 A 
ATOM      4  C   UNL     1      -3.746  10.780  17.552  0.00  0.00    +0.000 A 
ATOM      5  C   UNL     1      -4.663  11.554  18.269  0.00  0.00    +0.000 A 
ATOM      6  C   UNL     1      -4.231  12.262  19.394  0.00  0.00    +0.000 A 
ATOM      7  C   UNL     1      -2.910  12.130  19.839  0.00  0.00    +0.000 A 
ATOM      8  N   UNL     1      -2.493  12.829  20.994  0.00  0.00    +0.000 N 
ATOM      9  C   UNL     1      -2.722  14.259  21.075  0.00  0.00    +0.000 C 
ATOM     10  C   UNL     1      -1.963  12.195  22.114  0.00  0.00    +0.000 C 
ATOM     11  O   UNL     1      -2.161  12.654  23.244  0.00  0.00    +0.000 OA
ATOM     12  C   UNL     1      -1.067  11.011  21.991  0.00  0.00    +0.000 A 
ATOM     13  C   UNL     1      -0.752  10.334  23.184  0.00  0.00    +0.000 A 
ATOM     14  C   UNL     1       0.295   9.423  23.214  0.00  0.00    +0.000 A 
ATOM     15  C   UNL     1       1.002   9.228  22.046  0.00  0.00    +0.000 A 
ATOM     16  N   UNL     1       0.707   9.835  20.873  0.00  0.00    +0.000 NA
ATOM     17  C   UNL     1      -0.336  10.712  20.832  0.00  0.00    +0.000 A 
ENDROOT
BRANCH   5  18
ATOM     18  C   UNL     1      -6.075  11.594  17.805  0.00  0.00    +0.000 C 
ATOM     19  N   UNL     1      -6.411  12.549  16.886  0.00  0.00    +0.000 N 
ATOM     20  O   UNL     1      -6.920  10.834  18.259  0.00  0.00    +0.000 OA
ATOM     21  H   UNL     1      -5.821  13.343  16.681  0.00  0.00    +0.000 HD
ATOM     22  H   UNL     1      -7.398  12.638  16.676  0.00  0.00    +0.000 HD
ENDBRANCH   5  18
BRANCH   1  24
ATOM     23  C   UNL     1       0.907  12.897  18.620  0.00  0.00    +0.000 C 
ATOM     24  C   UNL     1       0.442  11.442  18.633  0.00  0.00    +0.000 C 
ENDBRANCH   1  24
TORSDOF 2
ENDMDL
MODEL 4
REMARK VINA RESULT:      -6.4      3.656      6.197
REMARK  Name = 
REMARK  4 active torsions:
REMARK  status: ('A' for Active; 'I' for Inactive)
REMARK    1  A    between atoms: C_1  and  C_2
REMARK    2  A    between atoms: C_2  and  N_3
REMARK    3  A    between atoms: C_7  and  C_8
REMARK    4  A    between atoms: N_13  and  C_14
REMARK                            x       y       z     vdW  Elec       q    Type
REMARK                         _______ _______ _______ _____ _____    ______ ____
ROOT
ATOM      1  N   UNL     1       0.341  10.867  19.612  0.00  0.00    +0.000 N 
ATOM      2  C   UNL     1      -0.793  10.887  18.788  0.00  0.00    +0.000 A 
ATOM      3  C   UNL     1      -0.902  10.099  17.635  0.00  0.00    +0.000 A 
ATOM      4  C   UNL     1      -2.048  10.152  16.832  0.00  0.00    +0.000 A 
ATOM      5  C   UNL     1      -3.103  11.006  17.166  0.00  0.00    +0.000 A 
ATOM      6  C   UNL     1      -2.988  11.833  18.286  0.00  0.00    +0.000 A 
ATOM      7  C   UNL     1      -1.857  11.746  19.107  0.00  0.00    +0.000 A 
ATOM      8  N   UNL     1      -1.764  12.569  20.252  0.00  0.00    +0.000 N 
ATOM      9  C   UNL     1      -1.954  14.000  20.111  0.00  0.00    +0.000 C 
ATOM     10  C   UNL     1      -1.602  12.062  21.539  0.00  0.00    +0.000 C 
ATOM     11  O   UNL     1      -2.101  12.646  22.507  0.00  0.00    +0.000 OA
ATOM     12  C   UNL     1      -0.753  10.868  21.807  0.00  0.00    +0.000 A 
ATOM     13  C   UNL     1      -0.820  10.327  23.105  0.00  0.00    +0.000 A 
ATOM     14  C   UNL     1       0.139   9.420  23.533  0.00  0.00    +0.000 A 
ATOM     15  C   UNL     1       1.145   9.092  22.648  0.00  0.00    +0.000 A 
ATOM     16  N   UNL     1       1.223   9.565  21.383  0.00  0.00    +0.000 NA
ATOM     17  C   UNL     1       0.269  10.437  20.949  0.00  0.00    +0.000 A 
ENDROOT
BRANCH   5  18
ATOM     18  C   UNL     1      -4.319  11.000  16.311  0.00  0.00    +0.000 C 
ATOM     19  N   UNL     1      -5.482  11.462  16.862  0.00  0.00    +0.000 N 
ATOM     20  O   UNL     1      -4.299  10.556  15.170  0.00  0.00    +0.000 OA
ATOM     21  H   UNL     1      -5.600  11.595  17.857  0.00  0.00    +0.000 HD
ATOM     22  H   UNL     1      -6.320  11.336  16.307  0.00  0.00    +0.000 HD
ENDBRANCH   5  18
BRANCH   1  24
ATOM     23  C   UNL     1       1.989  12.340  18.565  0.00  0.00    +0.000 C 
ATOM     24  C   UNL     1       1.673  10.912  19.006  0.00  0.00    +0.000 C 
ENDBRANCH   1  24
TORSDOF 2
ENDMDL
MODEL 5
REMARK VINA RESULT:      -6.2      3.973      6.589
REMARK  Name = 
REMARK  4 active torsions:
REMARK  status: ('A' for Active; 'I' for Inactive)
REMARK    1  A    between atoms: C_1  and  C_2
REMARK    2  A    between atoms: C_2  and  N_3
REMARK    3  A    between atoms: C_7  and  C_8
REMARK    4  A    between atoms: N_13  and  C_14
REMARK                            x       y       z     vdW  Elec       q    Type
REMARK                         _______ _______ _______ _____ _____    ______ ____
ROOT
ATOM      1  N   UNL     1      -0.348  12.087  20.934  0.00  0.00    +0.000 N 
ATOM      2  C   UNL     1      -1.259  11.872  19.890  0.00  0.00    +0.000 A 
ATOM      3  C   UNL     1      -2.619  12.188  19.999  0.00  0.00    +0.000 A 
ATOM      4  C   UNL     1      -3.501  11.952  18.937  0.00  0.00    +0.000 A 
ATOM      5  C   UNL     1      -3.034  11.383  17.748  0.00  0.00    +0.000 A 
ATOM      6  C   UNL     1      -1.690  11.018  17.644  0.00  0.00    +0.000 A 
ATOM      7  C   UNL     1      -0.805  11.294  18.693  0.00  0.00    +0.000 A 
ATOM      8  N   UNL     1       0.557  10.944  18.565  0.00  0.00    +0.000 N 
ATOM      9  C   UNL     1       0.906   9.586  18.194  0.00  0.00    +0.000 C 
ATOM     10  C   UNL     1       1.591  11.871  18.673  0.00  0.00    +0.000 C 
ATOM     11  O   UNL     1       2.625  11.733  18.010  0.00  0.00    +0.000 OA
ATOM     12  C   UNL     1       1.534  12.995  19.649  0.00  0.00    +0.000 A 
ATOM     13  C   UNL     1       2.535  13.978  19.535  0.00  0.00    +0.000 A 
ATOM     14  C   UNL     1       2.743  14.884  20.565  0.00  0.00    +0.000 A 
ATOM     15  C   UNL     1       1.946  14.769  21.685  0.00  0.00    +0.000 A 
ATOM     16  N   UNL     1       0.953  13.858  21.816  0.00  0.00    +0.000 NA
ATOM     17  C   UNL     1       0.728  12.982  20.796  0.00  0.00    +0.000 A 
ENDROOT
BRANCH   5  18
ATOM     18  C   UNL     1      -3.995  11.189  16.630  0.00  0.00    +0.000 C 
ATOM     19  N   UNL     1      -5.307  11.494  16.863  0.00  0.00    +0.000 N 
ATOM     20  O   UNL     1      -3.639  10.728  15.552  0.00  0.00    +0.000 OA
ATOM     21  H   UNL     1      -5.680  11.630  17.793  0.00  0.00    +0.000 HD
ATOM     22  H   UNL     1      -5.961  11.241  16.133  0.00  0.00    +0.000 HD
ENDBRANCH   5  18
BRANCH   1  24
ATOM     23  C   UNL     1      -0.388  10.220  22.514  0.00  0.00    +0.000 C 
ATOM     24  C   UNL     1      -0.709  11.697  22.298  0.00  0.00    +0.000 C 
ENDBRANCH   1  24
TORSDOF 2
ENDMDL
MODEL 6
REMARK VINA RESULT:      -6.2      2.886      5.291
REMARK  Name = 
REMARK  4 active torsions:
REMARK  status: ('A' for Active; 'I' for Inactive)
REMARK    1  A    between atoms: C_1  and  C_2
REMARK    2  A    between atoms: C_2  and  N_3
REMARK    3  A    between atoms: C_7  and  C_8
REMARK    4  A    between atoms: N_13  and  C_14
REMARK                            x       y       z     vdW  Elec       q    Type
REMARK                         _______ _______ _______ _____ _____    ______ ____
ROOT
ATOM      1  N   UNL     1      -3.769  13.237  20.723  0.00  0.00    +0.000 N 
ATOM      2  C   UNL     1      -2.756  12.410  21.230  0.00  0.00    +0.000 A 
ATOM      3  C   UNL     1      -2.596  12.167  22.600  0.00  0.00    +0.000 A 
ATOM      4  C   UNL     1      -1.567  11.341  23.069  0.00  0.00    +0.000 A 
ATOM      5  C   UNL     1      -0.672  10.753  22.171  0.00  0.00    +0.000 A 
ATOM      6  C   UNL     1      -0.790  11.027  20.806  0.00  0.00    +0.000 A 
ATOM      7  C   UNL     1      -1.845  11.820  20.340  0.00  0.00    +0.000 A 
ATOM      8  N   UNL     1      -1.970  12.067  18.954  0.00  0.00    +0.000 N 
ATOM      9  C   UNL     1      -0.828  12.583  18.223  0.00  0.00    +0.000 C 
ATOM     10  C   UNL     1      -3.110  11.740  18.225  0.00  0.00    +0.000 C 
ATOM     11  O   UNL     1      -3.017  11.395  17.042  0.00  0.00    +0.000 OA
ATOM     12  C   UNL     1      -4.475  11.882  18.803  0.00  0.00    +0.000 A 
ATOM     13  C   UNL     1      -5.536  11.339  18.055  0.00  0.00    +0.000 A 
ATOM     14  C   UNL     1      -6.847  11.680  18.354  0.00  0.00    +0.000 A 
ATOM     15  C   UNL     1      -7.054  12.567  19.389  0.00  0.00    +0.000 A 
ATOM     16  N   UNL     1      -6.063  13.084  20.152  0.00  0.00    +0.000 NA
ATOM     17  C   UNL     1      -4.774  12.732  19.878  0.00  0.00    +0.000 A 
ENDROOT
BRANCH   5  18
ATOM     18  C   UNL     1       0.380   9.849  22.707  0.00  0.00    +0.000 C 
ATOM     19  N   UNL     1       1.213   9.246  21.807  0.00  0.00    +0.000 N 
ATOM     20  O   UNL     1       0.473   9.613  23.905  0.00  0.00    +0.000 OA
ATOM     21  H   UNL     1       1.015   9.210  20.817  0.00  0.00    +0.000 HD
ATOM     22  H   UNL     1       1.840   8.543  22.181  0.00  0.00    +0.000 HD
ENDBRANCH   5  18
BRANCH   1  24
ATOM     23  C   UNL     1      -2.962  15.535  20.948  0.00  0.00    +0.000 C 
ATOM     24  C   UNL     1      -4.033  14.528  21.362  0.00  0.00    +0.000 C 
ENDBRANCH   1  24
TORSDOF 2
ENDMDL
MODEL 7
REMARK VINA RESULT:      -6.1      3.946      7.308
REMARK  Name = 
REMARK  4 active torsions:
REMARK  status: ('A' for Active; 'I' for Inactive)
REMARK    1  A    between atoms: C_1  and  C_2
REMARK    2  A    between atoms: C_2  and  N_3
REMARK    3  A    between atoms: C_7  and  C_8
REMARK    4  A    between atoms: N_13  and  C_14
REMARK                            x       y       z     vdW  Elec       q    Type
REMARK                         _______ _______ _______ _____ _____    ______ ____
ROOT
ATOM      1  N   UNL     1      -1.883  12.101  19.805  0.00  0.00    +0.000 N 
ATOM      2  C   UNL     1      -0.592  12.613  19.613  0.00  0.00    +0.000 A 
ATOM      3  C   UNL     1      -0.310  13.613  18.674  0.00  0.00    +0.000 A 
ATOM      4  C   UNL     1       0.994  14.094  18.505  0.00  0.00    +0.000 A 
ATOM      5  C   UNL     1       2.042  13.571  19.269  0.00  0.00    +0.000 A 
ATOM      6  C   UNL     1       1.783  12.539  20.174  0.00  0.00    +0.000 A 
ATOM      7  C   UNL     1       0.471  12.091  20.368  0.00  0.00    +0.000 A 
ATOM      8  N   UNL     1       0.217  11.065  21.306  0.00  0.00    +0.000 N 
ATOM      9  C   UNL     1       0.974   9.830  21.224  0.00  0.00    +0.000 C 
ATOM     10  C   UNL     1      -0.655  11.219  22.380  0.00  0.00    +0.000 C 
ATOM     11  O   UNL     1      -0.437  10.639  23.450  0.00  0.00    +0.000 OA
ATOM     12  C   UNL     1      -1.918  11.998  22.256  0.00  0.00    +0.000 A 
ATOM     13  C   UNL     1      -2.620  12.254  23.449  0.00  0.00    +0.000 A 
ATOM     14  C   UNL     1      -3.934  12.699  23.404  0.00  0.00    +0.000 A 
ATOM     15  C   UNL     1      -4.508  12.864  22.161  0.00  0.00    +0.000 A 
ATOM     16  N   UNL     1      -3.854  12.660  20.993  0.00  0.00    +0.000 NA
ATOM     17  C   UNL     1      -2.556  12.247  21.032  0.00  0.00    +0.000 A 
ENDROOT
BRANCH   5  18
ATOM     18  C   UNL     1       3.404  14.140  19.089  0.00  0.00    +0.000 C 
ATOM     19  N   UNL     1       3.927  14.141  17.825  0.00  0.00    +0.000 N 
ATOM     20  O   UNL     1       4.058  14.551  20.039  0.00  0.00    +0.000 OA
ATOM     21  H   UNL     1       3.537  13.591  17.072  0.00  0.00    +0.000 HD
ATOM     22  H   UNL     1       4.897  14.419  17.744  0.00  0.00    +0.000 HD
ENDBRANCH   5  18
BRANCH   1  24
ATOM     23  C   UNL     1      -2.217  10.441  18.039  0.00  0.00    +0.000 C 
ATOM     24  C   UNL     1      -2.704  11.758  18.642  0.00  0.00    +0.000 C 
ENDBRANCH   1  24
TORSDOF 2
ENDMDL
MODEL 8
REMARK VINA RESULT:      -6.0      2.994      3.995
REMARK  Name = 
REMARK  4 active torsions:
REMARK  status: ('A' for Active; 'I' for Inactive)
REMARK    1  A    between atoms: C_1  and  C_2
REMARK    2  A    between atoms: C_2  and  N_3
REMARK    3  A    between atoms: C_7  and  C_8
REMARK    4  A    between atoms: N_13  and  C_14
REMARK                            x       y       z     vdW  Elec       q    Type
REMARK                         _______ _______ _______ _____ _____    ______ ____
ROOT
ATOM      1  N   UNL     1      -1.110  12.135  19.486  0.00  0.00    +0.000 N 
ATOM      2  C   UNL     1      -2.438  12.259  19.918  0.00  0.00    +0.000 A 
ATOM      3  C   UNL     1      -3.519  12.312  19.029  0.00  0.00    +0.000 A 
ATOM      4  C   UNL     1      -4.832  12.444  19.499  0.00  0.00    +0.000 A 
ATOM      5  C   UNL     1      -5.083  12.536  20.871  0.00  0.00    +0.000 A 
ATOM      6  C   UNL     1      -4.010  12.534  21.766  0.00  0.00    +0.000 A 
ATOM      7  C   UNL     1      -2.704  12.361  21.293  0.00  0.00    +0.000 A 
ATOM      8  N   UNL     1      -1.630  12.333  22.211  0.00  0.00    +0.000 N 
ATOM      9  C   UNL     1      -1.489  13.416  23.166  0.00  0.00    +0.000 C 
ATOM     10  C   UNL     1      -0.752  11.258  22.318  0.00  0.00    +0.000 C 
ATOM     11  O   UNL     1      -0.257  10.962  23.411  0.00  0.00    +0.000 OA
ATOM     12  C   UNL     1      -0.303  10.494  21.121  0.00  0.00    +0.000 A 
ATOM     13  C   UNL     1       0.422   9.312  21.364  0.00  0.00    +0.000 A 
ATOM     14  C   UNL     1       1.130   8.704  20.336  0.00  0.00    +0.000 A 
ATOM     15  C   UNL     1       1.097   9.308  19.097  0.00  0.00    +0.000 A 
ATOM     16  N   UNL     1       0.385  10.424  18.818  0.00  0.00    +0.000 NA
ATOM     17  C   UNL     1      -0.332  11.011  19.817  0.00  0.00    +0.000 A 
ENDROOT
BRANCH   5  18
ATOM     18  C   UNL     1      -6.494  12.632  21.329  0.00  0.00    +0.000 C 
ATOM     19  N   UNL     1      -7.115  11.475  21.708  0.00  0.00    +0.000 N 
ATOM     20  O   UNL     1      -7.098  13.697  21.326  0.00  0.00    +0.000 OA
ATOM     21  H   UNL     1      -6.747  10.559  21.489  0.00  0.00    +0.000 HD
ATOM     22  H   UNL     1      -8.107  11.543  21.900  0.00  0.00    +0.000 HD
ENDBRANCH   5  18
BRANCH   1  24
ATOM     23  C   UNL     1      -0.222  14.336  18.893  0.00  0.00    +0.000 C 
ATOM     24  C   UNL     1      -0.634  12.960  18.374  0.00  0.00    +0.000 C 
ENDBRANCH   1  24
TORSDOF 2
ENDMDL
MODEL 9
REMARK VINA RESULT:      -5.9      5.105      8.174
REMARK  Name = 
REMARK  4 active torsions:
REMARK  status: ('A' for Active; 'I' for Inactive)
REMARK    1  A    between atoms: C_1  and  C_2
REMARK    2  A    between atoms: C_2  and  N_3
REMARK    3  A    between atoms: C_7  and  C_8
REMARK    4  A    between atoms: N_13  and  C_14
REMARK                            x       y       z     vdW  Elec       q    Type
REMARK                         _______ _______ _______ _____ _____    ______ ____
ROOT
ATOM      1  N   UNL     1      -0.022  12.811  21.633  0.00  0.00    +0.000 N 
ATOM      2  C   UNL     1       0.991  13.330  20.815  0.00  0.00    +0.000 A 
ATOM      3  C   UNL     1       2.017  14.145  21.311  0.00  0.00    +0.000 A 
ATOM      4  C   UNL     1       3.008  14.651  20.461  0.00  0.00    +0.000 A 
ATOM      5  C   UNL     1       2.981  14.358  19.094  0.00  0.00    +0.000 A 
ATOM      6  C   UNL     1       1.936  13.587  18.579  0.00  0.00    +0.000 A 
ATOM      7  C   UNL     1       0.971  13.050  19.439  0.00  0.00    +0.000 A 
ATOM      8  N   UNL     1      -0.066  12.249  18.910  0.00  0.00    +0.000 N 
ATOM      9  C   UNL     1      -0.860  12.761  17.809  0.00  0.00    +0.000 C 
ATOM     10  C   UNL     1      -0.299  10.940  19.322  0.00  0.00    +0.000 C 
ATOM     11  O   UNL     1      -0.732  10.102  18.524  0.00  0.00    +0.000 OA
ATOM     12  C   UNL     1      -0.132  10.527  20.744  0.00  0.00    +0.000 A 
ATOM     13  C   UNL     1      -0.201   9.147  21.010  0.00  0.00    +0.000 A 
ATOM     14  C   UNL     1      -0.358   8.695  22.313  0.00  0.00    +0.000 A 
ATOM     15  C   UNL     1      -0.452   9.645  23.309  0.00  0.00    +0.000 A 
ATOM     16  N   UNL     1      -0.357  10.978  23.095  0.00  0.00    +0.000 NA
ATOM     17  C   UNL     1      -0.178  11.425  21.820  0.00  0.00    +0.000 A 
ENDROOT
BRANCH   5  18
ATOM     18  C   UNL     1       4.076  14.880  18.234  0.00  0.00    +0.000 C 
ATOM     19  N   UNL     1       3.736  15.357  16.999  0.00  0.00    +0.000 N 
ATOM     20  O   UNL     1       5.246  14.843  18.593  0.00  0.00    +0.000 OA
ATOM     21  H   UNL     1       2.840  15.175  16.570  0.00  0.00    +0.000 HD
ATOM     22  H   UNL     1       4.506  15.594  16.385  0.00  0.00    +0.000 HD
ENDBRANCH   5  18
BRANCH   1  24
ATOM     23  C   UNL     1      -1.722  14.550  21.901  0.00  0.00    +0.000 C 
ATOM     24  C   UNL     1      -0.681  13.684  22.607  0.00  0.00    +0.000 C 
ENDBRANCH   1  24
TORSDOF 2
ENDMDL
