MODEL 1
REMARK VINA RESULT:      -8.1      0.000      0.000
REMARK  Name = 
REMARK  7 active torsions:
REMARK  status: ('A' for Active; 'I' for Inactive)
REMARK    1  A    between atoms: C_1  and  C_2
REMARK    2  A    between atoms: C_5  and  C_6
REMARK    3  A    between atoms: N_8  and  C_9
REMARK    4  A    between atoms: C_14  and  C_15
REMARK    5  A    between atoms: C_18  and  N_19
REMARK    6  A    between atoms: N_19  and  C_20
REMARK    7  A    between atoms: N_19  and  C_21
REMARK                            x       y       z     vdW  Elec       q    Type
REMARK                         _______ _______ _______ _____ _____    ______ ____
ROOT
ATOM      1  C   UNL     1       3.514   5.674  17.826  0.00  0.00    +0.000 A 
ATOM      2  C   UNL     1       3.242   4.797  18.890  0.00  0.00    +0.000 A 
ATOM      3  C   UNL     1       2.575   5.212  20.049  0.00  0.00    +0.000 A 
ATOM      4  C   UNL     1       2.179   6.546  20.131  0.00  0.00    +0.000 A 
ATOM      5  N   UNL     1       1.493   7.201  21.111  0.00  0.00    +0.000 NA
ATOM      6  C   UNL     1       1.354   8.425  20.638  0.00  0.00    +0.000 A 
ATOM      7  O   UNL     1       1.952   8.634  19.412  0.00  0.00    +0.000 OA
ATOM      8  C   UNL     1       2.479   7.409  19.091  0.00  0.00    +0.000 A 
ATOM      9  C   UNL     1       3.163   7.035  17.930  0.00  0.00    +0.000 A 
ENDROOT
BRANCH   6  10
ATOM     10  C   UNL     1       0.608   9.527  21.245  0.00  0.00    +0.000 A 
ATOM     11  C   UNL     1      -0.019   9.313  22.476  0.00  0.00    +0.000 A 
ATOM     12  C   UNL     1      -0.811  10.305  23.070  0.00  0.00    +0.000 A 
ATOM     13  C   UNL     1      -1.015  11.559  22.478  0.00  0.00    +0.000 A 
ATOM     14  C   UNL     1      -0.356  11.762  21.251  0.00  0.00    +0.000 A 
ATOM     15  C   UNL     1       0.437  10.769  20.640  0.00  0.00    +0.000 A 
BRANCH  13  16
ATOM     16  N   UNL     1      -1.854  12.503  23.052  0.00  0.00    +0.000 N 
ATOM     17  C   UNL     1      -3.168  12.139  23.580  0.00  0.00    +0.000 C 
ATOM     18  C   UNL     1      -1.376  13.815  23.478  0.00  0.00    +0.000 C 
ENDBRANCH  13  16
ENDBRANCH   6  10
BRANCH   1  21
ATOM     19  C   UNL     1       5.319   5.717  16.110  0.00  0.00    +0.000 C 
ATOM     20  O   UNL     1       6.023   6.585  16.619  0.00  0.00    +0.000 OA
ATOM     21  N   UNL     1       4.125   5.224  16.624  0.00  0.00    +0.000 N 
ATOM     22  H   UNL     1       3.756   4.376  16.213  0.00  0.00    +0.000 HD
BRANCH  19  27
ATOM     23  C   UNL     1       7.191   2.937  11.385  0.00  0.00    +0.000 C 
ATOM     24  C   UNL     1       6.711   3.694  12.587  0.00  0.00    +0.000 A 
ATOM     25  C   UNL     1       5.414   3.501  13.074  0.00  0.00    +0.000 A 
ATOM     26  C   UNL     1       4.980   4.189  14.206  0.00  0.00    +0.000 A 
ATOM     27  C   UNL     1       5.830   5.090  14.866  0.00  0.00    +0.000 A 
ATOM     28  C   UNL     1       7.129   5.291  14.387  0.00  0.00    +0.000 A 
ATOM     29  C   UNL     1       7.561   4.594  13.250  0.00  0.00    +0.000 A 
ENDBRANCH  19  27
ENDBRANCH   1  21
TORSDOF 4
ENDMDL
MODEL 2
REMARK VINA RESULT:      -8.1      0.358      1.166
REMARK  Name = 
REMARK  7 active torsions:
REMARK  status: ('A' for Active; 'I' for Inactive)
REMARK    1  A    between atoms: C_1  and  C_2
REMARK    2  A    between atoms: C_5  and  C_6
REMARK    3  A    between atoms: N_8  and  C_9
REMARK    4  A    between atoms: C_14  and  C_15
REMARK    5  A    between atoms: C_18  and  N_19
REMARK    6  A    between atoms: N_19  and  C_20
REMARK    7  A    between atoms: N_19  and  C_21
REMARK                            x       y       z     vdW  Elec       q    Type
REMARK                         _______ _______ _______ _____ _____    ______ ____
ROOT
ATOM      1  C   UNL     1       3.725   5.510  17.684  0.00  0.00    +0.000 A 
ATOM      2  C   UNL     1       3.613   4.640  18.783  0.00  0.00    +0.000 A 
ATOM      3  C   UNL     1       2.976   5.016  19.972  0.00  0.00    +0.000 A 
ATOM      4  C   UNL     1       2.445   6.303  20.048  0.00  0.00    +0.000 A 
ATOM      5  N   UNL     1       1.752   6.910  21.054  0.00  0.00    +0.000 NA
ATOM      6  C   UNL     1       1.454   8.098  20.562  0.00  0.00    +0.000 A 
ATOM      7  O   UNL     1       1.952   8.333  19.297  0.00  0.00    +0.000 OA
ATOM      8  C   UNL     1       2.588   7.162  18.972  0.00  0.00    +0.000 A 
ATOM      9  C   UNL     1       3.237   6.829  17.779  0.00  0.00    +0.000 A 
ENDROOT
BRANCH   6  10
ATOM     10  C   UNL     1       0.632   9.132  21.189  0.00  0.00    +0.000 A 
ATOM     11  C   UNL     1       0.541  10.382  20.570  0.00  0.00    +0.000 A 
ATOM     12  C   UNL     1      -0.169  11.436  21.161  0.00  0.00    +0.000 A 
ATOM     13  C   UNL     1      -0.830  11.301  22.390  0.00  0.00    +0.000 A 
ATOM     14  C   UNL     1      -0.747  10.028  22.984  0.00  0.00    +0.000 A 
ATOM     15  C   UNL     1      -0.029   8.963  22.403  0.00  0.00    +0.000 A 
BRANCH  13  16
ATOM     16  N   UNL     1      -1.473  12.375  22.987  0.00  0.00    +0.000 N 
ATOM     17  C   UNL     1      -0.931  13.732  22.910  0.00  0.00    +0.000 C 
ATOM     18  C   UNL     1      -2.864  12.306  23.424  0.00  0.00    +0.000 C 
ENDBRANCH  13  16
ENDBRANCH   6  10
BRANCH   1  21
ATOM     19  C   UNL     1       5.495   5.593  15.933  0.00  0.00    +0.000 C 
ATOM     20  O   UNL     1       6.215   6.442  16.453  0.00  0.00    +0.000 OA
ATOM     21  N   UNL     1       4.309   5.092  16.458  0.00  0.00    +0.000 N 
ATOM     22  H   UNL     1       3.926   4.259  16.029  0.00  0.00    +0.000 HD
BRANCH  19  27
ATOM     23  C   UNL     1       7.279   2.940  11.103  0.00  0.00    +0.000 C 
ATOM     24  C   UNL     1       6.818   3.664  12.332  0.00  0.00    +0.000 A 
ATOM     25  C   UNL     1       5.565   3.389  12.888  0.00  0.00    +0.000 A 
ATOM     26  C   UNL     1       5.151   4.048  14.045  0.00  0.00    +0.000 A 
ATOM     27  C   UNL     1       5.976   5.000  14.660  0.00  0.00    +0.000 A 
ATOM     28  C   UNL     1       7.231   5.284  14.112  0.00  0.00    +0.000 A 
ATOM     29  C   UNL     1       7.645   4.616  12.951  0.00  0.00    +0.000 A 
ENDBRANCH  19  27
ENDBRANCH   1  21
TORSDOF 4
ENDMDL
MODEL 3
REMARK VINA RESULT:      -7.9      0.587      1.261
REMARK  Name = 
REMARK  7 active torsions:
REMARK  status: ('A' for Active; 'I' for Inactive)
REMARK    1  A    between atoms: C_1  and  C_2
REMARK    2  A    between atoms: C_5  and  C_6
REMARK    3  A    between atoms: N_8  and  C_9
REMARK    4  A    between atoms: C_14  and  C_15
REMARK    5  A    between atoms: C_18  and  N_19
REMARK    6  A    between atoms: N_19  and  C_20
REMARK    7  A    between atoms: N_19  and  C_21
REMARK                            x       y       z     vdW  Elec       q    Type
REMARK                         _______ _______ _______ _____ _____    ______ ____
ROOT
ATOM      1  C   UNL     1       3.180   5.860  18.212  0.00  0.00    +0.000 A 
ATOM      2  C   UNL     1       2.865   5.001  19.280  0.00  0.00    +0.000 A 
ATOM      3  C   UNL     1       2.173   5.442  20.414  0.00  0.00    +0.000 A 
ATOM      4  C   UNL     1       1.796   6.783  20.468  0.00  0.00    +0.000 A 
ATOM      5  N   UNL     1       1.094   7.461  21.420  0.00  0.00    +0.000 NA
ATOM      6  C   UNL     1       0.987   8.681  20.928  0.00  0.00    +0.000 A 
ATOM      7  O   UNL     1       1.621   8.864  19.717  0.00  0.00    +0.000 OA
ATOM      8  C   UNL     1       2.138   7.627  19.426  0.00  0.00    +0.000 A 
ATOM      9  C   UNL     1       2.847   7.228  18.289  0.00  0.00    +0.000 A 
ENDROOT
BRANCH   6  10
ATOM     10  C   UNL     1       0.242   9.802  21.500  0.00  0.00    +0.000 A 
ATOM     11  C   UNL     1      -0.385   9.628  22.737  0.00  0.00    +0.000 A 
ATOM     12  C   UNL     1      -1.176  10.639  23.300  0.00  0.00    +0.000 A 
ATOM     13  C   UNL     1      -1.379  11.873  22.668  0.00  0.00    +0.000 A 
ATOM     14  C   UNL     1      -0.720  12.037  21.436  0.00  0.00    +0.000 A 
ATOM     15  C   UNL     1       0.072  11.025  20.857  0.00  0.00    +0.000 A 
BRANCH  13  16
ATOM     16  N   UNL     1      -2.217  12.835  23.212  0.00  0.00    +0.000 N 
ATOM     17  C   UNL     1      -1.982  14.263  23.002  0.00  0.00    +0.000 C 
ATOM     18  C   UNL     1      -3.546  12.513  23.725  0.00  0.00    +0.000 C 
ENDBRANCH  13  16
ENDBRANCH   6  10
BRANCH   1  21
ATOM     19  C   UNL     1       5.156   5.588  16.720  0.00  0.00    +0.000 C 
ATOM     20  O   UNL     1       5.980   6.179  17.413  0.00  0.00    +0.000 OA
ATOM     21  N   UNL     1       3.817   5.385  17.034  0.00  0.00    +0.000 N 
ATOM     22  H   UNL     1       3.304   4.714  16.476  0.00  0.00    +0.000 HD
BRANCH  19  27
ATOM     23  C   UNL     1       7.227   3.535  11.715  0.00  0.00    +0.000 C 
ATOM     24  C   UNL     1       6.689   4.027  13.026  0.00  0.00    +0.000 A 
ATOM     25  C   UNL     1       7.457   4.869  13.835  0.00  0.00    +0.000 A 
ATOM     26  C   UNL     1       6.944   5.342  15.042  0.00  0.00    +0.000 A 
ATOM     27  C   UNL     1       5.658   4.974  15.465  0.00  0.00    +0.000 A 
ATOM     28  C   UNL     1       4.881   4.132  14.664  0.00  0.00    +0.000 A 
ATOM     29  C   UNL     1       5.401   3.661  13.450  0.00  0.00    +0.000 A 
ENDBRANCH  19  27
ENDBRANCH   1  21
TORSDOF 4
ENDMDL
MODEL 4
REMARK VINA RESULT:      -7.9      2.406      5.019
REMARK  Name = 
REMARK  7 active torsions:
REMARK  status: ('A' for Active; 'I' for Inactive)
REMARK    1  A    between atoms: C_1  and  C_2
REMARK    2  A    between atoms: C_5  and  C_6
REMARK    3  A    between atoms: N_8  and  C_9
REMARK    4  A    between atoms: C_14  and  C_15
REMARK    5  A    between atoms: C_18  and  N_19
REMARK    6  A    between atoms: N_19  and  C_20
REMARK    7  A    between atoms: N_19  and  C_21
REMARK                            x       y       z     vdW  Elec       q    Type
REMARK                         _______ _______ _______ _____ _____    ______ ____
ROOT
ATOM      1  C   UNL     1       1.264   9.000  20.634  0.00  0.00    +0.000 A 
ATOM      2  C   UNL     1       1.438   8.750  22.006  0.00  0.00    +0.000 A 
ATOM      3  C   UNL     1       0.658   9.378  22.985  0.00  0.00    +0.000 A 
ATOM      4  C   UNL     1      -0.316  10.280  22.562  0.00  0.00    +0.000 A 
ATOM      5  N   UNL     1      -1.226  10.994  23.284  0.00  0.00    +0.000 NA
ATOM      6  C   UNL     1      -1.924  11.639  22.367  0.00  0.00    +0.000 A 
ATOM      7  O   UNL     1      -1.497  11.428  21.073  0.00  0.00    +0.000 OA
ATOM      8  C   UNL     1      -0.459  10.542  21.210  0.00  0.00    +0.000 A 
ATOM      9  C   UNL     1       0.317   9.952  20.207  0.00  0.00    +0.000 A 
ENDROOT
BRANCH   6  10
ATOM     10  C   UNL     1      -3.098  12.485  22.584  0.00  0.00    +0.000 A 
ATOM     11  C   UNL     1      -3.643  12.557  23.869  0.00  0.00    +0.000 A 
ATOM     12  C   UNL     1      -4.811  13.289  24.123  0.00  0.00    +0.000 A 
ATOM     13  C   UNL     1      -5.492  13.990  23.118  0.00  0.00    +0.000 A 
ATOM     14  C   UNL     1      -4.913  13.924  21.837  0.00  0.00    +0.000 A 
ATOM     15  C   UNL     1      -3.743  13.186  21.569  0.00  0.00    +0.000 A 
BRANCH  13  16
ATOM     16  N   UNL     1      -6.681  14.655  23.378  0.00  0.00    +0.000 N 
ATOM     17  C   UNL     1      -7.763  14.023  24.132  0.00  0.00    +0.000 C 
ATOM     18  C   UNL     1      -6.813  16.102  23.234  0.00  0.00    +0.000 C 
ENDBRANCH  13  16
ENDBRANCH   6  10
BRANCH   1  21
ATOM     19  C   UNL     1       2.252   6.932  19.656  0.00  0.00    +0.000 C 
ATOM     20  O   UNL     1       1.842   6.132  20.492  0.00  0.00    +0.000 OA
ATOM     21  N   UNL     1       2.012   8.302  19.647  0.00  0.00    +0.000 N 
ATOM     22  H   UNL     1       2.235   8.808  18.799  0.00  0.00    +0.000 HD
BRANCH  19  27
ATOM     23  C   UNL     1       5.359   4.478  15.428  0.00  0.00    +0.000 C 
ATOM     24  C   UNL     1       4.533   5.135  16.493  0.00  0.00    +0.000 A 
ATOM     25  C   UNL     1       3.710   4.368  17.323  0.00  0.00    +0.000 A 
ATOM     26  C   UNL     1       2.961   4.981  18.328  0.00  0.00    +0.000 A 
ATOM     27  C   UNL     1       3.014   6.371  18.513  0.00  0.00    +0.000 A 
ATOM     28  C   UNL     1       3.834   7.147  17.687  0.00  0.00    +0.000 A 
ATOM     29  C   UNL     1       4.587   6.526  16.681  0.00  0.00    +0.000 A 
ENDBRANCH  19  27
ENDBRANCH   1  21
TORSDOF 4
ENDMDL
MODEL 5
REMARK VINA RESULT:      -7.6      2.555      4.851
REMARK  Name = 
REMARK  7 active torsions:
REMARK  status: ('A' for Active; 'I' for Inactive)
REMARK    1  A    between atoms: C_1  and  C_2
REMARK    2  A    between atoms: C_5  and  C_6
REMARK    3  A    between atoms: N_8  and  C_9
REMARK    4  A    between atoms: C_14  and  C_15
REMARK    5  A    between atoms: C_18  and  N_19
REMARK    6  A    between atoms: N_19  and  C_20
REMARK    7  A    between atoms: N_19  and  C_21
REMARK                            x       y       z     vdW  Elec       q    Type
REMARK                         _______ _______ _______ _____ _____    ______ ____
ROOT
ATOM      1  C   UNL     1       1.721   9.938  18.196  0.00  0.00    +0.000 A 
ATOM      2  C   UNL     1       2.207  11.256  18.134  0.00  0.00    +0.000 A 
ATOM      3  C   UNL     1       1.497  12.340  18.665  0.00  0.00    +0.000 A 
ATOM      4  C   UNL     1       0.269  12.081  19.270  0.00  0.00    +0.000 A 
ATOM      5  N   UNL     1      -0.601  12.927  19.892  0.00  0.00    +0.000 NA
ATOM      6  C   UNL     1      -1.566  12.134  20.318  0.00  0.00    +0.000 A 
ATOM      7  O   UNL     1      -1.409  10.808  19.974  0.00  0.00    +0.000 OA
ATOM      8  C   UNL     1      -0.215  10.784  19.300  0.00  0.00    +0.000 A 
ATOM      9  C   UNL     1       0.455   9.682  18.759  0.00  0.00    +0.000 A 
ENDROOT
BRANCH   6  10
ATOM     10  C   UNL     1      -2.719  12.508  21.138  0.00  0.00    +0.000 A 
ATOM     11  C   UNL     1      -3.833  13.071  20.508  0.00  0.00    +0.000 A 
ATOM     12  C   UNL     1      -4.936  13.520  21.248  0.00  0.00    +0.000 A 
ATOM     13  C   UNL     1      -4.993  13.425  22.645  0.00  0.00    +0.000 A 
ATOM     14  C   UNL     1      -3.872  12.833  23.257  0.00  0.00    +0.000 A 
ATOM     15  C   UNL     1      -2.754  12.386  22.524  0.00  0.00    +0.000 A 
BRANCH  13  16
ATOM     16  N   UNL     1      -6.066  13.933  23.362  0.00  0.00    +0.000 N 
ATOM     17  C   UNL     1      -7.008  13.055  24.056  0.00  0.00    +0.000 C 
ATOM     18  C   UNL     1      -6.145  15.335  23.761  0.00  0.00    +0.000 C 
ENDBRANCH  13  16
ENDBRANCH   6  10
BRANCH   1  21
ATOM     19  C   UNL     1       2.754   7.685  18.448  0.00  0.00    +0.000 C 
ATOM     20  O   UNL     1       2.362   7.440  19.586  0.00  0.00    +0.000 OA
ATOM     21  N   UNL     1       2.484   8.838  17.719  0.00  0.00    +0.000 N 
ATOM     22  H   UNL     1       2.695   8.823  16.729  0.00  0.00    +0.000 HD
BRANCH  19  27
ATOM     23  C   UNL     1       5.753   3.725  15.468  0.00  0.00    +0.000 C 
ATOM     24  C   UNL     1       4.989   4.731  16.276  0.00  0.00    +0.000 A 
ATOM     25  C   UNL     1       5.323   6.088  16.215  0.00  0.00    +0.000 A 
ATOM     26  C   UNL     1       4.595   7.023  16.950  0.00  0.00    +0.000 A 
ATOM     27  C   UNL     1       3.528   6.618  17.765  0.00  0.00    +0.000 A 
ATOM     28  C   UNL     1       3.186   5.264  17.834  0.00  0.00    +0.000 A 
ATOM     29  C   UNL     1       3.919   4.328  17.091  0.00  0.00    +0.000 A 
ENDBRANCH  19  27
ENDBRANCH   1  21
TORSDOF 4
ENDMDL
MODEL 6
REMARK VINA RESULT:      -7.5      2.880      5.140
REMARK  Name = 
REMARK  7 active torsions:
REMARK  status: ('A' for Active; 'I' for Inactive)
REMARK    1  A    between atoms: C_1  and  C_2
REMARK    2  A    between atoms: C_5  and  C_6
REMARK    3  A    between atoms: N_8  and  C_9
REMARK    4  A    between atoms: C_14  and  C_15
REMARK    5  A    between atoms: C_18  and  N_19
REMARK    6  A    between atoms: N_19  and  C_20
REMARK    7  A    between atoms: N_19  and  C_21
REMARK                            x       y       z     vdW  Elec       q    Type
REMARK                         _______ _______ _______ _____ _____    ______ ____
ROOT
ATOM      1  C   UNL     1       1.500  10.151  18.165  0.00  0.00    +0.000 A 
ATOM      2  C   UNL     1       2.060  11.417  18.410  0.00  0.00    +0.000 A 
ATOM      3  C   UNL     1       1.319  12.467  18.967  0.00  0.00    +0.000 A 
ATOM      4  C   UNL     1      -0.018  12.227  19.278  0.00  0.00    +0.000 A 
ATOM      5  N   UNL     1      -0.947  13.044  19.853  0.00  0.00    +0.000 NA
ATOM      6  C   UNL     1      -2.020  12.283  19.954  0.00  0.00    +0.000 A 
ATOM      7  O   UNL     1      -1.870  11.013  19.435  0.00  0.00    +0.000 OA
ATOM      8  C   UNL     1      -0.568  10.987  19.004  0.00  0.00    +0.000 A 
ATOM      9  C   UNL     1       0.134   9.924  18.428  0.00  0.00    +0.000 A 
ENDROOT
BRANCH   6  10
ATOM     10  C   UNL     1      -3.291  12.628  20.590  0.00  0.00    +0.000 A 
ATOM     11  C   UNL     1      -3.335  12.737  21.983  0.00  0.00    +0.000 A 
ATOM     12  C   UNL     1      -4.539  12.990  22.655  0.00  0.00    +0.000 A 
ATOM     13  C   UNL     1      -5.756  13.155  21.980  0.00  0.00    +0.000 A 
ATOM     14  C   UNL     1      -5.686  13.066  20.577  0.00  0.00    +0.000 A 
ATOM     15  C   UNL     1      -4.482  12.804  19.891  0.00  0.00    +0.000 A 
BRANCH  13  16
ATOM     16  N   UNL     1      -6.946  13.341  22.668  0.00  0.00    +0.000 N 
ATOM     17  C   UNL     1      -7.799  14.504  22.422  0.00  0.00    +0.000 C 
ATOM     18  C   UNL     1      -7.595  12.264  23.409  0.00  0.00    +0.000 C 
ENDBRANCH  13  16
ENDBRANCH   6  10
BRANCH   1  21
ATOM     19  C   UNL     1       2.571   7.911  18.377  0.00  0.00    +0.000 C 
ATOM     20  O   UNL     1       2.184   7.640  19.510  0.00  0.00    +0.000 OA
ATOM     21  N   UNL     1       2.281   9.072  17.668  0.00  0.00    +0.000 N 
ATOM     22  H   UNL     1       2.491   9.078  16.678  0.00  0.00    +0.000 HD
BRANCH  19  27
ATOM     23  C   UNL     1       5.685   3.663  15.968  0.00  0.00    +0.000 C 
ATOM     24  C   UNL     1       4.868   4.776  16.552  0.00  0.00    +0.000 A 
ATOM     25  C   UNL     1       3.757   4.493  17.353  0.00  0.00    +0.000 A 
ATOM     26  C   UNL     1       3.014   5.532  17.913  0.00  0.00    +0.000 A 
ATOM     27  C   UNL     1       3.362   6.870  17.676  0.00  0.00    +0.000 A 
ATOM     28  C   UNL     1       4.471   7.163  16.876  0.00  0.00    +0.000 A 
ATOM     29  C   UNL     1       5.217   6.116  16.318  0.00  0.00    +0.000 A 
ENDBRANCH  19  27
ENDBRANCH   1  21
TORSDOF 4
ENDMDL
MODEL 7
REMARK VINA RESULT:      -7.5      1.214      1.937
REMARK  Name = 
REMARK  7 active torsions:
REMARK  status: ('A' for Active; 'I' for Inactive)
REMARK    1  A    between atoms: C_1  and  C_2
REMARK    2  A    between atoms: C_5  and  C_6
REMARK    3  A    between atoms: N_8  and  C_9
REMARK    4  A    between atoms: C_14  and  C_15
REMARK    5  A    between atoms: C_18  and  N_19
REMARK    6  A    between atoms: N_19  and  C_20
REMARK    7  A    between atoms: N_19  and  C_21
REMARK                            x       y       z     vdW  Elec       q    Type
REMARK                         _______ _______ _______ _____ _____    ______ ____
ROOT
ATOM      1  C   UNL     1       2.924   6.598  18.444  0.00  0.00    +0.000 A 
ATOM      2  C   UNL     1       2.669   5.800  19.573  0.00  0.00    +0.000 A 
ATOM      3  C   UNL     1       1.920   6.263  20.662  0.00  0.00    +0.000 A 
ATOM      4  C   UNL     1       1.424   7.564  20.605  0.00  0.00    +0.000 A 
ATOM      5  N   UNL     1       0.647   8.249  21.493  0.00  0.00    +0.000 NA
ATOM      6  C   UNL     1       0.440   9.411  20.903  0.00  0.00    +0.000 A 
ATOM      7  O   UNL     1       1.077   9.557  19.689  0.00  0.00    +0.000 OA
ATOM      8  C   UNL     1       1.707   8.352  19.502  0.00  0.00    +0.000 A 
ATOM      9  C   UNL     1       2.470   7.931  18.409  0.00  0.00    +0.000 A 
ENDROOT
BRANCH   6  10
ATOM     10  C   UNL     1      -0.412  10.502  21.376  0.00  0.00    +0.000 A 
ATOM     11  C   UNL     1      -0.858  11.452  20.453  0.00  0.00    +0.000 A 
ATOM     12  C   UNL     1      -1.613  12.561  20.857  0.00  0.00    +0.000 A 
ATOM     13  C   UNL     1      -1.970  12.779  22.195  0.00  0.00    +0.000 A 
ATOM     14  C   UNL     1      -1.533  11.798  23.105  0.00  0.00    +0.000 A 
ATOM     15  C   UNL     1      -0.766  10.683  22.710  0.00  0.00    +0.000 A 
BRANCH  13  16
ATOM     16  N   UNL     1      -2.664  13.916  22.583  0.00  0.00    +0.000 N 
ATOM     17  C   UNL     1      -3.079  14.124  23.970  0.00  0.00    +0.000 C 
ATOM     18  C   UNL     1      -2.729  15.113  21.749  0.00  0.00    +0.000 C 
ENDBRANCH  13  16
ENDBRANCH   6  10
BRANCH   1  21
ATOM     19  C   UNL     1       4.934   5.631  17.334  0.00  0.00    +0.000 C 
ATOM     20  O   UNL     1       5.666   5.573  18.319  0.00  0.00    +0.000 OA
ATOM     21  N   UNL     1       3.622   6.091  17.315  0.00  0.00    +0.000 N 
ATOM     22  H   UNL     1       3.073   5.896  16.487  0.00  0.00    +0.000 HD
BRANCH  19  27
ATOM     23  C   UNL     1       7.181   3.878  12.291  0.00  0.00    +0.000 C 
ATOM     24  C   UNL     1       6.598   4.291  13.609  0.00  0.00    +0.000 A 
ATOM     25  C   UNL     1       7.330   5.097  14.486  0.00  0.00    +0.000 A 
ATOM     26  C   UNL     1       6.774   5.498  15.700  0.00  0.00    +0.000 A 
ATOM     27  C   UNL     1       5.482   5.092  16.064  0.00  0.00    +0.000 A 
ATOM     28  C   UNL     1       4.741   4.285  15.195  0.00  0.00    +0.000 A 
ATOM     29  C   UNL     1       5.303   3.887  13.974  0.00  0.00    +0.000 A 
ENDBRANCH  19  27
ENDBRANCH   1  21
TORSDOF 4
ENDMDL
MODEL 8
REMARK VINA RESULT:      -7.5      1.043      1.458
REMARK  Name = 
REMARK  7 active torsions:
REMARK  status: ('A' for Active; 'I' for Inactive)
REMARK    1  A    between atoms: C_1  and  C_2
REMARK    2  A    between atoms: C_5  and  C_6
REMARK    3  A    between atoms: N_8  and  C_9
REMARK    4  A    between atoms: C_14  and  C_15
REMARK    5  A    between atoms: C_18  and  N_19
REMARK    6  A    between atoms: N_19  and  C_20
REMARK    7  A    between atoms: N_19  and  C_21
REMARK                            x       y       z     vdW  Elec       q    Type
REMARK                         _______ _______ _______ _____ _____    ______ ____
ROOT
ATOM      1  C   UNL     1       3.241   6.534  18.125  0.00  0.00    +0.000 A 
ATOM      2  C   UNL     1       3.084   5.696  19.243  0.00  0.00    +0.000 A 
ATOM      3  C   UNL     1       2.356   6.088  20.373  0.00  0.00    +0.000 A 
ATOM      4  C   UNL     1       1.777   7.355  20.369  0.00  0.00    +0.000 A 
ATOM      5  N   UNL     1       0.998   7.969  21.305  0.00  0.00    +0.000 NA
ATOM      6  C   UNL     1       0.694   9.129  20.754  0.00  0.00    +0.000 A 
ATOM      7  O   UNL     1       1.267   9.341  19.518  0.00  0.00    +0.000 OA
ATOM      8  C   UNL     1       1.963   8.184  19.276  0.00  0.00    +0.000 A 
ATOM      9  C   UNL     1       2.703   7.836  18.141  0.00  0.00    +0.000 A 
ENDROOT
BRANCH   6  10
ATOM     10  C   UNL     1      -0.204  10.152  21.289  0.00  0.00    +0.000 A 
ATOM     11  C   UNL     1      -0.738  11.099  20.410  0.00  0.00    +0.000 A 
ATOM     12  C   UNL     1      -1.543  12.149  20.875  0.00  0.00    +0.000 A 
ATOM     13  C   UNL     1      -1.864  12.308  22.230  0.00  0.00    +0.000 A 
ATOM     14  C   UNL     1      -1.336  11.330  23.094  0.00  0.00    +0.000 A 
ATOM     15  C   UNL     1      -0.520  10.274  22.639  0.00  0.00    +0.000 A 
BRANCH  13  16
ATOM     16  N   UNL     1      -2.609  13.389  22.675  0.00  0.00    +0.000 N 
ATOM     17  C   UNL     1      -2.242  14.125  23.885  0.00  0.00    +0.000 C 
ATOM     18  C   UNL     1      -3.576  14.075  21.823  0.00  0.00    +0.000 C 
ENDBRANCH  13  16
ENDBRANCH   6  10
BRANCH   1  21
ATOM     19  C   UNL     1       5.214   5.590  16.932  0.00  0.00    +0.000 C 
ATOM     20  O   UNL     1       5.943   5.425  17.906  0.00  0.00    +0.000 OA
ATOM     21  N   UNL     1       3.920   6.098  16.955  0.00  0.00    +0.000 N 
ATOM     22  H   UNL     1       3.363   5.992  16.115  0.00  0.00    +0.000 HD
BRANCH  19  27
ATOM     23  C   UNL     1       7.139   3.487  11.890  0.00  0.00    +0.000 C 
ATOM     24  C   UNL     1       6.646   4.071  13.180  0.00  0.00    +0.000 A 
ATOM     25  C   UNL     1       5.335   3.839  13.607  0.00  0.00    +0.000 A 
ATOM     26  C   UNL     1       4.889   4.365  14.819  0.00  0.00    +0.000 A 
ATOM     27  C   UNL     1       5.741   5.140  15.620  0.00  0.00    +0.000 A 
ATOM     28  C   UNL     1       7.054   5.378  15.201  0.00  0.00    +0.000 A 
ATOM     29  C   UNL     1       7.499   4.845  13.984  0.00  0.00    +0.000 A 
ENDBRANCH  19  27
ENDBRANCH   1  21
TORSDOF 4
ENDMDL
MODEL 9
REMARK VINA RESULT:      -7.5      1.857      2.838
REMARK  Name = 
REMARK  7 active torsions:
REMARK  status: ('A' for Active; 'I' for Inactive)
REMARK    1  A    between atoms: C_1  and  C_2
REMARK    2  A    between atoms: C_5  and  C_6
REMARK    3  A    between atoms: N_8  and  C_9
REMARK    4  A    between atoms: C_14  and  C_15
REMARK    5  A    between atoms: C_18  and  N_19
REMARK    6  A    between atoms: N_19  and  C_20
REMARK    7  A    between atoms: N_19  and  C_21
REMARK                            x       y       z     vdW  Elec       q    Type
REMARK                         _______ _______ _______ _____ _____    ______ ____
ROOT
ATOM      1  C   UNL     1       2.263   7.412  19.193  0.00  0.00    +0.000 A 
ATOM      2  C   UNL     1       1.922   6.711  20.363  0.00  0.00    +0.000 A 
ATOM      3  C   UNL     1       1.113   7.270  21.360  0.00  0.00    +0.000 A 
ATOM      4  C   UNL     1       0.641   8.567  21.166  0.00  0.00    +0.000 A 
ATOM      5  N   UNL     1      -0.180   9.329  21.942  0.00  0.00    +0.000 NA
ATOM      6  C   UNL     1      -0.330  10.442  21.249  0.00  0.00    +0.000 A 
ATOM      7  O   UNL     1       0.385  10.481  20.071  0.00  0.00    +0.000 OA
ATOM      8  C   UNL     1       1.007   9.259  20.024  0.00  0.00    +0.000 A 
ATOM      9  C   UNL     1       1.832   8.742  19.020  0.00  0.00    +0.000 A 
ENDROOT
BRANCH   6  10
ATOM     10  C   UNL     1      -1.195  11.576  21.576  0.00  0.00    +0.000 A 
ATOM     11  C   UNL     1      -1.669  11.701  22.885  0.00  0.00    +0.000 A 
ATOM     12  C   UNL     1      -2.561  12.722  23.240  0.00  0.00    +0.000 A 
ATOM     13  C   UNL     1      -3.022  13.672  22.319  0.00  0.00    +0.000 A 
ATOM     14  C   UNL     1      -2.513  13.543  21.012  0.00  0.00    +0.000 A 
ATOM     15  C   UNL     1      -1.622  12.516  20.642  0.00  0.00    +0.000 A 
BRANCH  13  16
ATOM     16  N   UNL     1      -3.953  14.635  22.676  0.00  0.00    +0.000 N 
ATOM     17  C   UNL     1      -5.356  14.530  22.276  0.00  0.00    +0.000 C 
ATOM     18  C   UNL     1      -3.700  15.612  23.732  0.00  0.00    +0.000 C 
ENDBRANCH  13  16
ENDBRANCH   6  10
BRANCH   1  21
ATOM     19  C   UNL     1       4.114   5.969  18.358  0.00  0.00    +0.000 C 
ATOM     20  O   UNL     1       4.560   5.612  19.445  0.00  0.00    +0.000 OA
ATOM     21  N   UNL     1       3.024   6.808  18.156  0.00  0.00    +0.000 N 
ATOM     22  H   UNL     1       2.641   6.857  17.219  0.00  0.00    +0.000 HD
BRANCH  19  27
ATOM     23  C   UNL     1       6.376   3.907  13.440  0.00  0.00    +0.000 C 
ATOM     24  C   UNL     1       5.825   4.428  14.734  0.00  0.00    +0.000 A 
ATOM     25  C   UNL     1       5.584   5.795  14.901  0.00  0.00    +0.000 A 
ATOM     26  C   UNL     1       5.049   6.271  16.098  0.00  0.00    +0.000 A 
ATOM     27  C   UNL     1       4.757   5.391  17.151  0.00  0.00    +0.000 A 
ATOM     28  C   UNL     1       4.996   4.023  16.994  0.00  0.00    +0.000 A 
ATOM     29  C   UNL     1       5.530   3.548  15.788  0.00  0.00    +0.000 A 
ENDBRANCH  19  27
ENDBRANCH   1  21
TORSDOF 4
ENDMDL
