MODEL 1
REMARK VINA RESULT:      -7.2      0.000      0.000
REMARK  Name = 
REMARK  11 active torsions:
REMARK  status: ('A' for Active; 'I' for Inactive)
REMARK    1  A    between atoms: C_1  and  C_2
REMARK    2  A    between atoms: C_2  and  C_3
REMARK    3  A    between atoms: C_3  and  C_4
REMARK    4  A    between atoms: C_4  and  C_5
REMARK    5  A    between atoms: C_5  and  C_6
REMARK    6  A    between atoms: C_6  and  O_7
REMARK    7  A    between atoms: C_6  and  C_8
REMARK    8  A    between atoms: C_9  and  C_10
REMARK    9  A    between atoms: C_11  and  C_12
REMARK   10  A    between atoms: C_12  and  O_13
REMARK   11  A    between atoms: C_12  and  C_14
REMARK                            x       y       z     vdW  Elec       q    Type
REMARK                         _______ _______ _______ _____ _____    ______ ____
ROOT
ATOM      1  C   UNL     1       5.811   4.257  15.655  0.00  0.00    +0.000 C 
ATOM      2  C   UNL     1       5.824   4.572  16.811  0.00  0.00    +0.000 C 
ENDROOT
BRANCH   1   4
ATOM      3  C   UNL     1       5.962   3.492  13.049  0.00  0.00    +0.000 C 
ATOM      4  C   UNL     1       5.868   3.841  14.191  0.00  0.00    +0.000 C 
BRANCH   3   5
ATOM      5  C   UNL     1       6.204   3.020  11.684  0.00  0.00    +0.000 C 
BRANCH   5   6
ATOM      6  O   UNL     1       7.355   2.182  11.677  0.00  0.00    +0.000 OA
ATOM      7  H   UNL     1       8.095   2.721  11.348  0.00  0.00    +0.000 HD
ENDBRANCH   5   6
BRANCH   5   8
ATOM      8  C   UNL     1       5.004   2.218  11.168  0.00  0.00    +0.000 C 
BRANCH   8   9
ATOM      9  C   UNL     1       3.688   2.987  11.311  0.00  0.00    +0.000 C 
BRANCH   9  10
ATOM     10  C   UNL     1       3.682   4.251  10.457  0.00  0.00    +0.000 C 
BRANCH  10  12
ATOM     11  C   UNL     1       2.007   5.160   8.821  0.00  0.00    +0.000 C 
ATOM     12  C   UNL     1       2.939   4.008   9.147  0.00  0.00    +0.000 C 
ENDBRANCH  10  12
ENDBRANCH   9  10
ENDBRANCH   8   9
ENDBRANCH   5   8
ENDBRANCH   3   5
ENDBRANCH   1   4
BRANCH   2  13
ATOM     13  C   UNL     1       5.954   4.914  18.228  0.00  0.00    +0.000 C 
BRANCH  13  14
ATOM     14  C   UNL     1       4.761   4.410  19.014  0.00  0.00    +0.000 A 
ATOM     15  C   UNL     1       4.505   3.031  19.157  0.00  0.00    +0.000 A 
ATOM     16  C   UNL     1       3.386   2.580  19.864  0.00  0.00    +0.000 A 
ATOM     17  C   UNL     1       2.510   3.501  20.433  0.00  0.00    +0.000 A 
ATOM     18 CL   UNL     1       1.138   2.934  21.305  0.00  0.00    +0.000 Cl
ATOM     19  C   UNL     1       2.748   4.865  20.287  0.00  0.00    +0.000 A 
ATOM     20  F   UNL     1       1.908   5.767  20.815  0.00  0.00    +0.000 F 
ATOM     21  C   UNL     1       3.860   5.322  19.585  0.00  0.00    +0.000 A 
ENDBRANCH  13  14
BRANCH  13  22
ATOM     22  O   UNL     1       7.147   4.349  18.760  0.00  0.00    +0.000 OA
ATOM     23  H   UNL     1       6.928   3.456  19.071  0.00  0.00    +0.000 HD
ENDBRANCH  13  22
ENDBRANCH   2  13
TORSDOF 10
ENDMDL
MODEL 2
REMARK VINA RESULT:      -7.2      5.193      7.515
REMARK  Name = 
REMARK  11 active torsions:
REMARK  status: ('A' for Active; 'I' for Inactive)
REMARK    1  A    between atoms: C_1  and  C_2
REMARK    2  A    between atoms: C_2  and  C_3
REMARK    3  A    between atoms: C_3  and  C_4
REMARK    4  A    between atoms: C_4  and  C_5
REMARK    5  A    between atoms: C_5  and  C_6
REMARK    6  A    between atoms: C_6  and  O_7
REMARK    7  A    between atoms: C_6  and  C_8
REMARK    8  A    between atoms: C_9  and  C_10
REMARK    9  A    between atoms: C_11  and  C_12
REMARK   10  A    between atoms: C_12  and  O_13
REMARK   11  A    between atoms: C_12  and  C_14
REMARK                            x       y       z     vdW  Elec       q    Type
REMARK                         _______ _______ _______ _____ _____    ______ ____
ROOT
ATOM      1  C   UNL     1       2.783   7.244  17.855  0.00  0.00    +0.000 C 
ATOM      2  C   UNL     1       2.205   8.293  17.873  0.00  0.00    +0.000 C 
ENDROOT
BRANCH   1   4
ATOM      3  C   UNL     1       3.965   4.794  17.819  0.00  0.00    +0.000 C 
ATOM      4  C   UNL     1       3.457   5.879  17.807  0.00  0.00    +0.000 C 
BRANCH   3   5
ATOM      5  C   UNL     1       4.534   3.452  17.960  0.00  0.00    +0.000 C 
BRANCH   5   6
ATOM      6  O   UNL     1       5.167   3.344  19.230  0.00  0.00    +0.000 OA
ATOM      7  H   UNL     1       4.568   2.833  19.802  0.00  0.00    +0.000 HD
ENDBRANCH   5   6
BRANCH   5   8
ATOM      8  C   UNL     1       3.437   2.387  17.860  0.00  0.00    +0.000 C 
BRANCH   8   9
ATOM      9  C   UNL     1       2.779   2.103  19.212  0.00  0.00    +0.000 C 
BRANCH   9  10
ATOM     10  C   UNL     1       1.356   2.650  19.270  0.00  0.00    +0.000 C 
BRANCH  10  12
ATOM     11  C   UNL     1       1.384   4.790  20.584  0.00  0.00    +0.000 C 
ATOM     12  C   UNL     1       1.089   3.302  20.624  0.00  0.00    +0.000 C 
ENDBRANCH  10  12
ENDBRANCH   9  10
ENDBRANCH   8   9
ENDBRANCH   5   8
ENDBRANCH   3   5
ENDBRANCH   1   4
BRANCH   2  13
ATOM     13  C   UNL     1       1.404   9.518  17.839  0.00  0.00    +0.000 C 
BRANCH  13  14
ATOM     14  C   UNL     1       0.769   9.781  19.189  0.00  0.00    +0.000 A 
ATOM     15  C   UNL     1      -0.255  10.737  19.347  0.00  0.00    +0.000 A 
ATOM     16  C   UNL     1      -0.815  10.987  20.603  0.00  0.00    +0.000 A 
ATOM     17  C   UNL     1      -0.357  10.285  21.716  0.00  0.00    +0.000 A 
ATOM     18 CL   UNL     1      -1.058  10.597  23.257  0.00  0.00    +0.000 Cl
ATOM     19  C   UNL     1       0.660   9.347  21.573  0.00  0.00    +0.000 A 
ATOM     20  F   UNL     1       1.125   8.672  22.634  0.00  0.00    +0.000 F 
ATOM     21  C   UNL     1       1.224   9.092  20.325  0.00  0.00    +0.000 A 
ENDBRANCH  13  14
BRANCH  13  22
ATOM     22  O   UNL     1       2.219  10.625  17.473  0.00  0.00    +0.000 OA
ATOM     23  H   UNL     1       2.437  10.523  16.533  0.00  0.00    +0.000 HD
ENDBRANCH  13  22
ENDBRANCH   2  13
TORSDOF 10
ENDMDL
MODEL 3
REMARK VINA RESULT:      -7.1      5.519      7.688
REMARK  Name = 
REMARK  11 active torsions:
REMARK  status: ('A' for Active; 'I' for Inactive)
REMARK    1  A    between atoms: C_1  and  C_2
REMARK    2  A    between atoms: C_2  and  C_3
REMARK    3  A    between atoms: C_3  and  C_4
REMARK    4  A    between atoms: C_4  and  C_5
REMARK    5  A    between atoms: C_5  and  C_6
REMARK    6  A    between atoms: C_6  and  O_7
REMARK    7  A    between atoms: C_6  and  C_8
REMARK    8  A    between atoms: C_9  and  C_10
REMARK    9  A    between atoms: C_11  and  C_12
REMARK   10  A    between atoms: C_12  and  O_13
REMARK   11  A    between atoms: C_12  and  C_14
REMARK                            x       y       z     vdW  Elec       q    Type
REMARK                         _______ _______ _______ _____ _____    ______ ____
ROOT
ATOM      1  C   UNL     1       2.640   7.098  18.113  0.00  0.00    +0.000 C 
ATOM      2  C   UNL     1       2.051   8.141  18.082  0.00  0.00    +0.000 C 
ENDROOT
BRANCH   1   4
ATOM      3  C   UNL     1       3.857   4.665  18.080  0.00  0.00    +0.000 C 
ATOM      4  C   UNL     1       3.349   5.750  18.096  0.00  0.00    +0.000 C 
BRANCH   3   5
ATOM      5  C   UNL     1       4.350   3.286  18.065  0.00  0.00    +0.000 C 
BRANCH   5   6
ATOM      6  O   UNL     1       5.277   3.109  19.130  0.00  0.00    +0.000 OA
ATOM      7  H   UNL     1       5.614   3.992  19.361  0.00  0.00    +0.000 HD
ENDBRANCH   5   6
BRANCH   5   8
ATOM      8  C   UNL     1       3.193   2.297  18.244  0.00  0.00    +0.000 C 
BRANCH   8   9
ATOM      9  C   UNL     1       1.828   2.955  18.025  0.00  0.00    +0.000 C 
BRANCH   9  10
ATOM     10  C   UNL     1       0.882   2.684  19.190  0.00  0.00    +0.000 C 
BRANCH  10  12
ATOM     11  C   UNL     1       1.823   3.428  21.398  0.00  0.00    +0.000 C 
ATOM     12  C   UNL     1       0.957   3.815  20.213  0.00  0.00    +0.000 C 
ENDBRANCH  10  12
ENDBRANCH   9  10
ENDBRANCH   8   9
ENDBRANCH   5   8
ENDBRANCH   3   5
ENDBRANCH   1   4
BRANCH   2  13
ATOM     13  C   UNL     1       1.278   9.376  17.940  0.00  0.00    +0.000 C 
BRANCH  13  14
ATOM     14  C   UNL     1       0.667   9.781  19.266  0.00  0.00    +0.000 A 
ATOM     15  C   UNL     1       0.990   9.106  20.460  0.00  0.00    +0.000 A 
ATOM     16  C   UNL     1       0.400   9.475  21.673  0.00  0.00    +0.000 A 
ATOM     17  C   UNL     1      -0.519  10.521  21.706  0.00  0.00    +0.000 A 
ATOM     18 CL   UNL     1      -1.235  10.969  23.205  0.00  0.00    +0.000 Cl
ATOM     19  C   UNL     1      -0.853  11.186  20.530  0.00  0.00    +0.000 A 
ATOM     20  F   UNL     1      -1.746  12.186  20.537  0.00  0.00    +0.000 F 
ATOM     21  C   UNL     1      -0.269  10.825  19.317  0.00  0.00    +0.000 A 
ENDBRANCH  13  14
BRANCH  13  22
ATOM     22  O   UNL     1       2.112  10.423  17.460  0.00  0.00    +0.000 OA
ATOM     23  H   UNL     1       2.347  10.976  18.223  0.00  0.00    +0.000 HD
ENDBRANCH  13  22
ENDBRANCH   2  13
TORSDOF 10
ENDMDL
MODEL 4
REMARK VINA RESULT:      -6.9      5.980      8.694
REMARK  Name = 
REMARK  11 active torsions:
REMARK  status: ('A' for Active; 'I' for Inactive)
REMARK    1  A    between atoms: C_1  and  C_2
REMARK    2  A    between atoms: C_2  and  C_3
REMARK    3  A    between atoms: C_3  and  C_4
REMARK    4  A    between atoms: C_4  and  C_5
REMARK    5  A    between atoms: C_5  and  C_6
REMARK    6  A    between atoms: C_6  and  O_7
REMARK    7  A    between atoms: C_6  and  C_8
REMARK    8  A    between atoms: C_9  and  C_10
REMARK    9  A    between atoms: C_11  and  C_12
REMARK   10  A    between atoms: C_12  and  O_13
REMARK   11  A    between atoms: C_12  and  C_14
REMARK                            x       y       z     vdW  Elec       q    Type
REMARK                         _______ _______ _______ _____ _____    ______ ____
ROOT
ATOM      1  C   UNL     1       7.997   7.663  18.027  0.00  0.00    +0.000 C 
ATOM      2  C   UNL     1       7.711   6.500  17.984  0.00  0.00    +0.000 C 
ENDROOT
BRANCH   1   4
ATOM      3  C   UNL     1       8.717  10.276  18.252  0.00  0.00    +0.000 C 
ATOM      4  C   UNL     1       8.370   9.134  18.155  0.00  0.00    +0.000 C 
BRANCH   3   5
ATOM      5  C   UNL     1       9.272  11.627  18.371  0.00  0.00    +0.000 C 
BRANCH   5   6
ATOM      6  O   UNL     1       9.195  12.046  19.729  0.00  0.00    +0.000 OA
ATOM      7  H   UNL     1       8.844  12.953  19.726  0.00  0.00    +0.000 HD
ENDBRANCH   5   6
BRANCH   5   8
ATOM      8  C   UNL     1      10.738  11.649  17.926  0.00  0.00    +0.000 C 
BRANCH   8   9
ATOM      9  C   UNL     1      11.070  12.882  17.082  0.00  0.00    +0.000 C 
BRANCH   9  10
ATOM     10  C   UNL     1      11.312  14.110  17.954  0.00  0.00    +0.000 C 
BRANCH  10  12
ATOM     11  C   UNL     1       9.405  15.482  18.845  0.00  0.00    +0.000 C 
ATOM     12  C   UNL     1      10.288  15.198  17.643  0.00  0.00    +0.000 C 
ENDBRANCH  10  12
ENDBRANCH   9  10
ENDBRANCH   8   9
ENDBRANCH   5   8
ENDBRANCH   3   5
ENDBRANCH   1   4
BRANCH   2  13
ATOM     13  C   UNL     1       7.391   5.073  18.051  0.00  0.00    +0.000 C 
BRANCH  13  14
ATOM     14  C   UNL     1       5.892   4.858  18.008  0.00  0.00    +0.000 A 
ATOM     15  C   UNL     1       5.279   4.160  16.947  0.00  0.00    +0.000 A 
ATOM     16  C   UNL     1       3.892   3.990  16.907  0.00  0.00    +0.000 A 
ATOM     17  C   UNL     1       3.101   4.517  17.926  0.00  0.00    +0.000 A 
ATOM     18 CL   UNL     1       1.395   4.297  17.870  0.00  0.00    +0.000 Cl
ATOM     19  C   UNL     1       3.695   5.217  18.972  0.00  0.00    +0.000 A 
ATOM     20  F   UNL     1       2.951   5.744  19.954  0.00  0.00    +0.000 F 
ATOM     21  C   UNL     1       5.077   5.391  19.019  0.00  0.00    +0.000 A 
ENDBRANCH  13  14
BRANCH  13  22
ATOM     22  O   UNL     1       8.001   4.384  16.967  0.00  0.00    +0.000 OA
ATOM     23  H   UNL     1       7.705   4.815  16.148  0.00  0.00    +0.000 HD
ENDBRANCH  13  22
ENDBRANCH   2  13
TORSDOF 10
ENDMDL
MODEL 5
REMARK VINA RESULT:      -6.9      6.041      8.787
REMARK  Name = 
REMARK  11 active torsions:
REMARK  status: ('A' for Active; 'I' for Inactive)
REMARK    1  A    between atoms: C_1  and  C_2
REMARK    2  A    between atoms: C_2  and  C_3
REMARK    3  A    between atoms: C_3  and  C_4
REMARK    4  A    between atoms: C_4  and  C_5
REMARK    5  A    between atoms: C_5  and  C_6
REMARK    6  A    between atoms: C_6  and  O_7
REMARK    7  A    between atoms: C_6  and  C_8
REMARK    8  A    between atoms: C_9  and  C_10
REMARK    9  A    between atoms: C_11  and  C_12
REMARK   10  A    between atoms: C_12  and  O_13
REMARK   11  A    between atoms: C_12  and  C_14
REMARK                            x       y       z     vdW  Elec       q    Type
REMARK                         _______ _______ _______ _____ _____    ______ ____
ROOT
ATOM      1  C   UNL     1       7.844   7.959  17.636  0.00  0.00    +0.000 C 
ATOM      2  C   UNL     1       7.467   6.897  17.230  0.00  0.00    +0.000 C 
ENDROOT
BRANCH   1   4
ATOM      3  C   UNL     1       8.857  10.289  18.608  0.00  0.00    +0.000 C 
ATOM      4  C   UNL     1       8.387   9.279  18.168  0.00  0.00    +0.000 C 
BRANCH   3   5
ATOM      5  C   UNL     1       9.530  11.445  19.205  0.00  0.00    +0.000 C 
BRANCH   5   6
ATOM      6  O   UNL     1       9.471  11.339  20.623  0.00  0.00    +0.000 OA
ATOM      7  H   UNL     1      10.296  10.911  20.909  0.00  0.00    +0.000 HD
ENDBRANCH   5   6
BRANCH   5   8
ATOM      8  C   UNL     1      10.999  11.498  18.772  0.00  0.00    +0.000 C 
BRANCH   8   9
ATOM      9  C   UNL     1      11.240  12.521  17.661  0.00  0.00    +0.000 C 
BRANCH   9  10
ATOM     10  C   UNL     1      10.157  13.595  17.643  0.00  0.00    +0.000 C 
BRANCH  10  12
ATOM     11  C   UNL     1      11.162  15.748  16.826  0.00  0.00    +0.000 C 
ATOM     12  C   UNL     1      10.739  14.948  18.044  0.00  0.00    +0.000 C 
ENDBRANCH  10  12
ENDBRANCH   9  10
ENDBRANCH   8   9
ENDBRANCH   5   8
ENDBRANCH   3   5
ENDBRANCH   1   4
BRANCH   2  13
ATOM     13  C   UNL     1       7.121   5.557  16.752  0.00  0.00    +0.000 C 
BRANCH  13  14
ATOM     14  C   UNL     1       5.682   5.223  17.088  0.00  0.00    +0.000 A 
ATOM     15  C   UNL     1       5.088   4.019  16.659  0.00  0.00    +0.000 A 
ATOM     16  C   UNL     1       3.752   3.734  16.955  0.00  0.00    +0.000 A 
ATOM     17  C   UNL     1       2.994   4.650  17.681  0.00  0.00    +0.000 A 
ATOM     18 CL   UNL     1       1.351   4.287  18.044  0.00  0.00    +0.000 Cl
ATOM     19  C   UNL     1       3.568   5.846  18.100  0.00  0.00    +0.000 A 
ATOM     20  F   UNL     1       2.852   6.747  18.787  0.00  0.00    +0.000 F 
ATOM     21  C   UNL     1       4.899   6.137  17.809  0.00  0.00    +0.000 A 
ENDBRANCH  13  14
BRANCH  13  22
ATOM     22  O   UNL     1       7.313   5.475  15.345  0.00  0.00    +0.000 OA
ATOM     23  H   UNL     1       6.957   4.620  15.056  0.00  0.00    +0.000 HD
ENDBRANCH  13  22
ENDBRANCH   2  13
TORSDOF 10
ENDMDL
MODEL 6
REMARK VINA RESULT:      -6.8      5.508      8.307
REMARK  Name = 
REMARK  11 active torsions:
REMARK  status: ('A' for Active; 'I' for Inactive)
REMARK    1  A    between atoms: C_1  and  C_2
REMARK    2  A    between atoms: C_2  and  C_3
REMARK    3  A    between atoms: C_3  and  C_4
REMARK    4  A    between atoms: C_4  and  C_5
REMARK    5  A    between atoms: C_5  and  C_6
REMARK    6  A    between atoms: C_6  and  O_7
REMARK    7  A    between atoms: C_6  and  C_8
REMARK    8  A    between atoms: C_9  and  C_10
REMARK    9  A    between atoms: C_11  and  C_12
REMARK   10  A    between atoms: C_12  and  O_13
REMARK   11  A    between atoms: C_12  and  C_14
REMARK                            x       y       z     vdW  Elec       q    Type
REMARK                         _______ _______ _______ _____ _____    ______ ____
ROOT
ATOM      1  C   UNL     1       7.407   7.062  17.463  0.00  0.00    +0.000 C 
ATOM      2  C   UNL     1       6.898   6.013  17.187  0.00  0.00    +0.000 C 
ENDROOT
BRANCH   1   4
ATOM      3  C   UNL     1       8.483   9.436  18.242  0.00  0.00    +0.000 C 
ATOM      4  C   UNL     1       8.009   8.401  17.870  0.00  0.00    +0.000 C 
BRANCH   3   5
ATOM      5  C   UNL     1       9.055  10.651  18.827  0.00  0.00    +0.000 C 
BRANCH   5   6
ATOM      6  O   UNL     1       9.553  10.355  20.127  0.00  0.00    +0.000 OA
ATOM      7  H   UNL     1      10.071   9.535  20.050  0.00  0.00    +0.000 HD
ENDBRANCH   5   6
BRANCH   5   8
ATOM      8  C   UNL     1      10.206  11.176  17.962  0.00  0.00    +0.000 C 
BRANCH   8   9
ATOM      9  C   UNL     1      11.396  11.645  18.802  0.00  0.00    +0.000 C 
BRANCH   9  10
ATOM     10  C   UNL     1      12.193  12.732  18.088  0.00  0.00    +0.000 C 
BRANCH  10  12
ATOM     11  C   UNL     1      11.141  14.702  16.937  0.00  0.00    +0.000 C 
ATOM     12  C   UNL     1      11.444  13.218  16.849  0.00  0.00    +0.000 C 
ENDBRANCH  10  12
ENDBRANCH   9  10
ENDBRANCH   8   9
ENDBRANCH   5   8
ENDBRANCH   3   5
ENDBRANCH   1   4
BRANCH   2  13
ATOM     13  C   UNL     1       6.209   4.742  16.954  0.00  0.00    +0.000 C 
BRANCH  13  14
ATOM     14  C   UNL     1       4.940   4.662  17.777  0.00  0.00    +0.000 A 
ATOM     15  C   UNL     1       3.886   5.580  17.593  0.00  0.00    +0.000 A 
ATOM     16  C   UNL     1       2.730   5.510  18.377  0.00  0.00    +0.000 A 
ATOM     17  C   UNL     1       2.615   4.523  19.353  0.00  0.00    +0.000 A 
ATOM     18 CL   UNL     1       1.185   4.443  20.308  0.00  0.00    +0.000 Cl
ATOM     19  C   UNL     1       3.655   3.619  19.550  0.00  0.00    +0.000 A 
ATOM     20  F   UNL     1       3.570   2.672  20.494  0.00  0.00    +0.000 F 
ATOM     21  C   UNL     1       4.810   3.682  18.773  0.00  0.00    +0.000 A 
ENDBRANCH  13  14
BRANCH  13  22
ATOM     22  O   UNL     1       5.892   4.604  15.575  0.00  0.00    +0.000 OA
ATOM     23  H   UNL     1       5.616   3.684  15.433  0.00  0.00    +0.000 HD
ENDBRANCH  13  22
ENDBRANCH   2  13
TORSDOF 10
ENDMDL
MODEL 7
REMARK VINA RESULT:      -6.8      5.301      8.837
REMARK  Name = 
REMARK  11 active torsions:
REMARK  status: ('A' for Active; 'I' for Inactive)
REMARK    1  A    between atoms: C_1  and  C_2
REMARK    2  A    between atoms: C_2  and  C_3
REMARK    3  A    between atoms: C_3  and  C_4
REMARK    4  A    between atoms: C_4  and  C_5
REMARK    5  A    between atoms: C_5  and  C_6
REMARK    6  A    between atoms: C_6  and  O_7
REMARK    7  A    between atoms: C_6  and  C_8
REMARK    8  A    between atoms: C_9  and  C_10
REMARK    9  A    between atoms: C_11  and  C_12
REMARK   10  A    between atoms: C_12  and  O_13
REMARK   11  A    between atoms: C_12  and  C_14
REMARK                            x       y       z     vdW  Elec       q    Type
REMARK                         _______ _______ _______ _____ _____    ______ ____
ROOT
ATOM      1  C   UNL     1       8.003   7.712  18.048  0.00  0.00    +0.000 C 
ATOM      2  C   UNL     1       7.695   6.555  18.088  0.00  0.00    +0.000 C 
ENDROOT
BRANCH   1   4
ATOM      3  C   UNL     1       8.812  10.308  18.076  0.00  0.00    +0.000 C 
ATOM      4  C   UNL     1       8.426   9.175  18.062  0.00  0.00    +0.000 C 
BRANCH   3   5
ATOM      5  C   UNL     1       9.412  11.645  18.107  0.00  0.00    +0.000 C 
BRANCH   5   6
ATOM      6  O   UNL     1       8.381  12.616  18.241  0.00  0.00    +0.000 OA
ATOM      7  H   UNL     1       7.542  12.169  18.035  0.00  0.00    +0.000 HD
ENDBRANCH   5   6
BRANCH   5   8
ATOM      8  C   UNL     1      10.376  11.777  19.291  0.00  0.00    +0.000 C 
BRANCH   8   9
ATOM      9  C   UNL     1       9.804  11.173  20.575  0.00  0.00    +0.000 C 
BRANCH   9  10
ATOM     10  C   UNL     1       9.400  12.254  21.572  0.00  0.00    +0.000 C 
BRANCH  10  12
ATOM     11  C   UNL     1       7.341  12.930  22.843  0.00  0.00    +0.000 C 
ATOM     12  C   UNL     1       8.239  11.775  22.440  0.00  0.00    +0.000 C 
ENDBRANCH  10  12
ENDBRANCH   9  10
ENDBRANCH   8   9
ENDBRANCH   5   8
ENDBRANCH   3   5
ENDBRANCH   1   4
BRANCH   2  13
ATOM     13  C   UNL     1       7.386   5.131  18.241  0.00  0.00    +0.000 C 
BRANCH  13  14
ATOM     14  C   UNL     1       5.893   4.895  18.147  0.00  0.00    +0.000 A 
ATOM     15  C   UNL     1       5.312   4.307  17.005  0.00  0.00    +0.000 A 
ATOM     16  C   UNL     1       3.929   4.117  16.920  0.00  0.00    +0.000 A 
ATOM     17  C   UNL     1       3.111   4.514  17.976  0.00  0.00    +0.000 A 
ATOM     18 CL   UNL     1       1.411   4.270  17.864  0.00  0.00    +0.000 Cl
ATOM     19  C   UNL     1       3.674   5.105  19.104  0.00  0.00    +0.000 A 
ATOM     20  F   UNL     1       2.903   5.507  20.124  0.00  0.00    +0.000 F 
ATOM     21  C   UNL     1       5.051   5.298  19.195  0.00  0.00    +0.000 A 
ENDBRANCH  13  14
BRANCH  13  22
ATOM     22  O   UNL     1       8.051   4.376  17.236  0.00  0.00    +0.000 OA
ATOM     23  H   UNL     1       7.713   3.468  17.287  0.00  0.00    +0.000 HD
ENDBRANCH  13  22
ENDBRANCH   2  13
TORSDOF 10
ENDMDL
MODEL 8
REMARK VINA RESULT:      -6.8      5.786      8.888
REMARK  Name = 
REMARK  11 active torsions:
REMARK  status: ('A' for Active; 'I' for Inactive)
REMARK    1  A    between atoms: C_1  and  C_2
REMARK    2  A    between atoms: C_2  and  C_3
REMARK    3  A    between atoms: C_3  and  C_4
REMARK    4  A    between atoms: C_4  and  C_5
REMARK    5  A    between atoms: C_5  and  C_6
REMARK    6  A    between atoms: C_6  and  O_7
REMARK    7  A    between atoms: C_6  and  C_8
REMARK    8  A    between atoms: C_9  and  C_10
REMARK    9  A    between atoms: C_11  and  C_12
REMARK   10  A    between atoms: C_12  and  O_13
REMARK   11  A    between atoms: C_12  and  C_14
REMARK                            x       y       z     vdW  Elec       q    Type
REMARK                         _______ _______ _______ _____ _____    ______ ____
ROOT
ATOM      1  C   UNL     1       7.612   7.431  17.419  0.00  0.00    +0.000 C 
ATOM      2  C   UNL     1       7.079   6.492  16.900  0.00  0.00    +0.000 C 
ENDROOT
BRANCH   1   4
ATOM      3  C   UNL     1       8.744   9.658  18.495  0.00  0.00    +0.000 C 
ATOM      4  C   UNL     1       8.274   8.665  18.019  0.00  0.00    +0.000 C 
BRANCH   3   5
ATOM      5  C   UNL     1       9.191  10.927  19.076  0.00  0.00    +0.000 C 
BRANCH   5   6
ATOM      6  O   UNL     1       9.380  10.758  20.476  0.00  0.00    +0.000 OA
ATOM      7  H   UNL     1       9.062   9.867  20.699  0.00  0.00    +0.000 HD
ENDBRANCH   5   6
BRANCH   5   8
ATOM      8  C   UNL     1      10.515  11.371  18.446  0.00  0.00    +0.000 C 
BRANCH   8   9
ATOM      9  C   UNL     1      11.598  11.635  19.495  0.00  0.00    +0.000 C 
BRANCH   9  10
ATOM     10  C   UNL     1      12.221  13.016  19.323  0.00  0.00    +0.000 C 
BRANCH  10  12
ATOM     11  C   UNL     1      10.741  15.016  18.976  0.00  0.00    +0.000 C 
ATOM     12  C   UNL     1      11.359  14.080  19.998  0.00  0.00    +0.000 C 
ENDBRANCH  10  12
ENDBRANCH   9  10
ENDBRANCH   8   9
ENDBRANCH   5   8
ENDBRANCH   3   5
ENDBRANCH   1   4
BRANCH   2  13
ATOM     13  C   UNL     1       6.395   5.420  16.174  0.00  0.00    +0.000 C 
BRANCH  13  14
ATOM     14  C   UNL     1       5.108   5.036  16.874  0.00  0.00    +0.000 A 
ATOM     15  C   UNL     1       4.755   3.686  17.076  0.00  0.00    +0.000 A 
ATOM     16  C   UNL     1       3.552   3.345  17.701  0.00  0.00    +0.000 A 
ATOM     17  C   UNL     1       2.686   4.349  18.130  0.00  0.00    +0.000 A 
ATOM     18 CL   UNL     1       1.210   3.919  18.903  0.00  0.00    +0.000 Cl
ATOM     19  C   UNL     1       3.020   5.685  17.925  0.00  0.00    +0.000 A 
ATOM     20  F   UNL     1       2.195   6.666  18.316  0.00  0.00    +0.000 F 
ATOM     21  C   UNL     1       4.218   6.032  17.303  0.00  0.00    +0.000 A 
ENDBRANCH  13  14
BRANCH  13  22
ATOM     22  O   UNL     1       6.109   5.835  14.845  0.00  0.00    +0.000 OA
ATOM     23  H   UNL     1       6.055   5.035  14.298  0.00  0.00    +0.000 HD
ENDBRANCH  13  22
ENDBRANCH   2  13
TORSDOF 10
ENDMDL
MODEL 9
REMARK VINA RESULT:      -6.8      6.156      9.001
REMARK  Name = 
REMARK  11 active torsions:
REMARK  status: ('A' for Active; 'I' for Inactive)
REMARK    1  A    between atoms: C_1  and  C_2
REMARK    2  A    between atoms: C_2  and  C_3
REMARK    3  A    between atoms: C_3  and  C_4
REMARK    4  A    between atoms: C_4  and  C_5
REMARK    5  A    between atoms: C_5  and  C_6
REMARK    6  A    between atoms: C_6  and  O_7
REMARK    7  A    between atoms: C_6  and  C_8
REMARK    8  A    between atoms: C_9  and  C_10
REMARK    9  A    between atoms: C_11  and  C_12
REMARK   10  A    between atoms: C_12  and  O_13
REMARK   11  A    between atoms: C_12  and  C_14
REMARK                            x       y       z     vdW  Elec       q    Type
REMARK                         _______ _______ _______ _____ _____    ______ ____
ROOT
ATOM      1  C   UNL     1       7.787   7.819  17.737  0.00  0.00    +0.000 C 
ATOM      2  C   UNL     1       7.329   6.775  17.369  0.00  0.00    +0.000 C 
ENDROOT
BRANCH   1   4
ATOM      3  C   UNL     1       8.897  10.200  18.439  0.00  0.00    +0.000 C 
ATOM      4  C   UNL     1       8.380   9.164  18.134  0.00  0.00    +0.000 C 
BRANCH   3   5
ATOM      5  C   UNL     1       9.652  11.404  18.796  0.00  0.00    +0.000 C 
BRANCH   5   6
ATOM      6  O   UNL     1      10.174  11.255  20.112  0.00  0.00    +0.000 OA
ATOM      7  H   UNL     1      10.916  11.877  20.194  0.00  0.00    +0.000 HD
ENDBRANCH   5   6
BRANCH   5   8
ATOM      8  C   UNL     1      10.815  11.621  17.823  0.00  0.00    +0.000 C 
BRANCH   8   9
ATOM      9  C   UNL     1      10.798  13.020  17.201  0.00  0.00    +0.000 C 
BRANCH   9  10
ATOM     10  C   UNL     1      10.563  14.098  18.253  0.00  0.00    +0.000 C 
BRANCH  10  12
ATOM     11  C   UNL     1      12.196  15.872  18.958  0.00  0.00    +0.000 C 
ATOM     12  C   UNL     1      11.853  14.395  19.013  0.00  0.00    +0.000 C 
ENDBRANCH  10  12
ENDBRANCH   9  10
ENDBRANCH   8   9
ENDBRANCH   5   8
ENDBRANCH   3   5
ENDBRANCH   1   4
BRANCH   2  13
ATOM     13  C   UNL     1       6.780   5.541  16.803  0.00  0.00    +0.000 C 
BRANCH  13  14
ATOM     14  C   UNL     1       5.486   5.164  17.495  0.00  0.00    +0.000 A 
ATOM     15  C   UNL     1       5.257   5.481  18.849  0.00  0.00    +0.000 A 
ATOM     16  C   UNL     1       4.068   5.105  19.482  0.00  0.00    +0.000 A 
ATOM     17  C   UNL     1       3.096   4.408  18.770  0.00  0.00    +0.000 A 
ATOM     18 CL   UNL     1       1.634   3.956  19.557  0.00  0.00    +0.000 Cl
ATOM     19  C   UNL     1       3.316   4.081  17.435  0.00  0.00    +0.000 A 
ATOM     20  F   UNL     1       2.399   3.398  16.736  0.00  0.00    +0.000 F 
ATOM     21  C   UNL     1       4.498   4.452  16.797  0.00  0.00    +0.000 A 
ENDBRANCH  13  14
BRANCH  13  22
ATOM     22  O   UNL     1       6.545   5.704  15.410  0.00  0.00    +0.000 OA
ATOM     23  H   UNL     1       6.220   4.854  15.072  0.00  0.00    +0.000 HD
ENDBRANCH  13  22
ENDBRANCH   2  13
TORSDOF 10
ENDMDL
