MODEL 1
REMARK VINA RESULT:     -10.3      0.000      0.000
REMARK  Name = 
REMARK  7 active torsions:
REMARK  status: ('A' for Active; 'I' for Inactive)
REMARK    1  A    between atoms: N_1  and  C_2
REMARK    2  A    between atoms: C_5  and  C_6
REMARK    3  A    between atoms: C_12  and  C_13
REMARK    4  A    between atoms: C_20  and  C_21
REMARK    5  A    between atoms: N_23  and  C_24
REMARK    6  A    between atoms: C_29  and  N_30
REMARK    7  A    between atoms: C_33  and  N_34
REMARK                            x       y       z     vdW  Elec       q    Type
REMARK                         _______ _______ _______ _____ _____    ______ ____
ROOT
ATOM      1  C   UNL     1       2.073   6.909  20.293  0.00  0.00    +0.000 A 
ATOM      2  N   UNL     1       1.190   7.388  21.198  0.00  0.00    +0.000 NA
ATOM      3  C   UNL     1       0.640   8.600  20.925  0.00  0.00    +0.000 A 
ATOM      4  C   UNL     1       0.939   9.358  19.793  0.00  0.00    +0.000 A 
ATOM      5  N   UNL     1       1.816   8.874  18.879  0.00  0.00    +0.000 NA
ATOM      6  C   UNL     1       2.368   7.645  19.143  0.00  0.00    +0.000 A 
ENDROOT
BRANCH   4   7
ATOM      7  C   UNL     1       0.373  10.699  19.562  0.00  0.00    +0.000 A 
ATOM      8  C   UNL     1       0.842  11.849  20.246  0.00  0.00    +0.000 A 
ATOM      9  C   UNL     1       0.377  13.129  19.952  0.00  0.00    +0.000 A 
ATOM     10  C   UNL     1      -0.590  13.330  18.972  0.00  0.00    +0.000 A 
ATOM     11  C   UNL     1      -1.087  12.202  18.315  0.00  0.00    +0.000 A 
ATOM     12  N   UNL     1      -2.037  12.122  17.320  0.00  0.00    +0.000 N 
ATOM     13  C   UNL     1      -2.225  10.819  16.939  0.00  0.00    +0.000 A 
ATOM     14  C   UNL     1      -1.376  10.049  17.704  0.00  0.00    +0.000 A 
ATOM     15  C   UNL     1      -0.643  10.904  18.585  0.00  0.00    +0.000 A 
ATOM     16  H   UNL     1      -2.517  12.919  16.919  0.00  0.00    +0.000 HD
BRANCH  13  17
ATOM     17  C   UNL     1      -3.184  10.445  15.879  0.00  0.00    +0.000 C 
ATOM     18  F   UNL     1      -3.231   9.097  15.704  0.00  0.00    +0.000 F 
ATOM     19  F   UNL     1      -4.443  10.851  16.169  0.00  0.00    +0.000 F 
ATOM     20  F   UNL     1      -2.849  10.987  14.682  0.00  0.00    +0.000 F 
ENDBRANCH  13  17
ENDBRANCH   4   7
BRANCH   6  21
ATOM     21  C   UNL     1       3.284   7.122  18.077  0.00  0.00    +0.000 C 
ATOM     22  O   UNL     1       3.253   7.602  16.952  0.00  0.00    +0.000 OA
ATOM     23  N   UNL     1       4.105   6.093  18.521  0.00  0.00    +0.000 N 
ATOM     24  H   UNL     1       3.591   5.435  19.089  0.00  0.00    +0.000 HD
BRANCH  23  25
ATOM     25  C   UNL     1       4.980   5.441  17.640  0.00  0.00    +0.000 A 
ATOM     26  N   UNL     1       5.966   6.253  17.181  0.00  0.00    +0.000 NA
ATOM     27  C   UNL     1       6.885   5.699  16.371  0.00  0.00    +0.000 A 
ATOM     28  C   UNL     1       6.836   4.387  15.948  0.00  0.00    +0.000 A 
ATOM     29  C   UNL     1       5.761   3.600  16.366  0.00  0.00    +0.000 A 
ATOM     30  C   UNL     1       4.761   4.099  17.221  0.00  0.00    +0.000 A 
BRANCH  30  31
ATOM     31  N   UNL     1       3.643   3.323  17.522  0.00  0.00    +0.000 N 
ATOM     32  C   UNL     1       3.693   2.244  18.514  0.00  0.00    +0.000 C 
ATOM     33  C   UNL     1       2.764   2.560  19.685  0.00  0.00    +0.000 C 
ATOM     34  C   UNL     1       1.345   2.878  19.215  0.00  0.00    +0.000 C 
ATOM     35  C   UNL     1       1.346   3.966  18.137  0.00  0.00    +0.000 C 
ATOM     36  C   UNL     1       2.302   3.613  16.996  0.00  0.00    +0.000 C 
BRANCH  34  37
ATOM     37  N   UNL     1       0.519   3.298  20.355  0.00  0.00    +0.000 NA
ATOM     38  H   UNL     1       0.786   4.244  20.631  0.00  0.00    +0.000 HD
ATOM     39  H   UNL     1       0.734   2.713  21.163  0.00  0.00    +0.000 HD
ENDBRANCH  34  37
ENDBRANCH  30  31
ENDBRANCH  23  25
ENDBRANCH   6  21
BRANCH   1  40
ATOM     40  N   UNL     1       2.720   5.745  20.685  0.00  0.00    +0.000 N 
ATOM     41  H   UNL     1       3.716   5.931  20.758  0.00  0.00    +0.000 HD
ATOM     42  H   UNL     1       2.309   5.336  21.523  0.00  0.00    +0.000 HD
ENDBRANCH   1  40
TORSDOF 7
ENDMDL
MODEL 2
REMARK VINA RESULT:      -9.4      4.181      9.369
REMARK  Name = 
REMARK  7 active torsions:
REMARK  status: ('A' for Active; 'I' for Inactive)
REMARK    1  A    between atoms: N_1  and  C_2
REMARK    2  A    between atoms: C_5  and  C_6
REMARK    3  A    between atoms: C_12  and  C_13
REMARK    4  A    between atoms: C_20  and  C_21
REMARK    5  A    between atoms: N_23  and  C_24
REMARK    6  A    between atoms: C_29  and  N_30
REMARK    7  A    between atoms: C_33  and  N_34
REMARK                            x       y       z     vdW  Elec       q    Type
REMARK                         _______ _______ _______ _____ _____    ______ ____
ROOT
ATOM      1  C   UNL     1       1.759   9.953  18.324  0.00  0.00    +0.000 A 
ATOM      2  N   UNL     1       2.330   9.132  17.414  0.00  0.00    +0.000 NA
ATOM      3  C   UNL     1       2.609   7.870  17.828  0.00  0.00    +0.000 A 
ATOM      4  C   UNL     1       2.350   7.392  19.112  0.00  0.00    +0.000 A 
ATOM      5  N   UNL     1       1.767   8.210  20.023  0.00  0.00    +0.000 NA
ATOM      6  C   UNL     1       1.473   9.485  19.608  0.00  0.00    +0.000 A 
ENDROOT
BRANCH   4   7
ATOM      7  C   UNL     1       2.727   6.034  19.547  0.00  0.00    +0.000 A 
ATOM      8  C   UNL     1       1.895   5.247  20.381  0.00  0.00    +0.000 A 
ATOM      9  C   UNL     1       2.205   3.927  20.706  0.00  0.00    +0.000 A 
ATOM     10  C   UNL     1       3.367   3.329  20.229  0.00  0.00    +0.000 A 
ATOM     11  C   UNL     1       4.213   4.104  19.434  0.00  0.00    +0.000 A 
ATOM     12  N   UNL     1       5.410   3.762  18.843  0.00  0.00    +0.000 N 
ATOM     13  C   UNL     1       5.914   4.818  18.131  0.00  0.00    +0.000 A 
ATOM     14  C   UNL     1       5.022   5.858  18.267  0.00  0.00    +0.000 A 
ATOM     15  C   UNL     1       3.933   5.430  19.089  0.00  0.00    +0.000 A 
ATOM     16  H   UNL     1       5.846   2.849  18.916  0.00  0.00    +0.000 HD
BRANCH  13  17
ATOM     17  C   UNL     1       7.187   4.722  17.387  0.00  0.00    +0.000 C 
ATOM     18  F   UNL     1       7.630   5.949  17.000  0.00  0.00    +0.000 F 
ATOM     19  F   UNL     1       8.170   4.164  18.134  0.00  0.00    +0.000 F 
ATOM     20  F   UNL     1       7.059   3.975  16.263  0.00  0.00    +0.000 F 
ENDBRANCH  13  17
ENDBRANCH   4   7
BRANCH   6  21
ATOM     21  C   UNL     1       0.774  10.336  20.628  0.00  0.00    +0.000 C 
ATOM     22  O   UNL     1       1.402  10.813  21.562  0.00  0.00    +0.000 OA
ATOM     23  N   UNL     1      -0.583  10.486  20.373  0.00  0.00    +0.000 N 
ATOM     24  H   UNL     1      -1.002   9.609  20.098  0.00  0.00    +0.000 HD
BRANCH  23  25
ATOM     25  C   UNL     1      -1.406  11.196  21.258  0.00  0.00    +0.000 A 
ATOM     26  N   UNL     1      -1.183  10.873  22.558  0.00  0.00    +0.000 NA
ATOM     27  C   UNL     1      -1.891  11.544  23.484  0.00  0.00    +0.000 A 
ATOM     28  C   UNL     1      -2.853  12.482  23.175  0.00  0.00    +0.000 A 
ATOM     29  C   UNL     1      -3.122  12.731  21.826  0.00  0.00    +0.000 A 
ATOM     30  C   UNL     1      -2.422  12.079  20.796  0.00  0.00    +0.000 A 
BRANCH  30  31
ATOM     31  N   UNL     1      -2.797  12.263  19.466  0.00  0.00    +0.000 N 
ATOM     32  C   UNL     1      -1.810  12.505  18.408  0.00  0.00    +0.000 C 
ATOM     33  C   UNL     1      -1.831  11.363  17.394  0.00  0.00    +0.000 C 
ATOM     34  C   UNL     1      -3.238  11.109  16.855  0.00  0.00    +0.000 C 
ATOM     35  C   UNL     1      -4.246  10.922  17.993  0.00  0.00    +0.000 C 
ATOM     36  C   UNL     1      -4.175  12.081  18.990  0.00  0.00    +0.000 C 
BRANCH  34  37
ATOM     37  N   UNL     1      -3.237   9.926  15.983  0.00  0.00    +0.000 NA
ATOM     38  H   UNL     1      -3.428  10.218  15.023  0.00  0.00    +0.000 HD
ATOM     39  H   UNL     1      -4.013   9.316  16.238  0.00  0.00    +0.000 HD
ENDBRANCH  34  37
ENDBRANCH  30  31
ENDBRANCH  23  25
ENDBRANCH   6  21
BRANCH   1  40
ATOM     40  N   UNL     1       1.631  11.272  17.907  0.00  0.00    +0.000 N 
ATOM     41  H   UNL     1       0.647  11.524  17.912  0.00  0.00    +0.000 HD
ATOM     42  H   UNL     1       2.228  11.905  18.437  0.00  0.00    +0.000 HD
ENDBRANCH   1  40
TORSDOF 7
ENDMDL
MODEL 3
REMARK VINA RESULT:      -9.3      4.369     10.036
REMARK  Name = 
REMARK  7 active torsions:
REMARK  status: ('A' for Active; 'I' for Inactive)
REMARK    1  A    between atoms: N_1  and  C_2
REMARK    2  A    between atoms: C_5  and  C_6
REMARK    3  A    between atoms: C_12  and  C_13
REMARK    4  A    between atoms: C_20  and  C_21
REMARK    5  A    between atoms: N_23  and  C_24
REMARK    6  A    between atoms: C_29  and  N_30
REMARK    7  A    between atoms: C_33  and  N_34
REMARK                            x       y       z     vdW  Elec       q    Type
REMARK                         _______ _______ _______ _____ _____    ______ ____
ROOT
ATOM      1  C   UNL     1       1.570   9.711  18.527  0.00  0.00    +0.000 A 
ATOM      2  N   UNL     1       1.976   8.881  17.539  0.00  0.00    +0.000 NA
ATOM      3  C   UNL     1       2.318   7.620  17.911  0.00  0.00    +0.000 A 
ATOM      4  C   UNL     1       2.281   7.153  19.224  0.00  0.00    +0.000 A 
ATOM      5  N   UNL     1       1.864   7.981  20.214  0.00  0.00    +0.000 NA
ATOM      6  C   UNL     1       1.506   9.254  19.845  0.00  0.00    +0.000 A 
ENDROOT
BRANCH   4   7
ATOM      7  C   UNL     1       2.723   5.798  19.600  0.00  0.00    +0.000 A 
ATOM      8  C   UNL     1       1.936   4.940  20.408  0.00  0.00    +0.000 A 
ATOM      9  C   UNL     1       2.308   3.624  20.676  0.00  0.00    +0.000 A 
ATOM     10  C   UNL     1       3.491   3.099  20.165  0.00  0.00    +0.000 A 
ATOM     11  C   UNL     1       4.294   3.944  19.396  0.00  0.00    +0.000 A 
ATOM     12  N   UNL     1       5.499   3.681  18.782  0.00  0.00    +0.000 N 
ATOM     13  C   UNL     1       5.948   4.787  18.111  0.00  0.00    +0.000 A 
ATOM     14  C   UNL     1       5.011   5.779  18.296  0.00  0.00    +0.000 A 
ATOM     15  C   UNL     1       3.951   5.269  19.108  0.00  0.00    +0.000 A 
ATOM     16  H   UNL     1       5.977   2.787  18.814  0.00  0.00    +0.000 HD
BRANCH  13  17
ATOM     17  C   UNL     1       7.217   4.780  17.353  0.00  0.00    +0.000 C 
ATOM     18  F   UNL     1       7.611   6.042  17.031  0.00  0.00    +0.000 F 
ATOM     19  F   UNL     1       8.226   4.219  18.061  0.00  0.00    +0.000 F 
ATOM     20  F   UNL     1       7.106   4.092  16.190  0.00  0.00    +0.000 F 
ENDBRANCH  13  17
ENDBRANCH   4   7
BRANCH   6  21
ATOM     21  C   UNL     1       0.993  10.115  20.961  0.00  0.00    +0.000 C 
ATOM     22  O   UNL     1       1.446   9.989  22.091  0.00  0.00    +0.000 OA
ATOM     23  N   UNL     1       0.007  11.004  20.554  0.00  0.00    +0.000 N 
ATOM     24  H   UNL     1      -0.657  10.555  19.938  0.00  0.00    +0.000 HD
BRANCH  23  25
ATOM     25  C   UNL     1      -0.632  11.841  21.480  0.00  0.00    +0.000 A 
ATOM     26  N   UNL     1      -1.549  11.186  22.237  0.00  0.00    +0.000 NA
ATOM     27  C   UNL     1      -2.174  11.899  23.191  0.00  0.00    +0.000 A 
ATOM     28  C   UNL     1      -1.974  13.249  23.387  0.00  0.00    +0.000 A 
ATOM     29  C   UNL     1      -1.090  13.915  22.534  0.00  0.00    +0.000 A 
ATOM     30  C   UNL     1      -0.388  13.243  21.518  0.00  0.00    +0.000 A 
BRANCH  30  31
ATOM     31  N   UNL     1       0.394  13.959  20.612  0.00  0.00    +0.000 N 
ATOM     32  C   UNL     1      -0.112  14.349  19.292  0.00  0.00    +0.000 C 
ATOM     33  C   UNL     1      -0.171  15.871  19.177  0.00  0.00    +0.000 C 
ATOM     34  C   UNL     1       1.168  16.519  19.523  0.00  0.00    +0.000 C 
ATOM     35  C   UNL     1       1.687  16.037  20.881  0.00  0.00    +0.000 C 
ATOM     36  C   UNL     1       1.712  14.509  20.952  0.00  0.00    +0.000 C 
BRANCH  34  37
ATOM     37  N   UNL     1       1.034  17.982  19.524  0.00  0.00    +0.000 NA
ATOM     38  H   UNL     1       0.667  18.284  20.428  0.00  0.00    +0.000 HD
ATOM     39  H   UNL     1       0.327  18.259  18.842  0.00  0.00    +0.000 HD
ENDBRANCH  34  37
ENDBRANCH  30  31
ENDBRANCH  23  25
ENDBRANCH   6  21
BRANCH   1  40
ATOM     40  N   UNL     1       1.376  11.026  18.127  0.00  0.00    +0.000 N 
ATOM     41  H   UNL     1       1.157  11.039  17.135  0.00  0.00    +0.000 HD
ATOM     42  H   UNL     1       0.698  11.513  18.711  0.00  0.00    +0.000 HD
ENDBRANCH   1  40
TORSDOF 7
ENDMDL
MODEL 4
REMARK VINA RESULT:      -9.2      4.263      9.605
REMARK  Name = 
REMARK  7 active torsions:
REMARK  status: ('A' for Active; 'I' for Inactive)
REMARK    1  A    between atoms: N_1  and  C_2
REMARK    2  A    between atoms: C_5  and  C_6
REMARK    3  A    between atoms: C_12  and  C_13
REMARK    4  A    between atoms: C_20  and  C_21
REMARK    5  A    between atoms: N_23  and  C_24
REMARK    6  A    between atoms: C_29  and  N_30
REMARK    7  A    between atoms: C_33  and  N_34
REMARK                            x       y       z     vdW  Elec       q    Type
REMARK                         _______ _______ _______ _____ _____    ______ ____
ROOT
ATOM      1  C   UNL     1       1.460   9.765  18.670  0.00  0.00    +0.000 A 
ATOM      2  N   UNL     1       1.895   8.964  17.671  0.00  0.00    +0.000 NA
ATOM      3  C   UNL     1       2.268   7.707  18.022  0.00  0.00    +0.000 A 
ATOM      4  C   UNL     1       2.234   7.216  19.327  0.00  0.00    +0.000 A 
ATOM      5  N   UNL     1       1.789   8.014  20.328  0.00  0.00    +0.000 NA
ATOM      6  C   UNL     1       1.400   9.284  19.979  0.00  0.00    +0.000 A 
ENDROOT
BRANCH   4   7
ATOM      7  C   UNL     1       2.710   5.867  19.682  0.00  0.00    +0.000 A 
ATOM      8  C   UNL     1       1.970   4.998  20.522  0.00  0.00    +0.000 A 
ATOM      9  C   UNL     1       2.371   3.687  20.772  0.00  0.00    +0.000 A 
ATOM     10  C   UNL     1       3.538   3.178  20.211  0.00  0.00    +0.000 A 
ATOM     11  C   UNL     1       4.296   4.034  19.409  0.00  0.00    +0.000 A 
ATOM     12  N   UNL     1       5.477   3.787  18.744  0.00  0.00    +0.000 N 
ATOM     13  C   UNL     1       5.882   4.899  18.055  0.00  0.00    +0.000 A 
ATOM     14  C   UNL     1       4.940   5.879  18.281  0.00  0.00    +0.000 A 
ATOM     15  C   UNL     1       3.923   5.354  19.137  0.00  0.00    +0.000 A 
ATOM     16  H   UNL     1       5.967   2.899  18.755  0.00  0.00    +0.000 HD
BRANCH  13  17
ATOM     17  C   UNL     1       7.117   4.909  17.243  0.00  0.00    +0.000 C 
ATOM     18  F   UNL     1       8.156   4.341  17.912  0.00  0.00    +0.000 F 
ATOM     19  F   UNL     1       6.968   4.222  16.086  0.00  0.00    +0.000 F 
ATOM     20  F   UNL     1       7.497   6.170  16.920  0.00  0.00    +0.000 F 
ENDBRANCH  13  17
ENDBRANCH   4   7
BRANCH   6  21
ATOM     21  C   UNL     1       0.856  10.111  21.106  0.00  0.00    +0.000 C 
ATOM     22  O   UNL     1       1.145   9.836  22.263  0.00  0.00    +0.000 OA
ATOM     23  N   UNL     1       0.040  11.149  20.676  0.00  0.00    +0.000 N 
ATOM     24  H   UNL     1      -0.589  10.841  19.948  0.00  0.00    +0.000 HD
BRANCH  23  25
ATOM     25  C   UNL     1      -0.606  11.985  21.598  0.00  0.00    +0.000 A 
ATOM     26  N   UNL     1      -1.632  11.368  22.238  0.00  0.00    +0.000 NA
ATOM     27  C   UNL     1      -2.278  12.076  23.181  0.00  0.00    +0.000 A 
ATOM     28  C   UNL     1      -1.988  13.392  23.477  0.00  0.00    +0.000 A 
ATOM     29  C   UNL     1      -0.985  14.028  22.741  0.00  0.00    +0.000 A 
ATOM     30  C   UNL     1      -0.256  13.356  21.743  0.00  0.00    +0.000 A 
BRANCH  30  31
ATOM     31  N   UNL     1       0.654  14.053  20.949  0.00  0.00    +0.000 N 
ATOM     32  C   UNL     1       2.086  14.091  21.263  0.00  0.00    +0.000 C 
ATOM     33  C   UNL     1       2.889  13.421  20.150  0.00  0.00    +0.000 C 
ATOM     34  C   UNL     1       2.559  14.008  18.779  0.00  0.00    +0.000 C 
ATOM     35  C   UNL     1       1.050  14.003  18.519  0.00  0.00    +0.000 C 
ATOM     36  C   UNL     1       0.289  14.670  19.667  0.00  0.00    +0.000 C 
BRANCH  34  37
ATOM     37  N   UNL     1       3.255  13.253  17.727  0.00  0.00    +0.000 NA
ATOM     38  H   UNL     1       3.529  13.894  16.981  0.00  0.00    +0.000 HD
ATOM     39  H   UNL     1       2.603  12.599  17.293  0.00  0.00    +0.000 HD
ENDBRANCH  34  37
ENDBRANCH  30  31
ENDBRANCH  23  25
ENDBRANCH   6  21
BRANCH   1  40
ATOM     40  N   UNL     1       1.234  11.082  18.291  0.00  0.00    +0.000 N 
ATOM     41  H   UNL     1       0.827  11.091  17.360  0.00  0.00    +0.000 HD
ATOM     42  H   UNL     1       0.697  11.599  18.986  0.00  0.00    +0.000 HD
ENDBRANCH   1  40
TORSDOF 7
ENDMDL
MODEL 5
REMARK VINA RESULT:      -9.1      0.956      1.169
REMARK  Name = 
REMARK  7 active torsions:
REMARK  status: ('A' for Active; 'I' for Inactive)
REMARK    1  A    between atoms: N_1  and  C_2
REMARK    2  A    between atoms: C_5  and  C_6
REMARK    3  A    between atoms: C_12  and  C_13
REMARK    4  A    between atoms: C_20  and  C_21
REMARK    5  A    between atoms: N_23  and  C_24
REMARK    6  A    between atoms: C_29  and  N_30
REMARK    7  A    between atoms: C_33  and  N_34
REMARK                            x       y       z     vdW  Elec       q    Type
REMARK                         _______ _______ _______ _____ _____    ______ ____
ROOT
ATOM      1  C   UNL     1       1.604   6.670  20.857  0.00  0.00    +0.000 A 
ATOM      2  N   UNL     1       0.571   7.331  21.427  0.00  0.00    +0.000 NA
ATOM      3  C   UNL     1       0.301   8.569  20.939  0.00  0.00    +0.000 A 
ATOM      4  C   UNL     1       1.022   9.180  19.912  0.00  0.00    +0.000 A 
ATOM      5  N   UNL     1       2.051   8.514  19.333  0.00  0.00    +0.000 NA
ATOM      6  C   UNL     1       2.322   7.258  19.814  0.00  0.00    +0.000 A 
ENDROOT
BRANCH   4   7
ATOM      7  C   UNL     1       0.742  10.552  19.452  0.00  0.00    +0.000 A 
ATOM      8  C   UNL     1       1.546  11.657  19.828  0.00  0.00    +0.000 A 
ATOM      9  C   UNL     1       1.342  12.935  19.310  0.00  0.00    +0.000 A 
ATOM     10  C   UNL     1       0.316  13.181  18.403  0.00  0.00    +0.000 A 
ATOM     11  C   UNL     1      -0.506  12.109  18.051  0.00  0.00    +0.000 A 
ATOM     12  N   UNL     1      -1.580  12.082  17.187  0.00  0.00    +0.000 N 
ATOM     13  C   UNL     1      -2.104  10.818  17.113  0.00  0.00    +0.000 A 
ATOM     14  C   UNL     1      -1.350  10.019  17.944  0.00  0.00    +0.000 A 
ATOM     15  C   UNL     1      -0.329  10.815  18.550  0.00  0.00    +0.000 A 
ATOM     16  H   UNL     1      -1.921  12.884  16.670  0.00  0.00    +0.000 HD
BRANCH  13  17
ATOM     17  C   UNL     1      -3.260  10.501  16.249  0.00  0.00    +0.000 C 
ATOM     18  F   UNL     1      -3.348  11.361  15.199  0.00  0.00    +0.000 F 
ATOM     19  F   UNL     1      -3.179   9.252  15.733  0.00  0.00    +0.000 F 
ATOM     20  F   UNL     1      -4.433  10.584  16.926  0.00  0.00    +0.000 F 
ENDBRANCH  13  17
ENDBRANCH   4   7
BRANCH   6  21
ATOM     21  C   UNL     1       3.428   6.534  19.103  0.00  0.00    +0.000 C 
ATOM     22  O   UNL     1       4.432   6.195  19.714  0.00  0.00    +0.000 OA
ATOM     23  N   UNL     1       3.162   6.323  17.756  0.00  0.00    +0.000 N 
ATOM     24  H   UNL     1       2.765   7.148  17.329  0.00  0.00    +0.000 HD
BRANCH  23  25
ATOM     25  C   UNL     1       4.114   5.718  16.922  0.00  0.00    +0.000 A 
ATOM     26  N   UNL     1       4.872   6.620  16.248  0.00  0.00    +0.000 NA
ATOM     27  C   UNL     1       5.848   6.131  15.463  0.00  0.00    +0.000 A 
ATOM     28  C   UNL     1       6.068   4.783  15.271  0.00  0.00    +0.000 A 
ATOM     29  C   UNL     1       5.215   3.879  15.909  0.00  0.00    +0.000 A 
ATOM     30  C   UNL     1       4.175   4.307  16.754  0.00  0.00    +0.000 A 
BRANCH  30  31
ATOM     31  N   UNL     1       3.272   3.383  17.278  0.00  0.00    +0.000 N 
ATOM     32  C   UNL     1       3.704   2.285  18.149  0.00  0.00    +0.000 C 
ATOM     33  C   UNL     1       3.086   2.436  19.537  0.00  0.00    +0.000 C 
ATOM     34  C   UNL     1       1.567   2.586  19.470  0.00  0.00    +0.000 C 
ATOM     35  C   UNL     1       1.160   3.704  18.504  0.00  0.00    +0.000 C 
ATOM     36  C   UNL     1       1.816   3.517  17.134  0.00  0.00    +0.000 C 
BRANCH  34  37
ATOM     37  N   UNL     1       1.028   2.856  20.810  0.00  0.00    +0.000 NA
ATOM     38  H   UNL     1       0.024   3.031  20.737  0.00  0.00    +0.000 HD
ATOM     39  H   UNL     1       1.426   3.724  21.167  0.00  0.00    +0.000 HD
ENDBRANCH  34  37
ENDBRANCH  30  31
ENDBRANCH  23  25
ENDBRANCH   6  21
BRANCH   1  40
ATOM     40  N   UNL     1       1.938   5.478  21.486  0.00  0.00    +0.000 N 
ATOM     41  H   UNL     1       1.177   5.206  22.102  0.00  0.00    +0.000 HD
ATOM     42  H   UNL     1       2.217   4.755  20.823  0.00  0.00    +0.000 HD
ENDBRANCH   1  40
TORSDOF 7
ENDMDL
MODEL 6
REMARK VINA RESULT:      -8.9      4.079      9.312
REMARK  Name = 
REMARK  7 active torsions:
REMARK  status: ('A' for Active; 'I' for Inactive)
REMARK    1  A    between atoms: N_1  and  C_2
REMARK    2  A    between atoms: C_5  and  C_6
REMARK    3  A    between atoms: C_12  and  C_13
REMARK    4  A    between atoms: C_20  and  C_21
REMARK    5  A    between atoms: N_23  and  C_24
REMARK    6  A    between atoms: C_29  and  N_30
REMARK    7  A    between atoms: C_33  and  N_34
REMARK                            x       y       z     vdW  Elec       q    Type
REMARK                         _______ _______ _______ _____ _____    ______ ____
ROOT
ATOM      1  C   UNL     1       1.793  10.077  18.225  0.00  0.00    +0.000 A 
ATOM      2  N   UNL     1       2.673   9.369  17.480  0.00  0.00    +0.000 NA
ATOM      3  C   UNL     1       2.930   8.101  17.891  0.00  0.00    +0.000 A 
ATOM      4  C   UNL     1       2.355   7.510  19.016  0.00  0.00    +0.000 A 
ATOM      5  N   UNL     1       1.465   8.214  19.756  0.00  0.00    +0.000 NA
ATOM      6  C   UNL     1       1.192   9.494  19.341  0.00  0.00    +0.000 A 
ENDROOT
BRANCH   4   7
ATOM      7  C   UNL     1       2.709   6.152  19.469  0.00  0.00    +0.000 A 
ATOM      8  C   UNL     1       1.869   5.396  20.324  0.00  0.00    +0.000 A 
ATOM      9  C   UNL     1       2.155   4.076  20.668  0.00  0.00    +0.000 A 
ATOM     10  C   UNL     1       3.301   3.446  20.191  0.00  0.00    +0.000 A 
ATOM     11  C   UNL     1       4.156   4.192  19.377  0.00  0.00    +0.000 A 
ATOM     12  N   UNL     1       5.340   3.815  18.781  0.00  0.00    +0.000 N 
ATOM     13  C   UNL     1       5.859   4.849  18.047  0.00  0.00    +0.000 A 
ATOM     14  C   UNL     1       4.988   5.909  18.174  0.00  0.00    +0.000 A 
ATOM     15  C   UNL     1       3.899   5.517  19.011  0.00  0.00    +0.000 A 
ATOM     16  H   UNL     1       5.758   2.895  18.866  0.00  0.00    +0.000 HD
BRANCH  13  17
ATOM     17  C   UNL     1       7.123   4.716  17.294  0.00  0.00    +0.000 C 
ATOM     18  F   UNL     1       8.116   4.209  18.073  0.00  0.00    +0.000 F 
ATOM     19  F   UNL     1       6.993   3.888  16.230  0.00  0.00    +0.000 F 
ATOM     20  F   UNL     1       7.559   5.912  16.826  0.00  0.00    +0.000 F 
ENDBRANCH  13  17
ENDBRANCH   4   7
BRANCH   6  21
ATOM     21  C   UNL     1       0.156  10.214  20.154  0.00  0.00    +0.000 C 
ATOM     22  O   UNL     1      -0.049   9.887  21.315  0.00  0.00    +0.000 OA
ATOM     23  N   UNL     1      -0.485  11.224  19.448  0.00  0.00    +0.000 N 
ATOM     24  H   UNL     1      -0.720  10.923  18.513  0.00  0.00    +0.000 HD
BRANCH  23  25
ATOM     25  C   UNL     1      -1.527  11.959  20.031  0.00  0.00    +0.000 A 
ATOM     26  N   UNL     1      -1.132  12.649  21.131  0.00  0.00    +0.000 NA
ATOM     27  C   UNL     1      -2.054  13.426  21.727  0.00  0.00    +0.000 A 
ATOM     28  C   UNL     1      -3.367  13.504  21.314  0.00  0.00    +0.000 A 
ATOM     29  C   UNL     1      -3.766  12.714  20.232  0.00  0.00    +0.000 A 
ATOM     30  C   UNL     1      -2.863  11.880  19.548  0.00  0.00    +0.000 A 
BRANCH  30  31
ATOM     31  N   UNL     1      -3.320  11.019  18.551  0.00  0.00    +0.000 N 
ATOM     32  C   UNL     1      -4.525  11.310  17.768  0.00  0.00    +0.000 C 
ATOM     33  C   UNL     1      -4.166  11.493  16.295  0.00  0.00    +0.000 C 
ATOM     34  C   UNL     1      -3.370  10.308  15.752  0.00  0.00    +0.000 C 
ATOM     35  C   UNL     1      -2.155  10.002  16.634  0.00  0.00    +0.000 C 
ATOM     36  C   UNL     1      -2.563   9.843  18.100  0.00  0.00    +0.000 C 
BRANCH  34  37
ATOM     37  N   UNL     1      -2.938  10.580  14.374  0.00  0.00    +0.000 NA
ATOM     38  H   UNL     1      -3.025   9.725  13.822  0.00  0.00    +0.000 HD
ATOM     39  H   UNL     1      -1.942  10.802  14.369  0.00  0.00    +0.000 HD
ENDBRANCH  34  37
ENDBRANCH  30  31
ENDBRANCH  23  25
ENDBRANCH   6  21
BRANCH   1  40
ATOM     40  N   UNL     1       1.676  11.411  17.858  0.00  0.00    +0.000 N 
ATOM     41  H   UNL     1       1.185  11.466  16.970  0.00  0.00    +0.000 HD
ATOM     42  H   UNL     1       1.267  11.981  18.597  0.00  0.00    +0.000 HD
ENDBRANCH   1  40
TORSDOF 7
ENDMDL
MODEL 7
REMARK VINA RESULT:      -8.8      1.995      3.867
REMARK  Name = 
REMARK  7 active torsions:
REMARK  status: ('A' for Active; 'I' for Inactive)
REMARK    1  A    between atoms: N_1  and  C_2
REMARK    2  A    between atoms: C_5  and  C_6
REMARK    3  A    between atoms: C_12  and  C_13
REMARK    4  A    between atoms: C_20  and  C_21
REMARK    5  A    between atoms: N_23  and  C_24
REMARK    6  A    between atoms: C_29  and  N_30
REMARK    7  A    between atoms: C_33  and  N_34
REMARK                            x       y       z     vdW  Elec       q    Type
REMARK                         _______ _______ _______ _____ _____    ______ ____
ROOT
ATOM      1  C   UNL     1       2.139   9.139  18.318  0.00  0.00    +0.000 A 
ATOM      2  N   UNL     1       1.896  10.357  17.784  0.00  0.00    +0.000 NA
ATOM      3  C   UNL     1       0.967  11.120  18.417  0.00  0.00    +0.000 A 
ATOM      4  C   UNL     1       0.266  10.718  19.553  0.00  0.00    +0.000 A 
ATOM      5  N   UNL     1       0.517   9.501  20.095  0.00  0.00    +0.000 NA
ATOM      6  C   UNL     1       1.462   8.728  19.467  0.00  0.00    +0.000 A 
ENDROOT
BRANCH   4   7
ATOM      7  C   UNL     1      -0.783  11.546  20.175  0.00  0.00    +0.000 A 
ATOM      8  C   UNL     1      -0.569  12.266  21.376  0.00  0.00    +0.000 A 
ATOM      9  C   UNL     1      -1.526  13.129  21.906  0.00  0.00    +0.000 A 
ATOM     10  C   UNL     1      -2.754  13.307  21.275  0.00  0.00    +0.000 A 
ATOM     11  C   UNL     1      -2.993  12.576  20.110  0.00  0.00    +0.000 A 
ATOM     12  N   UNL     1      -4.109  12.565  19.302  0.00  0.00    +0.000 N 
ATOM     13  C   UNL     1      -3.928  11.714  18.243  0.00  0.00    +0.000 A 
ATOM     14  C   UNL     1      -2.668  11.171  18.374  0.00  0.00    +0.000 A 
ATOM     15  C   UNL     1      -2.054  11.703  19.550  0.00  0.00    +0.000 A 
ATOM     16  H   UNL     1      -4.941  13.120  19.464  0.00  0.00    +0.000 HD
BRANCH  13  17
ATOM     17  C   UNL     1      -4.967  11.516  17.212  0.00  0.00    +0.000 C 
ATOM     18  F   UNL     1      -4.478  10.843  16.136  0.00  0.00    +0.000 F 
ATOM     19  F   UNL     1      -6.017  10.802  17.682  0.00  0.00    +0.000 F 
ATOM     20  F   UNL     1      -5.453  12.696  16.752  0.00  0.00    +0.000 F 
ENDBRANCH  13  17
ENDBRANCH   4   7
BRANCH   6  21
ATOM     21  C   UNL     1       1.752   7.417  20.136  0.00  0.00    +0.000 C 
ATOM     22  O   UNL     1       1.988   7.380  21.336  0.00  0.00    +0.000 OA
ATOM     23  N   UNL     1       1.717   6.339  19.261  0.00  0.00    +0.000 N 
ATOM     24  H   UNL     1       2.185   6.559  18.392  0.00  0.00    +0.000 HD
BRANCH  23  25
ATOM     25  C   UNL     1       2.028   5.045  19.701  0.00  0.00    +0.000 A 
ATOM     26  N   UNL     1       1.109   4.550  20.570  0.00  0.00    +0.000 NA
ATOM     27  C   UNL     1       1.297   3.292  21.005  0.00  0.00    +0.000 A 
ATOM     28  C   UNL     1       2.389   2.522  20.663  0.00  0.00    +0.000 A 
ATOM     29  C   UNL     1       3.363   3.090  19.837  0.00  0.00    +0.000 A 
ATOM     30  C   UNL     1       3.239   4.396  19.331  0.00  0.00    +0.000 A 
BRANCH  30  31
ATOM     31  N   UNL     1       4.284   4.972  18.609  0.00  0.00    +0.000 N 
ATOM     32  C   UNL     1       5.313   5.792  19.257  0.00  0.00    +0.000 C 
ATOM     33  C   UNL     1       6.682   5.127  19.119  0.00  0.00    +0.000 C 
ATOM     34  C   UNL     1       7.008   4.793  17.665  0.00  0.00    +0.000 C 
ATOM     35  C   UNL     1       5.879   3.989  17.011  0.00  0.00    +0.000 C 
ATOM     36  C   UNL     1       4.529   4.686  17.190  0.00  0.00    +0.000 C 
BRANCH  34  37
ATOM     37  N   UNL     1       8.270   4.044  17.590  0.00  0.00    +0.000 NA
ATOM     38  H   UNL     1       8.231   3.258  18.241  0.00  0.00    +0.000 HD
ATOM     39  H   UNL     1       9.033   4.632  17.925  0.00  0.00    +0.000 HD
ENDBRANCH  34  37
ENDBRANCH  30  31
ENDBRANCH  23  25
ENDBRANCH   6  21
BRANCH   1  40
ATOM     40  N   UNL     1       2.980   8.338  17.556  0.00  0.00    +0.000 N 
ATOM     41  H   UNL     1       3.849   8.837  17.390  0.00  0.00    +0.000 HD
ATOM     42  H   UNL     1       3.103   7.410  17.960  0.00  0.00    +0.000 HD
ENDBRANCH   1  40
TORSDOF 7
ENDMDL
MODEL 8
REMARK VINA RESULT:      -8.6      2.822      3.418
REMARK  Name = 
REMARK  7 active torsions:
REMARK  status: ('A' for Active; 'I' for Inactive)
REMARK    1  A    between atoms: N_1  and  C_2
REMARK    2  A    between atoms: C_5  and  C_6
REMARK    3  A    between atoms: C_12  and  C_13
REMARK    4  A    between atoms: C_20  and  C_21
REMARK    5  A    between atoms: N_23  and  C_24
REMARK    6  A    between atoms: C_29  and  N_30
REMARK    7  A    between atoms: C_33  and  N_34
REMARK                            x       y       z     vdW  Elec       q    Type
REMARK                         _______ _______ _______ _____ _____    ______ ____
ROOT
ATOM      1  C   UNL     1       2.092   7.182  20.108  0.00  0.00    +0.000 A 
ATOM      2  N   UNL     1       1.210   7.666  21.012  0.00  0.00    +0.000 NA
ATOM      3  C   UNL     1       0.583   8.826  20.684  0.00  0.00    +0.000 A 
ATOM      4  C   UNL     1       0.804   9.528  19.500  0.00  0.00    +0.000 A 
ATOM      5  N   UNL     1       1.680   9.038  18.588  0.00  0.00    +0.000 NA
ATOM      6  C   UNL     1       2.309   7.860  18.907  0.00  0.00    +0.000 A 
ENDROOT
BRANCH   4   7
ATOM      7  C   UNL     1       0.155  10.819  19.208  0.00  0.00    +0.000 A 
ATOM      8  C   UNL     1      -1.249  10.995  19.278  0.00  0.00    +0.000 A 
ATOM      9  C   UNL     1      -1.851  12.240  19.102  0.00  0.00    +0.000 A 
ATOM     10  C   UNL     1      -1.086  13.371  18.832  0.00  0.00    +0.000 A 
ATOM     11  C   UNL     1       0.296  13.206  18.725  0.00  0.00    +0.000 A 
ATOM     12  N   UNL     1       1.269  14.147  18.466  0.00  0.00    +0.000 N 
ATOM     13  C   UNL     1       2.510  13.566  18.461  0.00  0.00    +0.000 A 
ATOM     14  C   UNL     1       2.329  12.226  18.723  0.00  0.00    +0.000 A 
ATOM     15  C   UNL     1       0.933  11.972  18.896  0.00  0.00    +0.000 A 
ATOM     16  H   UNL     1       1.088  15.133  18.316  0.00  0.00    +0.000 HD
BRANCH  13  17
ATOM     17  C   UNL     1       3.738  14.350  18.218  0.00  0.00    +0.000 C 
ATOM     18  F   UNL     1       3.551  15.279  17.242  0.00  0.00    +0.000 F 
ATOM     19  F   UNL     1       4.142  15.015  19.326  0.00  0.00    +0.000 F 
ATOM     20  F   UNL     1       4.768  13.562  17.821  0.00  0.00    +0.000 F 
ENDBRANCH  13  17
ENDBRANCH   4   7
BRANCH   6  21
ATOM     21  C   UNL     1       3.222   7.324  17.844  0.00  0.00    +0.000 C 
ATOM     22  O   UNL     1       3.182   7.785  16.712  0.00  0.00    +0.000 OA
ATOM     23  N   UNL     1       4.050   6.306  18.300  0.00  0.00    +0.000 N 
ATOM     24  H   UNL     1       3.542   5.655  18.882  0.00  0.00    +0.000 HD
BRANCH  23  25
ATOM     25  C   UNL     1       4.923   5.644  17.425  0.00  0.00    +0.000 A 
ATOM     26  N   UNL     1       5.849   6.473  16.878  0.00  0.00    +0.000 NA
ATOM     27  C   UNL     1       6.763   5.914  16.066  0.00  0.00    +0.000 A 
ATOM     28  C   UNL     1       6.765   4.578  15.725  0.00  0.00    +0.000 A 
ATOM     29  C   UNL     1       5.747   3.767  16.234  0.00  0.00    +0.000 A 
ATOM     30  C   UNL     1       4.757   4.270  17.097  0.00  0.00    +0.000 A 
BRANCH  30  31
ATOM     31  N   UNL     1       3.691   3.461  17.489  0.00  0.00    +0.000 N 
ATOM     32  C   UNL     1       3.822   2.476  18.568  0.00  0.00    +0.000 C 
ATOM     33  C   UNL     1       2.898   2.839  19.729  0.00  0.00    +0.000 C 
ATOM     34  C   UNL     1       1.455   3.035  19.268  0.00  0.00    +0.000 C 
ATOM     35  C   UNL     1       1.373   4.024  18.101  0.00  0.00    +0.000 C 
ATOM     36  C   UNL     1       2.326   3.628  16.972  0.00  0.00    +0.000 C 
BRANCH  34  37
ATOM     37  N   UNL     1       0.628   3.505  20.387  0.00  0.00    +0.000 NA
ATOM     38  H   UNL     1       0.964   4.420  20.691  0.00  0.00    +0.000 HD
ATOM     39  H   UNL     1       0.762   2.889  21.190  0.00  0.00    +0.000 HD
ENDBRANCH  34  37
ENDBRANCH  30  31
ENDBRANCH  23  25
ENDBRANCH   6  21
BRANCH   1  40
ATOM     40  N   UNL     1       2.816   6.082  20.547  0.00  0.00    +0.000 N 
ATOM     41  H   UNL     1       2.743   5.342  19.854  0.00  0.00    +0.000 HD
ATOM     42  H   UNL     1       3.773   6.324  20.800  0.00  0.00    +0.000 HD
ENDBRANCH   1  40
TORSDOF 7
ENDMDL
MODEL 9
REMARK VINA RESULT:      -8.6      4.483      9.877
REMARK  Name = 
REMARK  7 active torsions:
REMARK  status: ('A' for Active; 'I' for Inactive)
REMARK    1  A    between atoms: N_1  and  C_2
REMARK    2  A    between atoms: C_5  and  C_6
REMARK    3  A    between atoms: C_12  and  C_13
REMARK    4  A    between atoms: C_20  and  C_21
REMARK    5  A    between atoms: N_23  and  C_24
REMARK    6  A    between atoms: C_29  and  N_30
REMARK    7  A    between atoms: C_33  and  N_34
REMARK                            x       y       z     vdW  Elec       q    Type
REMARK                         _______ _______ _______ _____ _____    ______ ____
ROOT
ATOM      1  C   UNL     1      -0.028  10.050  22.138  0.00  0.00    +0.000 A 
ATOM      2  N   UNL     1       0.591   8.943  22.609  0.00  0.00    +0.000 NA
ATOM      3  C   UNL     1       1.294   8.212  21.705  0.00  0.00    +0.000 A 
ATOM      4  C   UNL     1       1.399   8.532  20.352  0.00  0.00    +0.000 A 
ATOM      5  N   UNL     1       0.788   9.647  19.881  0.00  0.00    +0.000 NA
ATOM      6  C   UNL     1       0.085  10.396  20.790  0.00  0.00    +0.000 A 
ENDROOT
BRANCH   4   7
ATOM      7  C   UNL     1       2.116   7.679  19.387  0.00  0.00    +0.000 A 
ATOM      8  C   UNL     1       2.778   8.208  18.251  0.00  0.00    +0.000 A 
ATOM      9  C   UNL     1       3.541   7.413  17.398  0.00  0.00    +0.000 A 
ATOM     10  C   UNL     1       3.671   6.046  17.623  0.00  0.00    +0.000 A 
ATOM     11  C   UNL     1       2.995   5.504  18.718  0.00  0.00    +0.000 A 
ATOM     12  N   UNL     1       2.955   4.199  19.159  0.00  0.00    +0.000 N 
ATOM     13  C   UNL     1       2.183   4.096  20.286  0.00  0.00    +0.000 A 
ATOM     14  C   UNL     1       1.720   5.362  20.574  0.00  0.00    +0.000 A 
ATOM     15  C   UNL     1       2.223   6.273  19.595  0.00  0.00    +0.000 A 
ATOM     16  H   UNL     1       3.443   3.429  18.716  0.00  0.00    +0.000 HD
BRANCH  13  17
ATOM     17  C   UNL     1       1.976   2.807  20.977  0.00  0.00    +0.000 C 
ATOM     18  F   UNL     1       1.694   1.810  20.095  0.00  0.00    +0.000 F 
ATOM     19  F   UNL     1       3.073   2.422  21.671  0.00  0.00    +0.000 F 
ATOM     20  F   UNL     1       0.942   2.864  21.852  0.00  0.00    +0.000 F 
ENDBRANCH  13  17
ENDBRANCH   4   7
BRANCH   6  21
ATOM     21  C   UNL     1      -0.522  11.653  20.239  0.00  0.00    +0.000 C 
ATOM     22  O   UNL     1      -1.438  11.587  19.430  0.00  0.00    +0.000 OA
ATOM     23  N   UNL     1       0.063  12.807  20.741  0.00  0.00    +0.000 N 
ATOM     24  H   UNL     1       1.070  12.723  20.770  0.00  0.00    +0.000 HD
BRANCH  23  25
ATOM     25  C   UNL     1      -0.336  14.072  20.287  0.00  0.00    +0.000 A 
ATOM     26  N   UNL     1       0.442  14.538  19.277  0.00  0.00    +0.000 NA
ATOM     27  C   UNL     1       0.101  15.723  18.740  0.00  0.00    +0.000 A 
ATOM     28  C   UNL     1      -0.944  16.495  19.201  0.00  0.00    +0.000 A 
ATOM     29  C   UNL     1      -1.673  16.031  20.299  0.00  0.00    +0.000 A 
ATOM     30  C   UNL     1      -1.387  14.798  20.914  0.00  0.00    +0.000 A 
BRANCH  30  31
ATOM     31  N   UNL     1      -2.056  14.422  22.078  0.00  0.00    +0.000 N 
ATOM     32  C   UNL     1      -1.532  14.742  23.410  0.00  0.00    +0.000 C 
ATOM     33  C   UNL     1      -2.491  15.675  24.145  0.00  0.00    +0.000 C 
ATOM     34  C   UNL     1      -3.913  15.117  24.178  0.00  0.00    +0.000 C 
ATOM     35  C   UNL     1      -4.397  14.741  22.774  0.00  0.00    +0.000 C 
ATOM     36  C   UNL     1      -3.395  13.820  22.073  0.00  0.00    +0.000 C 
BRANCH  34  37
ATOM     37  N   UNL     1      -4.826  16.099  24.779  0.00  0.00    +0.000 NA
ATOM     38  H   UNL     1      -4.439  16.414  25.670  0.00  0.00    +0.000 HD
ATOM     39  H   UNL     1      -5.707  15.642  25.016  0.00  0.00    +0.000 HD
ENDBRANCH  34  37
ENDBRANCH  30  31
ENDBRANCH  23  25
ENDBRANCH   6  21
BRANCH   1  40
ATOM     40  N   UNL     1      -0.854  10.680  23.059  0.00  0.00    +0.000 N 
ATOM     41  H   UNL     1      -1.439  11.352  22.571  0.00  0.00    +0.000 HD
ATOM     42  H   UNL     1      -1.372  10.016  23.633  0.00  0.00    +0.000 HD
ENDBRANCH   1  40
TORSDOF 7
ENDMDL
