MODEL 1
REMARK VINA RESULT:      -8.1      0.000      0.000
REMARK  Name = 
REMARK  3 active torsions:
REMARK  status: ('A' for Active; 'I' for Inactive)
REMARK    1  A    between atoms: C_1  and  N_2
REMARK    2  A    between atoms: C_14  and  C_16
REMARK    3  A    between atoms: C_19  and  O_20
REMARK                            x       y       z     vdW  Elec       q    Type
REMARK                         _______ _______ _______ _____ _____    ______ ____
ROOT
ATOM      1  C   UNL     1       2.206   8.740  17.409  0.00  0.00    +0.000 C 
ATOM      2  N   UNL     1       1.941   8.120  18.689  0.00  0.00    +0.000 N 
ATOM      3  C   UNL     1       2.153   6.808  19.029  0.00  0.00    +0.000 A 
ATOM      4  C   UNL     1       1.869   6.673  20.378  0.00  0.00    +0.000 A 
ATOM      5  C   UNL     1       1.396   7.921  20.858  0.00  0.00    +0.000 A 
ATOM      6  C   UNL     1       0.932   8.379  22.107  0.00  0.00    +0.000 A 
ATOM      7  C   UNL     1       0.515   9.709  22.245  0.00  0.00    +0.000 A 
ATOM      8  C   UNL     1       0.566  10.582  21.164  0.00  0.00    +0.000 A 
ATOM      9  C   UNL     1       1.035  10.154  19.918  0.00  0.00    +0.000 A 
ATOM     10  C   UNL     1       1.442   8.815  19.782  0.00  0.00    +0.000 A 
ATOM     11  C   UNL     1       2.082   5.383  21.106  0.00  0.00    +0.000 C 
ATOM     12  C   UNL     1       2.320   4.233  20.108  0.00  0.00    +0.000 C 
ATOM     13  N   UNL     1       3.185   4.654  18.988  0.00  0.00    +0.000 N 
ATOM     14  C   UNL     1       4.418   4.022  18.831  0.00  0.00    +0.000 C 
ATOM     15  O   UNL     1       4.763   3.074  19.540  0.00  0.00    +0.000 OA
ATOM     16  C   UNL     1       2.589   5.691  18.129  0.00  0.00    +0.000 C 
ENDROOT
BRANCH  14  17
ATOM     17  C   UNL     1       5.379   4.438  17.772  0.00  0.00    +0.000 A 
ATOM     18  C   UNL     1       6.393   5.376  17.990  0.00  0.00    +0.000 A 
ATOM     19  C   UNL     1       7.222   5.780  16.939  0.00  0.00    +0.000 A 
ATOM     20  C   UNL     1       7.094   5.174  15.694  0.00  0.00    +0.000 A 
ATOM     21  C   UNL     1       6.163   4.165  15.487  0.00  0.00    +0.000 A 
ATOM     22  C   UNL     1       5.301   3.799  16.524  0.00  0.00    +0.000 A 
BRANCH  20  23
ATOM     23  O   UNL     1       7.883   5.537  14.643  0.00  0.00    +0.000 OA
ATOM     24  H   UNL     1       7.911   4.807  14.003  0.00  0.00    +0.000 HD
ENDBRANCH  20  23
ENDBRANCH  14  17
TORSDOF 2
ENDMDL
MODEL 2
REMARK VINA RESULT:      -7.9      0.217      1.024
REMARK  Name = 
REMARK  3 active torsions:
REMARK  status: ('A' for Active; 'I' for Inactive)
REMARK    1  A    between atoms: C_1  and  N_2
REMARK    2  A    between atoms: C_14  and  C_16
REMARK    3  A    between atoms: C_19  and  O_20
REMARK                            x       y       z     vdW  Elec       q    Type
REMARK                         _______ _______ _______ _____ _____    ______ ____
ROOT
ATOM      1  C   UNL     1       2.046   8.790  17.429  0.00  0.00    +0.000 C 
ATOM      2  N   UNL     1       1.821   8.161  18.712  0.00  0.00    +0.000 N 
ATOM      3  C   UNL     1       2.011   6.839  19.027  0.00  0.00    +0.000 A 
ATOM      4  C   UNL     1       1.784   6.695  20.386  0.00  0.00    +0.000 A 
ATOM      5  C   UNL     1       1.368   7.949  20.900  0.00  0.00    +0.000 A 
ATOM      6  C   UNL     1       0.974   8.404  22.174  0.00  0.00    +0.000 A 
ATOM      7  C   UNL     1       0.601   9.743  22.347  0.00  0.00    +0.000 A 
ATOM      8  C   UNL     1       0.629  10.628  21.274  0.00  0.00    +0.000 A 
ATOM      9  C   UNL     1       1.029  10.204  20.004  0.00  0.00    +0.000 A 
ATOM     10  C   UNL     1       1.391   8.856  19.834  0.00  0.00    +0.000 A 
ATOM     11  C   UNL     1       1.992   5.391  21.088  0.00  0.00    +0.000 C 
ATOM     12  C   UNL     1       2.152   4.247  20.068  0.00  0.00    +0.000 C 
ATOM     13  N   UNL     1       2.978   4.658  18.914  0.00  0.00    +0.000 N 
ATOM     14  C   UNL     1       4.185   3.994  18.695  0.00  0.00    +0.000 C 
ATOM     15  O   UNL     1       4.534   3.028  19.377  0.00  0.00    +0.000 OA
ATOM     16  C   UNL     1       2.375   5.722  18.095  0.00  0.00    +0.000 C 
ENDROOT
BRANCH  14  17
ATOM     17  C   UNL     1       5.108   4.396  17.598  0.00  0.00    +0.000 A 
ATOM     18  C   UNL     1       4.927   4.003  16.267  0.00  0.00    +0.000 A 
ATOM     19  C   UNL     1       5.865   4.353  15.292  0.00  0.00    +0.000 A 
ATOM     20  C   UNL     1       6.933   5.175  15.632  0.00  0.00    +0.000 A 
ATOM     21  C   UNL     1       7.072   5.662  16.925  0.00  0.00    +0.000 A 
ATOM     22  C   UNL     1       6.163   5.269  17.911  0.00  0.00    +0.000 A 
BRANCH  20  23
ATOM     23  O   UNL     1       7.869   5.541  14.711  0.00  0.00    +0.000 OA
ATOM     24  H   UNL     1       7.447   5.597  13.838  0.00  0.00    +0.000 HD
ENDBRANCH  20  23
ENDBRANCH  14  17
TORSDOF 2
ENDMDL
MODEL 3
REMARK VINA RESULT:      -7.2      2.535      4.948
REMARK  Name = 
REMARK  3 active torsions:
REMARK  status: ('A' for Active; 'I' for Inactive)
REMARK    1  A    between atoms: C_1  and  N_2
REMARK    2  A    between atoms: C_14  and  C_16
REMARK    3  A    between atoms: C_19  and  O_20
REMARK                            x       y       z     vdW  Elec       q    Type
REMARK                         _______ _______ _______ _____ _____    ______ ____
ROOT
ATOM      1  C   UNL     1       2.643   6.990  19.612  0.00  0.00    +0.000 C 
ATOM      2  N   UNL     1       2.778   5.719  18.933  0.00  0.00    +0.000 N 
ATOM      3  C   UNL     1       3.602   5.434  17.875  0.00  0.00    +0.000 A 
ATOM      4  C   UNL     1       3.496   4.077  17.616  0.00  0.00    +0.000 A 
ATOM      5  C   UNL     1       2.521   3.534  18.490  0.00  0.00    +0.000 A 
ATOM      6  C   UNL     1       1.971   2.249  18.670  0.00  0.00    +0.000 A 
ATOM      7  C   UNL     1       0.987   2.047  19.645  0.00  0.00    +0.000 A 
ATOM      8  C   UNL     1       0.557   3.100  20.444  0.00  0.00    +0.000 A 
ATOM      9  C   UNL     1       1.096   4.381  20.294  0.00  0.00    +0.000 A 
ATOM     10  C   UNL     1       2.077   4.581  19.306  0.00  0.00    +0.000 A 
ATOM     11  C   UNL     1       4.333   3.403  16.575  0.00  0.00    +0.000 C 
ATOM     12  C   UNL     1       5.025   4.448  15.677  0.00  0.00    +0.000 C 
ATOM     13  N   UNL     1       5.521   5.597  16.463  0.00  0.00    +0.000 N 
ATOM     14  C   UNL     1       6.895   5.836  16.487  0.00  0.00    +0.000 C 
ATOM     15  O   UNL     1       7.687   5.176  15.811  0.00  0.00    +0.000 OA
ATOM     16  C   UNL     1       4.458   6.390  17.100  0.00  0.00    +0.000 C 
ENDROOT
BRANCH  14  17
ATOM     17  C   UNL     1       7.482   6.928  17.312  0.00  0.00    +0.000 A 
ATOM     18  C   UNL     1       7.420   8.277  16.943  0.00  0.00    +0.000 A 
ATOM     19  C   UNL     1       8.050   9.252  17.722  0.00  0.00    +0.000 A 
ATOM     20  C   UNL     1       8.659   8.887  18.918  0.00  0.00    +0.000 A 
ATOM     21  C   UNL     1       8.638   7.568  19.352  0.00  0.00    +0.000 A 
ATOM     22  C   UNL     1       8.054   6.587  18.548  0.00  0.00    +0.000 A 
BRANCH  20  23
ATOM     23  O   UNL     1       9.283   9.807  19.707  0.00  0.00    +0.000 OA
ATOM     24  H   UNL     1       9.315  10.656  19.235  0.00  0.00    +0.000 HD
ENDBRANCH  20  23
ENDBRANCH  14  17
TORSDOF 2
ENDMDL
MODEL 4
REMARK VINA RESULT:      -7.1      2.960      5.159
REMARK  Name = 
REMARK  3 active torsions:
REMARK  status: ('A' for Active; 'I' for Inactive)
REMARK    1  A    between atoms: C_1  and  N_2
REMARK    2  A    between atoms: C_14  and  C_16
REMARK    3  A    between atoms: C_19  and  O_20
REMARK                            x       y       z     vdW  Elec       q    Type
REMARK                         _______ _______ _______ _____ _____    ______ ____
ROOT
ATOM      1  C   UNL     1       0.051   8.981  22.377  0.00  0.00    +0.000 C 
ATOM      2  N   UNL     1       0.229   9.438  21.016  0.00  0.00    +0.000 N 
ATOM      3  C   UNL     1       1.100   8.932  20.084  0.00  0.00    +0.000 A 
ATOM      4  C   UNL     1       0.861   9.588  18.888  0.00  0.00    +0.000 A 
ATOM      5  C   UNL     1      -0.130  10.577  19.116  0.00  0.00    +0.000 A 
ATOM      6  C   UNL     1      -0.743  11.555  18.307  0.00  0.00    +0.000 A 
ATOM      7  C   UNL     1      -1.706  12.407  18.862  0.00  0.00    +0.000 A 
ATOM      8  C   UNL     1      -2.069  12.288  20.199  0.00  0.00    +0.000 A 
ATOM      9  C   UNL     1      -1.484  11.319  21.018  0.00  0.00    +0.000 A 
ATOM     10  C   UNL     1      -0.510  10.472  20.458  0.00  0.00    +0.000 A 
ATOM     11  C   UNL     1       1.576   9.218  17.627  0.00  0.00    +0.000 C 
ATOM     12  C   UNL     1       2.772   8.296  17.934  0.00  0.00    +0.000 C 
ATOM     13  N   UNL     1       2.437   7.297  18.970  0.00  0.00    +0.000 N 
ATOM     14  C   UNL     1       2.470   5.947  18.620  0.00  0.00    +0.000 C 
ATOM     15  O   UNL     1       2.851   5.567  17.511  0.00  0.00    +0.000 OA
ATOM     16  C   UNL     1       2.146   7.878  20.290  0.00  0.00    +0.000 C 
ENDROOT
BRANCH  14  17
ATOM     17  C   UNL     1       2.077   4.882  19.584  0.00  0.00    +0.000 A 
ATOM     18  C   UNL     1       1.079   3.940  19.311  0.00  0.00    +0.000 A 
ATOM     19  C   UNL     1       0.703   3.006  20.281  0.00  0.00    +0.000 A 
ATOM     20  C   UNL     1       1.392   2.957  21.489  0.00  0.00    +0.000 A 
ATOM     21  C   UNL     1       2.455   3.816  21.735  0.00  0.00    +0.000 A 
ATOM     22  C   UNL     1       2.796   4.782  20.786  0.00  0.00    +0.000 A 
BRANCH  20  23
ATOM     23  O   UNL     1       1.058   2.062  22.460  0.00  0.00    +0.000 OA
ATOM     24  H   UNL     1       0.129   1.804  22.345  0.00  0.00    +0.000 HD
ENDBRANCH  20  23
ENDBRANCH  14  17
TORSDOF 2
ENDMDL
MODEL 5
REMARK VINA RESULT:      -6.9      2.555      4.963
REMARK  Name = 
REMARK  3 active torsions:
REMARK  status: ('A' for Active; 'I' for Inactive)
REMARK    1  A    between atoms: C_1  and  N_2
REMARK    2  A    between atoms: C_14  and  C_16
REMARK    3  A    between atoms: C_19  and  O_20
REMARK                            x       y       z     vdW  Elec       q    Type
REMARK                         _______ _______ _______ _____ _____    ______ ____
ROOT
ATOM      1  C   UNL     1       2.691   6.942  19.654  0.00  0.00    +0.000 C 
ATOM      2  N   UNL     1       2.783   5.706  18.908  0.00  0.00    +0.000 N 
ATOM      3  C   UNL     1       3.601   5.449  17.836  0.00  0.00    +0.000 A 
ATOM      4  C   UNL     1       3.449   4.112  17.504  0.00  0.00    +0.000 A 
ATOM      5  C   UNL     1       2.451   3.558  18.346  0.00  0.00    +0.000 A 
ATOM      6  C   UNL     1       1.856   2.285  18.455  0.00  0.00    +0.000 A 
ATOM      7  C   UNL     1       0.862   2.065  19.415  0.00  0.00    +0.000 A 
ATOM      8  C   UNL     1       0.466   3.088  20.270  0.00  0.00    +0.000 A 
ATOM      9  C   UNL     1       1.051   4.356  20.191  0.00  0.00    +0.000 A 
ATOM     10  C   UNL     1       2.041   4.574  19.217  0.00  0.00    +0.000 A 
ATOM     11  C   UNL     1       4.265   3.467  16.430  0.00  0.00    +0.000 C 
ATOM     12  C   UNL     1       4.996   4.534  15.591  0.00  0.00    +0.000 C 
ATOM     13  N   UNL     1       5.530   5.620  16.439  0.00  0.00    +0.000 N 
ATOM     14  C   UNL     1       6.911   5.809  16.479  0.00  0.00    +0.000 C 
ATOM     15  O   UNL     1       7.682   5.159  15.769  0.00  0.00    +0.000 OA
ATOM     16  C   UNL     1       4.492   6.415  17.117  0.00  0.00    +0.000 C 
ENDROOT
BRANCH  14  17
ATOM     17  C   UNL     1       7.533   6.833  17.363  0.00  0.00    +0.000 A 
ATOM     18  C   UNL     1       8.117   6.521  18.596  0.00  0.00    +0.000 A 
ATOM     19  C   UNL     1       8.623   7.535  19.415  0.00  0.00    +0.000 A 
ATOM     20  C   UNL     1       8.629   8.848  18.957  0.00  0.00    +0.000 A 
ATOM     21  C   UNL     1       8.151   9.161  17.692  0.00  0.00    +0.000 A 
ATOM     22  C   UNL     1       7.597   8.156  16.895  0.00  0.00    +0.000 A 
BRANCH  20  23
ATOM     23  O   UNL     1       9.115   9.865  19.724  0.00  0.00    +0.000 OA
ATOM     24  H   UNL     1       9.475   9.495  20.547  0.00  0.00    +0.000 HD
ENDBRANCH  20  23
ENDBRANCH  14  17
TORSDOF 2
ENDMDL
MODEL 6
REMARK VINA RESULT:      -6.8      3.005      5.095
REMARK  Name = 
REMARK  3 active torsions:
REMARK  status: ('A' for Active; 'I' for Inactive)
REMARK    1  A    between atoms: C_1  and  N_2
REMARK    2  A    between atoms: C_14  and  C_16
REMARK    3  A    between atoms: C_19  and  O_20
REMARK                            x       y       z     vdW  Elec       q    Type
REMARK                         _______ _______ _______ _____ _____    ______ ____
ROOT
ATOM      1  C   UNL     1       0.170   9.140  22.434  0.00  0.00    +0.000 C 
ATOM      2  N   UNL     1       0.255   9.548  21.049  0.00  0.00    +0.000 N 
ATOM      3  C   UNL     1       1.075   9.021  20.083  0.00  0.00    +0.000 A 
ATOM      4  C   UNL     1       0.750   9.627  18.880  0.00  0.00    +0.000 A 
ATOM      5  C   UNL     1      -0.243  10.608  19.134  0.00  0.00    +0.000 A 
ATOM      6  C   UNL     1      -0.924  11.544  18.330  0.00  0.00    +0.000 A 
ATOM      7  C   UNL     1      -1.866  12.401  18.912  0.00  0.00    +0.000 A 
ATOM      8  C   UNL     1      -2.143  12.326  20.273  0.00  0.00    +0.000 A 
ATOM      9  C   UNL     1      -1.490  11.398  21.089  0.00  0.00    +0.000 A 
ATOM     10  C   UNL     1      -0.537  10.548  20.501  0.00  0.00    +0.000 A 
ATOM     11  C   UNL     1       1.392   9.223  17.592  0.00  0.00    +0.000 C 
ATOM     12  C   UNL     1       2.623   8.333  17.857  0.00  0.00    +0.000 C 
ATOM     13  N   UNL     1       2.372   7.368  18.947  0.00  0.00    +0.000 N 
ATOM     14  C   UNL     1       2.409   6.006  18.646  0.00  0.00    +0.000 C 
ATOM     15  O   UNL     1       2.727   5.591  17.530  0.00  0.00    +0.000 OA
ATOM     16  C   UNL     1       2.152   7.994  20.262  0.00  0.00    +0.000 C 
ENDROOT
BRANCH  14  17
ATOM     17  C   UNL     1       2.096   4.972  19.671  0.00  0.00    +0.000 A 
ATOM     18  C   UNL     1       2.721   4.929  20.923  0.00  0.00    +0.000 A 
ATOM     19  C   UNL     1       2.438   3.893  21.819  0.00  0.00    +0.000 A 
ATOM     20  C   UNL     1       1.461   2.957  21.498  0.00  0.00    +0.000 A 
ATOM     21  C   UNL     1       0.756   3.046  20.305  0.00  0.00    +0.000 A 
ATOM     22  C   UNL     1       1.076   4.051  19.388  0.00  0.00    +0.000 A 
BRANCH  20  23
ATOM     23  O   UNL     1       1.154   1.933  22.343  0.00  0.00    +0.000 OA
ATOM     24  H   UNL     1       0.555   1.317  21.888  0.00  0.00    +0.000 HD
ENDBRANCH  20  23
ENDBRANCH  14  17
TORSDOF 2
ENDMDL
MODEL 7
REMARK VINA RESULT:      -6.5      2.381      6.915
REMARK  Name = 
REMARK  3 active torsions:
REMARK  status: ('A' for Active; 'I' for Inactive)
REMARK    1  A    between atoms: C_1  and  N_2
REMARK    2  A    between atoms: C_14  and  C_16
REMARK    3  A    between atoms: C_19  and  O_20
REMARK                            x       y       z     vdW  Elec       q    Type
REMARK                         _______ _______ _______ _____ _____    ______ ____
ROOT
ATOM      1  C   UNL     1       6.357   7.356  17.253  0.00  0.00    +0.000 C 
ATOM      2  N   UNL     1       5.876   6.029  16.933  0.00  0.00    +0.000 N 
ATOM      3  C   UNL     1       5.039   5.250  17.691  0.00  0.00    +0.000 A 
ATOM      4  C   UNL     1       4.749   4.110  16.958  0.00  0.00    +0.000 A 
ATOM      5  C   UNL     1       5.492   4.159  15.751  0.00  0.00    +0.000 A 
ATOM      6  C   UNL     1       5.632   3.291  14.651  0.00  0.00    +0.000 A 
ATOM      7  C   UNL     1       6.481   3.643  13.594  0.00  0.00    +0.000 A 
ATOM      8  C   UNL     1       7.175   4.848  13.618  0.00  0.00    +0.000 A 
ATOM      9  C   UNL     1       7.043   5.732  14.692  0.00  0.00    +0.000 A 
ATOM     10  C   UNL     1       6.198   5.367  15.755  0.00  0.00    +0.000 A 
ATOM     11  C   UNL     1       3.785   3.078  17.451  0.00  0.00    +0.000 C 
ATOM     12  C   UNL     1       3.462   3.307  18.941  0.00  0.00    +0.000 C 
ATOM     13  N   UNL     1       3.301   4.743  19.248  0.00  0.00    +0.000 N 
ATOM     14  C   UNL     1       2.058   5.186  19.701  0.00  0.00    +0.000 C 
ATOM     15  O   UNL     1       1.129   4.408  19.931  0.00  0.00    +0.000 OA
ATOM     16  C   UNL     1       4.529   5.535  19.071  0.00  0.00    +0.000 C 
ENDROOT
BRANCH  14  17
ATOM     17  C   UNL     1       1.792   6.627  19.963  0.00  0.00    +0.000 A 
ATOM     18  C   UNL     1       1.443   7.119  21.226  0.00  0.00    +0.000 A 
ATOM     19  C   UNL     1       1.137   8.472  21.399  0.00  0.00    +0.000 A 
ATOM     20  C   UNL     1       1.272   9.348  20.327  0.00  0.00    +0.000 A 
ATOM     21  C   UNL     1       1.720   8.896  19.092  0.00  0.00    +0.000 A 
ATOM     22  C   UNL     1       1.975   7.534  18.908  0.00  0.00    +0.000 A 
BRANCH  20  23
ATOM     23  O   UNL     1       0.985  10.674  20.453  0.00  0.00    +0.000 OA
ATOM     24  H   UNL     1       1.767  11.191  20.198  0.00  0.00    +0.000 HD
ENDBRANCH  20  23
ENDBRANCH  14  17
TORSDOF 2
ENDMDL
MODEL 8
REMARK VINA RESULT:      -6.4      1.267      1.388
REMARK  Name = 
REMARK  3 active torsions:
REMARK  status: ('A' for Active; 'I' for Inactive)
REMARK    1  A    between atoms: C_1  and  N_2
REMARK    2  A    between atoms: C_14  and  C_16
REMARK    3  A    between atoms: C_19  and  O_20
REMARK                            x       y       z     vdW  Elec       q    Type
REMARK                         _______ _______ _______ _____ _____    ______ ____
ROOT
ATOM      1  C   UNL     1       2.126   9.901  18.098  0.00  0.00    +0.000 C 
ATOM      2  N   UNL     1       1.609   9.148  19.220  0.00  0.00    +0.000 N 
ATOM      3  C   UNL     1       1.731   7.798  19.433  0.00  0.00    +0.000 A 
ATOM      4  C   UNL     1       1.190   7.520  20.678  0.00  0.00    +0.000 A 
ATOM      5  C   UNL     1       0.652   8.721  21.205  0.00  0.00    +0.000 A 
ATOM      6  C   UNL     1      -0.038   9.050  22.389  0.00  0.00    +0.000 A 
ATOM      7  C   UNL     1      -0.454  10.370  22.604  0.00  0.00    +0.000 A 
ATOM      8  C   UNL     1      -0.181  11.359  21.666  0.00  0.00    +0.000 A 
ATOM      9  C   UNL     1       0.513  11.060  20.490  0.00  0.00    +0.000 A 
ATOM     10  C   UNL     1       0.919   9.731  20.274  0.00  0.00    +0.000 A 
ATOM     11  C   UNL     1       1.238   6.148  21.272  0.00  0.00    +0.000 C 
ATOM     12  C   UNL     1       1.647   5.111  20.207  0.00  0.00    +0.000 C 
ATOM     13  N   UNL     1       2.719   5.626  19.331  0.00  0.00    +0.000 N 
ATOM     14  C   UNL     1       3.950   4.969  19.337  0.00  0.00    +0.000 C 
ATOM     15  O   UNL     1       4.137   3.934  19.979  0.00  0.00    +0.000 OA
ATOM     16  C   UNL     1       2.317   6.777  18.505  0.00  0.00    +0.000 C 
ENDROOT
BRANCH  14  17
ATOM     17  C   UNL     1       5.103   5.467  18.538  0.00  0.00    +0.000 A 
ATOM     18  C   UNL     1       6.391   5.611  19.067  0.00  0.00    +0.000 A 
ATOM     19  C   UNL     1       7.420   6.149  18.289  0.00  0.00    +0.000 A 
ATOM     20  C   UNL     1       7.181   6.455  16.953  0.00  0.00    +0.000 A 
ATOM     21  C   UNL     1       5.937   6.220  16.382  0.00  0.00    +0.000 A 
ATOM     22  C   UNL     1       4.896   5.731  17.174  0.00  0.00    +0.000 A 
BRANCH  20  23
ATOM     23  O   UNL     1       8.157   6.980  16.160  0.00  0.00    +0.000 OA
ATOM     24  H   UNL     1       7.853   6.968  15.238  0.00  0.00    +0.000 HD
ENDBRANCH  20  23
ENDBRANCH  14  17
TORSDOF 2
ENDMDL
MODEL 9
REMARK VINA RESULT:      -6.3      2.388      6.965
REMARK  Name = 
REMARK  3 active torsions:
REMARK  status: ('A' for Active; 'I' for Inactive)
REMARK    1  A    between atoms: C_1  and  N_2
REMARK    2  A    between atoms: C_14  and  C_16
REMARK    3  A    between atoms: C_19  and  O_20
REMARK                            x       y       z     vdW  Elec       q    Type
REMARK                         _______ _______ _______ _____ _____    ______ ____
ROOT
ATOM      1  C   UNL     1       6.330   7.403  17.227  0.00  0.00    +0.000 C 
ATOM      2  N   UNL     1       5.860   6.066  16.934  0.00  0.00    +0.000 N 
ATOM      3  C   UNL     1       5.034   5.294  17.712  0.00  0.00    +0.000 A 
ATOM      4  C   UNL     1       4.751   4.138  17.002  0.00  0.00    +0.000 A 
ATOM      5  C   UNL     1       5.488   4.170  15.791  0.00  0.00    +0.000 A 
ATOM      6  C   UNL     1       5.631   3.282  14.707  0.00  0.00    +0.000 A 
ATOM      7  C   UNL     1       6.472   3.621  13.640  0.00  0.00    +0.000 A 
ATOM      8  C   UNL     1       7.156   4.832  13.637  0.00  0.00    +0.000 A 
ATOM      9  C   UNL     1       7.020   5.736  14.695  0.00  0.00    +0.000 A 
ATOM     10  C   UNL     1       6.183   5.384  15.769  0.00  0.00    +0.000 A 
ATOM     11  C   UNL     1       3.799   3.106  17.520  0.00  0.00    +0.000 C 
ATOM     12  C   UNL     1       3.480   3.362  19.006  0.00  0.00    +0.000 C 
ATOM     13  N   UNL     1       3.307   4.802  19.286  0.00  0.00    +0.000 N 
ATOM     14  C   UNL     1       2.062   5.242  19.736  0.00  0.00    +0.000 C 
ATOM     15  O   UNL     1       1.142   4.461  19.985  0.00  0.00    +0.000 OA
ATOM     16  C   UNL     1       4.527   5.601  19.088  0.00  0.00    +0.000 C 
ENDROOT
BRANCH  14  17
ATOM     17  C   UNL     1       1.784   6.686  19.971  0.00  0.00    +0.000 A 
ATOM     18  C   UNL     1       1.913   7.659  18.973  0.00  0.00    +0.000 A 
ATOM     19  C   UNL     1       1.707   9.009  19.270  0.00  0.00    +0.000 A 
ATOM     20  C   UNL     1       1.279   9.373  20.543  0.00  0.00    +0.000 A 
ATOM     21  C   UNL     1       1.044   8.411  21.516  0.00  0.00    +0.000 A 
ATOM     22  C   UNL     1       1.301   7.067  21.233  0.00  0.00    +0.000 A 
BRANCH  20  23
ATOM     23  O   UNL     1       1.065  10.678  20.873  0.00  0.00    +0.000 OA
ATOM     24  H   UNL     1       1.661  11.237  20.349  0.00  0.00    +0.000 HD
ENDBRANCH  20  23
ENDBRANCH  14  17
TORSDOF 2
ENDMDL
