MODEL 1
REMARK VINA RESULT:      -8.4      0.000      0.000
REMARK  Name = 
REMARK  8 active torsions:
REMARK  status: ('A' for Active; 'I' for Inactive)
REMARK    1  A    between atoms: C_1  and  S_2
REMARK    2  A    between atoms: S_2  and  N_5
REMARK    3  A    between atoms: N_5  and  C_6
REMARK    4  A    between atoms: C_9  and  C_10
REMARK    5  A    between atoms: C_10  and  C_11
REMARK    6  A    between atoms: C_11  and  N_12
REMARK    7  A    between atoms: C_13  and  C_15
REMARK    8  A    between atoms: C_21  and  C_22
REMARK                            x       y       z     vdW  Elec       q    Type
REMARK                         _______ _______ _______ _____ _____    ______ ____
ROOT
ATOM      1  N   UNL     1       2.358   6.910  18.878  0.00  0.00    +0.000 N 
ATOM      2  C   UNL     1       2.058   5.929  19.799  0.00  0.00    +0.000 C 
ATOM      3  O   UNL     1       1.529   6.162  20.881  0.00  0.00    +0.000 OA
ATOM      4  H   UNL     1       2.775   6.637  17.989  0.00  0.00    +0.000 HD
ENDROOT
BRANCH   2   5
ATOM      5  C   UNL     1       2.386   4.534  19.435  0.00  0.00    +0.000 A 
ATOM      6  C   UNL     1       1.755   3.469  20.096  0.00  0.00    +0.000 A 
ATOM      7  C   UNL     1       2.053   2.165  19.721  0.00  0.00    +0.000 A 
ATOM      8  N   UNL     1       2.917   1.803  18.742  0.00  0.00    +0.000 NA
ATOM      9  C   UNL     1       3.496   2.864  18.156  0.00  0.00    +0.000 A 
ATOM     10  N   UNL     1       4.407   2.828  17.142  0.00  0.00    +0.000 N 
ATOM     11  C   UNL     1       4.791   4.118  16.877  0.00  0.00    +0.000 A 
ATOM     12  N   UNL     1       4.125   4.981  17.622  0.00  0.00    +0.000 NA
ATOM     13  C   UNL     1       3.311   4.210  18.433  0.00  0.00    +0.000 A 
ATOM     14  H   UNL     1       4.755   1.988  16.708  0.00  0.00    +0.000 HD
BRANCH  11  15
ATOM     15  C   UNL     1       5.834   4.505  15.899  0.00  0.00    +0.000 A 
ATOM     16  C   UNL     1       5.919   4.112  14.542  0.00  0.00    +0.000 A 
ATOM     17  C   UNL     1       7.032   4.741  14.034  0.00  0.00    +0.000 A 
ATOM     18  O   UNL     1       7.639   5.484  14.995  0.00  0.00    +0.000 OA
ATOM     19  C   UNL     1       6.904   5.337  16.131  0.00  0.00    +0.000 A 
ENDBRANCH  11  15
ENDBRANCH   2   5
BRANCH   1  20
ATOM     20  C   UNL     1       2.027   8.298  19.138  0.00  0.00    +0.000 C 
BRANCH  20  21
ATOM     21  C   UNL     1       1.657   9.076  17.873  0.00  0.00    +0.000 C 
BRANCH  21  25
ATOM     22  C   UNL     1      -1.457  11.914  18.807  0.00  0.00    +0.000 A 
ATOM     23  C   UNL     1      -0.130  12.217  19.107  0.00  0.00    +0.000 A 
ATOM     24  C   UNL     1       0.882  11.307  18.785  0.00  0.00    +0.000 A 
ATOM     25  C   UNL     1       0.575  10.094  18.151  0.00  0.00    +0.000 A 
ATOM     26  C   UNL     1      -0.761   9.819  17.827  0.00  0.00    +0.000 A 
ATOM     27  C   UNL     1      -1.771  10.729  18.146  0.00  0.00    +0.000 A 
BRANCH  22  28
ATOM     28  N   UNL     1      -2.499  12.825  19.150  0.00  0.00    +0.000 N 
ATOM     29  H   UNL     1      -3.433  12.543  18.848  0.00  0.00    +0.000 HD
BRANCH  28  31
ATOM     30  C   UNL     1      -4.324  13.671  20.930  0.00  0.00    +0.000 C 
ATOM     31  S   UNL     1      -2.580  13.353  20.755  0.00  0.00    +0.000 S 
ATOM     32  O   UNL     1      -1.854  14.590  20.916  0.00  0.00    +0.000 OA
ATOM     33  O   UNL     1      -2.270  12.188  21.559  0.00  0.00    +0.000 OA
ENDBRANCH  28  31
ENDBRANCH  22  28
ENDBRANCH  21  25
ENDBRANCH  20  21
ENDBRANCH   1  20
TORSDOF 7
ENDMDL
MODEL 2
REMARK VINA RESULT:      -8.4      2.330      2.517
REMARK  Name = 
REMARK  8 active torsions:
REMARK  status: ('A' for Active; 'I' for Inactive)
REMARK    1  A    between atoms: C_1  and  S_2
REMARK    2  A    between atoms: S_2  and  N_5
REMARK    3  A    between atoms: N_5  and  C_6
REMARK    4  A    between atoms: C_9  and  C_10
REMARK    5  A    between atoms: C_10  and  C_11
REMARK    6  A    between atoms: C_11  and  N_12
REMARK    7  A    between atoms: C_13  and  C_15
REMARK    8  A    between atoms: C_21  and  C_22
REMARK                            x       y       z     vdW  Elec       q    Type
REMARK                         _______ _______ _______ _____ _____    ______ ____
ROOT
ATOM      1  N   UNL     1       1.797   6.867  21.001  0.00  0.00    +0.000 N 
ATOM      2  C   UNL     1       2.223   6.441  19.760  0.00  0.00    +0.000 C 
ATOM      3  O   UNL     1       2.296   7.181  18.784  0.00  0.00    +0.000 OA
ATOM      4  H   UNL     1       1.787   6.199  21.771  0.00  0.00    +0.000 HD
ENDROOT
BRANCH   2   5
ATOM      5  C   UNL     1       2.619   5.023  19.629  0.00  0.00    +0.000 A 
ATOM      6  C   UNL     1       2.098   4.064  20.512  0.00  0.00    +0.000 A 
ATOM      7  C   UNL     1       2.458   2.731  20.358  0.00  0.00    +0.000 A 
ATOM      8  N   UNL     1       3.284   2.243  19.402  0.00  0.00    +0.000 NA
ATOM      9  C   UNL     1       3.759   3.208  18.597  0.00  0.00    +0.000 A 
ATOM     10  N   UNL     1       4.608   3.036  17.545  0.00  0.00    +0.000 N 
ATOM     11  C   UNL     1       4.892   4.274  17.027  0.00  0.00    +0.000 A 
ATOM     12  N   UNL     1       4.216   5.222  17.650  0.00  0.00    +0.000 NA
ATOM     13  C   UNL     1       3.503   4.571  18.640  0.00  0.00    +0.000 A 
ATOM     14  H   UNL     1       4.985   2.151  17.246  0.00  0.00    +0.000 HD
BRANCH  11  15
ATOM     15  C   UNL     1       5.848   4.531  15.926  0.00  0.00    +0.000 A 
ATOM     16  C   UNL     1       5.767   4.053  14.596  0.00  0.00    +0.000 A 
ATOM     17  C   UNL     1       6.857   4.573  13.938  0.00  0.00    +0.000 A 
ATOM     18  O   UNL     1       7.606   5.329  14.782  0.00  0.00    +0.000 OA
ATOM     19  C   UNL     1       6.986   5.301  15.993  0.00  0.00    +0.000 A 
ENDBRANCH  11  15
ENDBRANCH   2   5
BRANCH   1  20
ATOM     20  C   UNL     1       1.434   8.253  21.225  0.00  0.00    +0.000 C 
BRANCH  20  21
ATOM     21  C   UNL     1      -0.072   8.461  21.399  0.00  0.00    +0.000 C 
BRANCH  21  25
ATOM     22  C   UNL     1      -1.162  12.586  22.039  0.00  0.00    +0.000 A 
ATOM     23  C   UNL     1      -1.208  11.684  23.101  0.00  0.00    +0.000 A 
ATOM     24  C   UNL     1      -0.834  10.352  22.899  0.00  0.00    +0.000 A 
ATOM     25  C   UNL     1      -0.402   9.916  21.638  0.00  0.00    +0.000 A 
ATOM     26  C   UNL     1      -0.330  10.843  20.589  0.00  0.00    +0.000 A 
ATOM     27  C   UNL     1      -0.701  12.175  20.791  0.00  0.00    +0.000 A 
BRANCH  22  28
ATOM     28  N   UNL     1      -1.562  13.942  22.229  0.00  0.00    +0.000 N 
ATOM     29  H   UNL     1      -2.495  14.063  22.628  0.00  0.00    +0.000 HD
BRANCH  28  31
ATOM     30  C   UNL     1      -1.014  16.564  22.437  0.00  0.00    +0.000 C 
ATOM     31  S   UNL     1      -0.486  14.970  23.032  0.00  0.00    +0.000 S 
ATOM     32  O   UNL     1       0.868  14.725  22.594  0.00  0.00    +0.000 OA
ATOM     33  O   UNL     1      -0.849  14.889  24.432  0.00  0.00    +0.000 OA
ENDBRANCH  28  31
ENDBRANCH  22  28
ENDBRANCH  21  25
ENDBRANCH  20  21
ENDBRANCH   1  20
TORSDOF 7
ENDMDL
MODEL 3
REMARK VINA RESULT:      -8.3      1.304      1.528
REMARK  Name = 
REMARK  8 active torsions:
REMARK  status: ('A' for Active; 'I' for Inactive)
REMARK    1  A    between atoms: C_1  and  S_2
REMARK    2  A    between atoms: S_2  and  N_5
REMARK    3  A    between atoms: N_5  and  C_6
REMARK    4  A    between atoms: C_9  and  C_10
REMARK    5  A    between atoms: C_10  and  C_11
REMARK    6  A    between atoms: C_11  and  N_12
REMARK    7  A    between atoms: C_13  and  C_15
REMARK    8  A    between atoms: C_21  and  C_22
REMARK                            x       y       z     vdW  Elec       q    Type
REMARK                         _______ _______ _______ _____ _____    ______ ____
ROOT
ATOM      1  N   UNL     1       2.237   7.772  18.495  0.00  0.00    +0.000 N 
ATOM      2  C   UNL     1       2.172   7.131  19.714  0.00  0.00    +0.000 C 
ATOM      3  O   UNL     1       1.814   7.687  20.747  0.00  0.00    +0.000 OA
ATOM      4  H   UNL     1       2.520   7.237  17.675  0.00  0.00    +0.000 HD
ENDROOT
BRANCH   2   5
ATOM      5  C   UNL     1       2.542   5.700  19.748  0.00  0.00    +0.000 A 
ATOM      6  C   UNL     1       2.005   4.859  20.735  0.00  0.00    +0.000 A 
ATOM      7  C   UNL     1       2.340   3.511  20.736  0.00  0.00    +0.000 A 
ATOM      8  N   UNL     1       3.156   2.901  19.843  0.00  0.00    +0.000 NA
ATOM      9  C   UNL     1       3.647   3.758  18.932  0.00  0.00    +0.000 A 
ATOM     10  N   UNL     1       4.492   3.450  17.908  0.00  0.00    +0.000 N 
ATOM     11  C   UNL     1       4.797   4.615  17.251  0.00  0.00    +0.000 A 
ATOM     12  N   UNL     1       4.140   5.640  17.760  0.00  0.00    +0.000 NA
ATOM     13  C   UNL     1       3.416   5.121  18.818  0.00  0.00    +0.000 A 
ATOM     14  H   UNL     1       4.852   2.530  17.713  0.00  0.00    +0.000 HD
BRANCH  11  15
ATOM     15  C   UNL     1       5.757   4.726  16.128  0.00  0.00    +0.000 A 
ATOM     16  C   UNL     1       5.556   4.310  14.790  0.00  0.00    +0.000 A 
ATOM     17  C   UNL     1       6.706   4.642  14.112  0.00  0.00    +0.000 A 
ATOM     18  O   UNL     1       7.602   5.224  14.952  0.00  0.00    +0.000 OA
ATOM     19  C   UNL     1       7.018   5.273  16.180  0.00  0.00    +0.000 A 
ENDBRANCH  11  15
ENDBRANCH   2   5
BRANCH   1  20
ATOM     20  C   UNL     1       1.847   9.163  18.366  0.00  0.00    +0.000 C 
BRANCH  20  21
ATOM     21  C   UNL     1       0.369   9.344  18.011  0.00  0.00    +0.000 C 
BRANCH  21  25
ATOM     22  C   UNL     1      -1.569  12.363  20.408  0.00  0.00    +0.000 A 
ATOM     23  C   UNL     1      -0.693  11.459  21.007  0.00  0.00    +0.000 A 
ATOM     24  C   UNL     1      -0.049  10.493  20.227  0.00  0.00    +0.000 A 
ATOM     25  C   UNL     1      -0.266  10.434  18.843  0.00  0.00    +0.000 A 
ATOM     26  C   UNL     1      -1.123  11.372  18.251  0.00  0.00    +0.000 A 
ATOM     27  C   UNL     1      -1.766  12.337  19.030  0.00  0.00    +0.000 A 
BRANCH  22  28
ATOM     28  N   UNL     1      -2.248  13.337  21.198  0.00  0.00    +0.000 N 
ATOM     29  H   UNL     1      -2.358  14.250  20.752  0.00  0.00    +0.000 HD
BRANCH  28  31
ATOM     30  C   UNL     1      -4.346  14.468  22.437  0.00  0.00    +0.000 C 
ATOM     31  S   UNL     1      -3.722  12.890  21.898  0.00  0.00    +0.000 S 
ATOM     32  O   UNL     1      -3.497  12.049  23.050  0.00  0.00    +0.000 OA
ATOM     33  O   UNL     1      -4.552  12.449  20.796  0.00  0.00    +0.000 OA
ENDBRANCH  28  31
ENDBRANCH  22  28
ENDBRANCH  21  25
ENDBRANCH  20  21
ENDBRANCH   1  20
TORSDOF 7
ENDMDL
MODEL 4
REMARK VINA RESULT:      -8.3      2.141      2.424
REMARK  Name = 
REMARK  8 active torsions:
REMARK  status: ('A' for Active; 'I' for Inactive)
REMARK    1  A    between atoms: C_1  and  S_2
REMARK    2  A    between atoms: S_2  and  N_5
REMARK    3  A    between atoms: N_5  and  C_6
REMARK    4  A    between atoms: C_9  and  C_10
REMARK    5  A    between atoms: C_10  and  C_11
REMARK    6  A    between atoms: C_11  and  N_12
REMARK    7  A    between atoms: C_13  and  C_15
REMARK    8  A    between atoms: C_21  and  C_22
REMARK                            x       y       z     vdW  Elec       q    Type
REMARK                         _______ _______ _______ _____ _____    ______ ____
ROOT
ATOM      1  N   UNL     1       1.607   7.377  20.960  0.00  0.00    +0.000 N 
ATOM      2  C   UNL     1       2.220   6.873  19.832  0.00  0.00    +0.000 C 
ATOM      3  O   UNL     1       2.409   7.537  18.818  0.00  0.00    +0.000 OA
ATOM      4  H   UNL     1       1.506   6.772  21.774  0.00  0.00    +0.000 HD
ENDROOT
BRANCH   2   5
ATOM      5  C   UNL     1       2.676   5.468  19.878  0.00  0.00    +0.000 A 
ATOM      6  C   UNL     1       2.219   4.615  20.895  0.00  0.00    +0.000 A 
ATOM      7  C   UNL     1       2.634   3.289  20.907  0.00  0.00    +0.000 A 
ATOM      8  N   UNL     1       3.458   2.712  20.000  0.00  0.00    +0.000 NA
ATOM      9  C   UNL     1       3.871   3.580  19.061  0.00  0.00    +0.000 A 
ATOM     10  N   UNL     1       4.702   3.304  18.017  0.00  0.00    +0.000 N 
ATOM     11  C   UNL     1       4.918   4.473  17.332  0.00  0.00    +0.000 A 
ATOM     12  N   UNL     1       4.215   5.467  17.844  0.00  0.00    +0.000 NA
ATOM     13  C   UNL     1       3.556   4.925  18.931  0.00  0.00    +0.000 A 
ATOM     14  H   UNL     1       5.110   2.403  17.827  0.00  0.00    +0.000 HD
BRANCH  11  15
ATOM     15  C   UNL     1       5.836   4.620  16.179  0.00  0.00    +0.000 A 
ATOM     16  C   UNL     1       5.632   4.148  14.860  0.00  0.00    +0.000 A 
ATOM     17  C   UNL     1       6.735   4.544  14.140  0.00  0.00    +0.000 A 
ATOM     18  O   UNL     1       7.606   5.218  14.936  0.00  0.00    +0.000 OA
ATOM     19  C   UNL     1       7.053   5.262  16.178  0.00  0.00    +0.000 A 
ENDBRANCH  11  15
ENDBRANCH   2   5
BRANCH   1  20
ATOM     20  C   UNL     1       1.171   8.759  21.014  0.00  0.00    +0.000 C 
BRANCH  20  21
ATOM     21  C   UNL     1       0.425   9.106  22.304  0.00  0.00    +0.000 C 
BRANCH  21  25
ATOM     22  C   UNL     1      -2.167  12.510  21.748  0.00  0.00    +0.000 A 
ATOM     23  C   UNL     1      -2.073  11.908  23.001  0.00  0.00    +0.000 A 
ATOM     24  C   UNL     1      -1.217  10.818  23.187  0.00  0.00    +0.000 A 
ATOM     25  C   UNL     1      -0.441  10.331  22.125  0.00  0.00    +0.000 A 
ATOM     26  C   UNL     1      -0.523  10.969  20.879  0.00  0.00    +0.000 A 
ATOM     27  C   UNL     1      -1.377  12.059  20.694  0.00  0.00    +0.000 A 
BRANCH  22  28
ATOM     28  N   UNL     1      -3.054  13.608  21.542  0.00  0.00    +0.000 N 
ATOM     29  H   UNL     1      -2.746  14.281  20.838  0.00  0.00    +0.000 HD
BRANCH  28  31
ATOM     30  C   UNL     1      -4.632  12.460  19.697  0.00  0.00    +0.000 C 
ATOM     31  S   UNL     1      -4.689  13.258  21.288  0.00  0.00    +0.000 S 
ATOM     32  O   UNL     1      -5.454  14.478  21.179  0.00  0.00    +0.000 OA
ATOM     33  O   UNL     1      -5.022  12.245  22.269  0.00  0.00    +0.000 OA
ENDBRANCH  28  31
ENDBRANCH  22  28
ENDBRANCH  21  25
ENDBRANCH  20  21
ENDBRANCH   1  20
TORSDOF 7
ENDMDL
MODEL 5
REMARK VINA RESULT:      -8.3      3.048      5.320
REMARK  Name = 
REMARK  8 active torsions:
REMARK  status: ('A' for Active; 'I' for Inactive)
REMARK    1  A    between atoms: C_1  and  S_2
REMARK    2  A    between atoms: S_2  and  N_5
REMARK    3  A    between atoms: N_5  and  C_6
REMARK    4  A    between atoms: C_9  and  C_10
REMARK    5  A    between atoms: C_10  and  C_11
REMARK    6  A    between atoms: C_11  and  N_12
REMARK    7  A    between atoms: C_13  and  C_15
REMARK    8  A    between atoms: C_21  and  C_22
REMARK                            x       y       z     vdW  Elec       q    Type
REMARK                         _______ _______ _______ _____ _____    ______ ____
ROOT
ATOM      1  N   UNL     1       3.891   3.029  17.834  0.00  0.00    +0.000 N 
ATOM      2  C   UNL     1       4.885   3.544  18.639  0.00  0.00    +0.000 C 
ATOM      3  O   UNL     1       5.030   3.224  19.815  0.00  0.00    +0.000 OA
ATOM      4  H   UNL     1       3.849   3.323  16.859  0.00  0.00    +0.000 HD
ENDROOT
BRANCH   2   5
ATOM      5  C   UNL     1       5.818   4.515  18.028  0.00  0.00    +0.000 A 
ATOM      6  C   UNL     1       6.439   5.488  18.825  0.00  0.00    +0.000 A 
ATOM      7  C   UNL     1       7.335   6.375  18.241  0.00  0.00    +0.000 A 
ATOM      8  N   UNL     1       7.689   6.390  16.933  0.00  0.00    +0.000 NA
ATOM      9  C   UNL     1       7.054   5.445  16.221  0.00  0.00    +0.000 A 
ATOM     10  N   UNL     1       7.196   5.208  14.887  0.00  0.00    +0.000 N 
ATOM     11  C   UNL     1       6.330   4.201  14.544  0.00  0.00    +0.000 A 
ATOM     12  N   UNL     1       5.690   3.737  15.602  0.00  0.00    +0.000 NA
ATOM     13  C   UNL     1       6.130   4.509  16.662  0.00  0.00    +0.000 A 
ATOM     14  H   UNL     1       7.804   5.723  14.270  0.00  0.00    +0.000 HD
BRANCH  11  15
ATOM     15  C   UNL     1       6.114   3.704  13.166  0.00  0.00    +0.000 A 
ATOM     16  C   UNL     1       7.098   3.488  12.172  0.00  0.00    +0.000 A 
ATOM     17  C   UNL     1       6.429   2.999  11.074  0.00  0.00    +0.000 A 
ATOM     18  O   UNL     1       5.097   2.913  11.328  0.00  0.00    +0.000 OA
ATOM     19  C   UNL     1       4.910   3.344  12.605  0.00  0.00    +0.000 A 
ENDBRANCH  11  15
ENDBRANCH   2   5
BRANCH   1  20
ATOM     20  C   UNL     1       2.964   2.037  18.343  0.00  0.00    +0.000 C 
BRANCH  20  21
ATOM     21  C   UNL     1       1.578   2.609  18.647  0.00  0.00    +0.000 C 
BRANCH  21  25
ATOM     22  C   UNL     1       1.999   6.633  20.146  0.00  0.00    +0.000 A 
ATOM     23  C   UNL     1       1.941   6.407  18.772  0.00  0.00    +0.000 A 
ATOM     24  C   UNL     1       1.783   5.106  18.286  0.00  0.00    +0.000 A 
ATOM     25  C   UNL     1       1.670   4.023  19.171  0.00  0.00    +0.000 A 
ATOM     26  C   UNL     1       1.697   4.271  20.551  0.00  0.00    +0.000 A 
ATOM     27  C   UNL     1       1.853   5.572  21.036  0.00  0.00    +0.000 A 
BRANCH  22  28
ATOM     28  N   UNL     1       2.182   7.954  20.652  0.00  0.00    +0.000 N 
ATOM     29  H   UNL     1       2.691   8.585  20.030  0.00  0.00    +0.000 HD
BRANCH  28  31
ATOM     30  C   UNL     1       0.445   9.861  19.904  0.00  0.00    +0.000 C 
ATOM     31  S   UNL     1       0.820   8.758  21.252  0.00  0.00    +0.000 S 
ATOM     32  O   UNL     1       1.167   9.535  22.418  0.00  0.00    +0.000 OA
ATOM     33  O   UNL     1      -0.227   7.759  21.297  0.00  0.00    +0.000 OA
ENDBRANCH  28  31
ENDBRANCH  22  28
ENDBRANCH  21  25
ENDBRANCH  20  21
ENDBRANCH   1  20
TORSDOF 7
ENDMDL
MODEL 6
REMARK VINA RESULT:      -8.3      2.376      2.638
REMARK  Name = 
REMARK  8 active torsions:
REMARK  status: ('A' for Active; 'I' for Inactive)
REMARK    1  A    between atoms: C_1  and  S_2
REMARK    2  A    between atoms: S_2  and  N_5
REMARK    3  A    between atoms: N_5  and  C_6
REMARK    4  A    between atoms: C_9  and  C_10
REMARK    5  A    between atoms: C_10  and  C_11
REMARK    6  A    between atoms: C_11  and  N_12
REMARK    7  A    between atoms: C_13  and  C_15
REMARK    8  A    between atoms: C_21  and  C_22
REMARK                            x       y       z     vdW  Elec       q    Type
REMARK                         _______ _______ _______ _____ _____    ______ ____
ROOT
ATOM      1  N   UNL     1       1.825   7.230  20.821  0.00  0.00    +0.000 N 
ATOM      2  C   UNL     1       2.267   6.676  19.638  0.00  0.00    +0.000 C 
ATOM      3  O   UNL     1       2.262   7.281  18.571  0.00  0.00    +0.000 OA
ATOM      4  H   UNL     1       1.882   6.673  21.673  0.00  0.00    +0.000 HD
ENDROOT
BRANCH   2   5
ATOM      5  C   UNL     1       2.779   5.290  19.687  0.00  0.00    +0.000 A 
ATOM      6  C   UNL     1       2.371   4.428  20.717  0.00  0.00    +0.000 A 
ATOM      7  C   UNL     1       2.840   3.120  20.732  0.00  0.00    +0.000 A 
ATOM      8  N   UNL     1       3.674   2.570  19.818  0.00  0.00    +0.000 NA
ATOM      9  C   UNL     1       4.038   3.446  18.867  0.00  0.00    +0.000 A 
ATOM     10  N   UNL     1       4.865   3.196  17.813  0.00  0.00    +0.000 N 
ATOM     11  C   UNL     1       5.024   4.367  17.116  0.00  0.00    +0.000 A 
ATOM     12  N   UNL     1       4.289   5.336  17.631  0.00  0.00    +0.000 NA
ATOM     13  C   UNL     1       3.667   4.776  18.732  0.00  0.00    +0.000 A 
ATOM     14  H   UNL     1       5.307   2.311  17.623  0.00  0.00    +0.000 HD
BRANCH  11  15
ATOM     15  C   UNL     1       5.919   4.542  15.950  0.00  0.00    +0.000 A 
ATOM     16  C   UNL     1       5.720   4.045  14.640  0.00  0.00    +0.000 A 
ATOM     17  C   UNL     1       6.793   4.483  13.900  0.00  0.00    +0.000 A 
ATOM     18  O   UNL     1       7.643   5.206  14.676  0.00  0.00    +0.000 OA
ATOM     19  C   UNL     1       7.104   5.240  15.925  0.00  0.00    +0.000 A 
ENDBRANCH  11  15
ENDBRANCH   2   5
BRANCH   1  20
ATOM     20  C   UNL     1       1.349   8.599  20.868  0.00  0.00    +0.000 C 
BRANCH  20  21
ATOM     21  C   UNL     1       1.017   9.073  22.284  0.00  0.00    +0.000 C 
BRANCH  21  25
ATOM     22  C   UNL     1      -1.598  12.505  22.324  0.00  0.00    +0.000 A 
ATOM     23  C   UNL     1      -0.583  12.418  21.374  0.00  0.00    +0.000 A 
ATOM     24  C   UNL     1       0.252  11.296  21.347  0.00  0.00    +0.000 A 
ATOM     25  C   UNL     1       0.069  10.250  22.261  0.00  0.00    +0.000 A 
ATOM     26  C   UNL     1      -0.978  10.337  23.189  0.00  0.00    +0.000 A 
ATOM     27  C   UNL     1      -1.813  11.456  23.215  0.00  0.00    +0.000 A 
BRANCH  22  28
ATOM     28  N   UNL     1      -2.441  13.654  22.374  0.00  0.00    +0.000 N 
ATOM     29  H   UNL     1      -3.420  13.460  22.593  0.00  0.00    +0.000 HD
BRANCH  28  31
ATOM     30  C   UNL     1      -1.355  16.090  22.050  0.00  0.00    +0.000 C 
ATOM     31  S   UNL     1      -1.923  14.965  23.309  0.00  0.00    +0.000 S 
ATOM     32  O   UNL     1      -0.807  14.581  24.140  0.00  0.00    +0.000 OA
ATOM     33  O   UNL     1      -3.128  15.529  23.882  0.00  0.00    +0.000 OA
ENDBRANCH  28  31
ENDBRANCH  22  28
ENDBRANCH  21  25
ENDBRANCH  20  21
ENDBRANCH   1  20
TORSDOF 7
ENDMDL
MODEL 7
REMARK VINA RESULT:      -8.2      1.663      1.979
REMARK  Name = 
REMARK  8 active torsions:
REMARK  status: ('A' for Active; 'I' for Inactive)
REMARK    1  A    between atoms: C_1  and  S_2
REMARK    2  A    between atoms: S_2  and  N_5
REMARK    3  A    between atoms: N_5  and  C_6
REMARK    4  A    between atoms: C_9  and  C_10
REMARK    5  A    between atoms: C_10  and  C_11
REMARK    6  A    between atoms: C_11  and  N_12
REMARK    7  A    between atoms: C_13  and  C_15
REMARK    8  A    between atoms: C_21  and  C_22
REMARK                            x       y       z     vdW  Elec       q    Type
REMARK                         _______ _______ _______ _____ _____    ______ ____
ROOT
ATOM      1  N   UNL     1       2.201   7.453  19.367  0.00  0.00    +0.000 N 
ATOM      2  C   UNL     1       1.892   6.627  20.427  0.00  0.00    +0.000 C 
ATOM      3  O   UNL     1       1.197   6.982  21.374  0.00  0.00    +0.000 OA
ATOM      4  H   UNL     1       2.764   7.080  18.603  0.00  0.00    +0.000 HD
ENDROOT
BRANCH   2   5
ATOM      5  C   UNL     1       2.423   5.248  20.390  0.00  0.00    +0.000 A 
ATOM      6  C   UNL     1       1.951   4.290  21.300  0.00  0.00    +0.000 A 
ATOM      7  C   UNL     1       2.440   2.991  21.233  0.00  0.00    +0.000 A 
ATOM      8  N   UNL     1       3.352   2.537  20.341  0.00  0.00    +0.000 NA
ATOM      9  C   UNL     1       3.773   3.501  19.506  0.00  0.00    +0.000 A 
ATOM     10  N   UNL     1       4.684   3.358  18.502  0.00  0.00    +0.000 N 
ATOM     11  C   UNL     1       4.876   4.590  17.931  0.00  0.00    +0.000 A 
ATOM     12  N   UNL     1       4.087   5.500  18.473  0.00  0.00    +0.000 NA
ATOM     13  C   UNL     1       3.391   4.834  19.465  0.00  0.00    +0.000 A 
ATOM     14  H   UNL     1       5.154   2.499  18.267  0.00  0.00    +0.000 HD
BRANCH  11  15
ATOM     15  C   UNL     1       5.856   4.882  16.859  0.00  0.00    +0.000 A 
ATOM     16  C   UNL     1       6.169   4.068  15.745  0.00  0.00    +0.000 A 
ATOM     17  C   UNL     1       7.107   4.763  15.018  0.00  0.00    +0.000 A 
ATOM     18  O   UNL     1       7.397   5.946  15.622  0.00  0.00    +0.000 OA
ATOM     19  C   UNL     1       6.630   6.013  16.744  0.00  0.00    +0.000 A 
ENDBRANCH  11  15
ENDBRANCH   2   5
BRANCH   1  20
ATOM     20  C   UNL     1       1.682   8.806  19.303  0.00  0.00    +0.000 C 
BRANCH  20  21
ATOM     21  C   UNL     1       1.305   9.241  17.885  0.00  0.00    +0.000 C 
BRANCH  21  25
ATOM     22  C   UNL     1      -2.416  11.417  17.713  0.00  0.00    +0.000 A 
ATOM     23  C   UNL     1      -2.287  10.211  17.028  0.00  0.00    +0.000 A 
ATOM     24  C   UNL     1      -1.088   9.494  17.100  0.00  0.00    +0.000 A 
ATOM     25  C   UNL     1      -0.016   9.973  17.868  0.00  0.00    +0.000 A 
ATOM     26  C   UNL     1      -0.175  11.171  18.579  0.00  0.00    +0.000 A 
ATOM     27  C   UNL     1      -1.373  11.886  18.508  0.00  0.00    +0.000 A 
BRANCH  22  28
ATOM     28  N   UNL     1      -3.627  12.167  17.629  0.00  0.00    +0.000 N 
ATOM     29  H   UNL     1      -4.046  12.202  16.698  0.00  0.00    +0.000 HD
BRANCH  28  31
ATOM     30  C   UNL     1      -6.135  12.925  18.222  0.00  0.00    +0.000 C 
ATOM     31  S   UNL     1      -4.837  11.830  18.761  0.00  0.00    +0.000 S 
ATOM     32  O   UNL     1      -4.410  12.216  20.085  0.00  0.00    +0.000 OA
ATOM     33  O   UNL     1      -5.267  10.476  18.473  0.00  0.00    +0.000 OA
ENDBRANCH  28  31
ENDBRANCH  22  28
ENDBRANCH  21  25
ENDBRANCH  20  21
ENDBRANCH   1  20
TORSDOF 7
ENDMDL
MODEL 8
REMARK VINA RESULT:      -8.2      1.225      1.496
REMARK  Name = 
REMARK  8 active torsions:
REMARK  status: ('A' for Active; 'I' for Inactive)
REMARK    1  A    between atoms: C_1  and  S_2
REMARK    2  A    between atoms: S_2  and  N_5
REMARK    3  A    between atoms: N_5  and  C_6
REMARK    4  A    between atoms: C_9  and  C_10
REMARK    5  A    between atoms: C_10  and  C_11
REMARK    6  A    between atoms: C_11  and  N_12
REMARK    7  A    between atoms: C_13  and  C_15
REMARK    8  A    between atoms: C_21  and  C_22
REMARK                            x       y       z     vdW  Elec       q    Type
REMARK                         _______ _______ _______ _____ _____    ______ ____
ROOT
ATOM      1  N   UNL     1       2.353   7.722  18.614  0.00  0.00    +0.000 N 
ATOM      2  C   UNL     1       2.140   7.094  19.824  0.00  0.00    +0.000 C 
ATOM      3  O   UNL     1       1.656   7.661  20.798  0.00  0.00    +0.000 OA
ATOM      4  H   UNL     1       2.737   7.179  17.842  0.00  0.00    +0.000 HD
ENDROOT
BRANCH   2   5
ATOM      5  C   UNL     1       2.509   5.666  19.920  0.00  0.00    +0.000 A 
ATOM      6  C   UNL     1       1.961   4.867  20.935  0.00  0.00    +0.000 A 
ATOM      7  C   UNL     1       2.295   3.520  20.995  0.00  0.00    +0.000 A 
ATOM      8  N   UNL     1       3.120   2.873  20.136  0.00  0.00    +0.000 NA
ATOM      9  C   UNL     1       3.621   3.691  19.196  0.00  0.00    +0.000 A 
ATOM     10  N   UNL     1       4.476   3.342  18.195  0.00  0.00    +0.000 N 
ATOM     11  C   UNL     1       4.789   4.478  17.493  0.00  0.00    +0.000 A 
ATOM     12  N   UNL     1       4.127   5.524  17.953  0.00  0.00    +0.000 NA
ATOM     13  C   UNL     1       3.392   5.049  19.024  0.00  0.00    +0.000 A 
ATOM     14  H   UNL     1       4.837   2.414  18.041  0.00  0.00    +0.000 HD
BRANCH  11  15
ATOM     15  C   UNL     1       5.760   4.543  16.377  0.00  0.00    +0.000 A 
ATOM     16  C   UNL     1       5.492   4.351  15.000  0.00  0.00    +0.000 A 
ATOM     17  C   UNL     1       6.690   4.536  14.350  0.00  0.00    +0.000 A 
ATOM     18  O   UNL     1       7.676   4.816  15.241  0.00  0.00    +0.000 OA
ATOM     19  C   UNL     1       7.104   4.820  16.475  0.00  0.00    +0.000 A 
ENDBRANCH  11  15
ENDBRANCH   2   5
BRANCH   1  20
ATOM     20  C   UNL     1       1.976   9.109  18.421  0.00  0.00    +0.000 C 
BRANCH  20  21
ATOM     21  C   UNL     1       0.613   9.275  17.746  0.00  0.00    +0.000 C 
BRANCH  21  25
ATOM     22  C   UNL     1      -1.875  12.005  19.976  0.00  0.00    +0.000 A 
ATOM     23  C   UNL     1      -2.240  11.633  18.684  0.00  0.00    +0.000 A 
ATOM     24  C   UNL     1      -1.445  10.731  17.969  0.00  0.00    +0.000 A 
ATOM     25  C   UNL     1      -0.288  10.188  18.545  0.00  0.00    +0.000 A 
ATOM     26  C   UNL     1       0.047  10.547  19.858  0.00  0.00    +0.000 A 
ATOM     27  C   UNL     1      -0.748  11.445  20.574  0.00  0.00    +0.000 A 
BRANCH  22  28
ATOM     28  N   UNL     1      -2.667  12.940  20.707  0.00  0.00    +0.000 N 
ATOM     29  H   UNL     1      -3.056  12.582  21.581  0.00  0.00    +0.000 HD
BRANCH  28  31
ATOM     30  C   UNL     1      -3.472  15.487  20.988  0.00  0.00    +0.000 C 
ATOM     31  S   UNL     1      -2.008  14.472  20.988  0.00  0.00    +0.000 S 
ATOM     32  O   UNL     1      -1.159  14.865  19.889  0.00  0.00    +0.000 OA
ATOM     33  O   UNL     1      -1.509  14.432  22.348  0.00  0.00    +0.000 OA
ENDBRANCH  28  31
ENDBRANCH  22  28
ENDBRANCH  21  25
ENDBRANCH  20  21
ENDBRANCH   1  20
TORSDOF 7
ENDMDL
MODEL 9
REMARK VINA RESULT:      -8.2      2.263      2.470
REMARK  Name = 
REMARK  8 active torsions:
REMARK  status: ('A' for Active; 'I' for Inactive)
REMARK    1  A    between atoms: C_1  and  S_2
REMARK    2  A    between atoms: S_2  and  N_5
REMARK    3  A    between atoms: N_5  and  C_6
REMARK    4  A    between atoms: C_9  and  C_10
REMARK    5  A    between atoms: C_10  and  C_11
REMARK    6  A    between atoms: C_11  and  N_12
REMARK    7  A    between atoms: C_13  and  C_15
REMARK    8  A    between atoms: C_21  and  C_22
REMARK                            x       y       z     vdW  Elec       q    Type
REMARK                         _______ _______ _______ _____ _____    ______ ____
ROOT
ATOM      1  N   UNL     1       1.806   7.461  21.043  0.00  0.00    +0.000 N 
ATOM      2  C   UNL     1       2.318   6.959  19.866  0.00  0.00    +0.000 C 
ATOM      3  O   UNL     1       2.497   7.645  18.864  0.00  0.00    +0.000 OA
ATOM      4  H   UNL     1       1.708   6.835  21.841  0.00  0.00    +0.000 HD
ENDROOT
BRANCH   2   5
ATOM      5  C   UNL     1       2.676   5.525  19.840  0.00  0.00    +0.000 A 
ATOM      6  C   UNL     1       2.150   4.653  20.806  0.00  0.00    +0.000 A 
ATOM      7  C   UNL     1       2.472   3.303  20.750  0.00  0.00    +0.000 A 
ATOM      8  N   UNL     1       3.265   2.719  19.819  0.00  0.00    +0.000 NA
ATOM      9  C   UNL     1       3.746   3.604  18.931  0.00  0.00    +0.000 A 
ATOM     10  N   UNL     1       4.568   3.327  17.880  0.00  0.00    +0.000 N 
ATOM     11  C   UNL     1       4.871   4.513  17.260  0.00  0.00    +0.000 A 
ATOM     12  N   UNL     1       4.233   5.525  17.819  0.00  0.00    +0.000 NA
ATOM     13  C   UNL     1       3.526   4.973  18.872  0.00  0.00    +0.000 A 
ATOM     14  H   UNL     1       4.915   2.412  17.644  0.00  0.00    +0.000 HD
BRANCH  11  15
ATOM     15  C   UNL     1       5.810   4.657  16.123  0.00  0.00    +0.000 A 
ATOM     16  C   UNL     1       5.626   4.188  14.801  0.00  0.00    +0.000 A 
ATOM     17  C   UNL     1       6.743   4.579  14.100  0.00  0.00    +0.000 A 
ATOM     18  O   UNL     1       7.603   5.248  14.911  0.00  0.00    +0.000 OA
ATOM     19  C   UNL     1       7.029   5.293  16.144  0.00  0.00    +0.000 A 
ENDBRANCH  11  15
ENDBRANCH   2   5
BRANCH   1  20
ATOM     20  C   UNL     1       1.473   8.868  21.167  0.00  0.00    +0.000 C 
BRANCH  20  21
ATOM     21  C   UNL     1       0.153   9.236  20.486  0.00  0.00    +0.000 C 
BRANCH  21  25
ATOM     22  C   UNL     1      -1.942  12.429  22.495  0.00  0.00    +0.000 A 
ATOM     23  C   UNL     1      -1.444  11.356  23.231  0.00  0.00    +0.000 A 
ATOM     24  C   UNL     1      -0.747  10.331  22.583  0.00  0.00    +0.000 A 
ATOM     25  C   UNL     1      -0.532  10.380  21.199  0.00  0.00    +0.000 A 
ATOM     26  C   UNL     1      -1.010  11.483  20.477  0.00  0.00    +0.000 A 
ATOM     27  C   UNL     1      -1.705  12.507  21.125  0.00  0.00    +0.000 A 
BRANCH  22  28
ATOM     28  N   UNL     1      -2.673  13.469  23.142  0.00  0.00    +0.000 N 
ATOM     29  H   UNL     1      -2.590  14.389  22.705  0.00  0.00    +0.000 HD
BRANCH  28  31
ATOM     30  C   UNL     1      -4.936  12.746  21.889  0.00  0.00    +0.000 C 
ATOM     31  S   UNL     1      -4.301  13.178  23.496  0.00  0.00    +0.000 S 
ATOM     32  O   UNL     1      -4.942  14.389  23.950  0.00  0.00    +0.000 OA
ATOM     33  O   UNL     1      -4.310  11.974  24.302  0.00  0.00    +0.000 OA
ENDBRANCH  28  31
ENDBRANCH  22  28
ENDBRANCH  21  25
ENDBRANCH  20  21
ENDBRANCH   1  20
TORSDOF 7
ENDMDL
