MODEL 1
REMARK VINA RESULT:      -9.5      0.000      0.000
REMARK  Name = 
REMARK  5 active torsions:
REMARK  status: ('A' for Active; 'I' for Inactive)
REMARK    1  A    between atoms: C_2  and  C_14
REMARK    2  A    between atoms: N_3  and  C_4
REMARK    3  A    between atoms: C_4  and  C_5
REMARK    4  A    between atoms: C_17  and  N_18
REMARK    5  A    between atoms: C_22  and  C_23
REMARK                            x       y       z     vdW  Elec       q    Type
REMARK                         _______ _______ _______ _____ _____    ______ ____
ROOT
ATOM      1  C   UNL     1       2.398   7.122  19.390  0.00  0.00    +0.000 A 
ATOM      2  S   UNL     1       2.458   5.532  20.075  0.00  0.00    +0.000 S 
ATOM      3  C   UNL     1       3.499   5.067  18.772  0.00  0.00    +0.000 A 
ATOM      4  C   UNL     1       4.100   3.816  18.532  0.00  0.00    +0.000 A 
ATOM      5  C   UNL     1       4.961   3.653  17.436  0.00  0.00    +0.000 A 
ATOM      6  C   UNL     1       5.225   4.715  16.558  0.00  0.00    +0.000 A 
ATOM      7  C   UNL     1       4.612   5.967  16.776  0.00  0.00    +0.000 A 
ATOM      8  C   UNL     1       3.757   6.129  17.888  0.00  0.00    +0.000 A 
ATOM      9  N   UNL     1       3.088   7.251  18.287  0.00  0.00    +0.000 N 
ATOM     10  O   UNL     1       3.097   8.375  17.705  0.00  0.00    +0.000 OA
ENDROOT
BRANCH   1  12
ATOM     11  O   UNL     1       1.318   7.964  21.291  0.00  0.00    +0.000 OA
ATOM     12  C   UNL     1       1.621   8.108  20.105  0.00  0.00    +0.000 C 
ATOM     13  N   UNL     1       1.216   9.232  19.428  0.00  0.00    +0.000 N 
ATOM     14  H   UNL     1       1.494   9.349  18.455  0.00  0.00    +0.000 HD
BRANCH  13  15
ATOM     15  C   UNL     1       0.392  10.235  20.068  0.00  0.00    +0.000 C 
BRANCH  15  16
ATOM     16  C   UNL     1      -0.783  10.617  19.208  0.00  0.00    +0.000 A 
ATOM     17  C   UNL     1      -1.717  11.574  19.660  0.00  0.00    +0.000 A 
ATOM     18  C   UNL     1      -2.838  11.899  18.892  0.00  0.00    +0.000 A 
ATOM     19  C   UNL     1      -2.983  11.286  17.667  0.00  0.00    +0.000 A 
ATOM     20  C   UNL     1      -2.064  10.363  17.194  0.00  0.00    +0.000 A 
ATOM     21  C   UNL     1      -0.961  10.008  17.952  0.00  0.00    +0.000 A 
ATOM     22  C   UNL     1      -2.517   9.854  15.881  0.00  0.00    +0.000 C 
ATOM     23  C   UNL     1      -3.579  10.910  15.571  0.00  0.00    +0.000 C 
ATOM     24  O   UNL     1      -4.030  11.507  16.810  0.00  0.00    +0.000 OA
ENDBRANCH  15  16
ENDBRANCH  13  15
ENDBRANCH   1  12
BRANCH   6  25
ATOM     25  C   UNL     1       6.170   4.513  15.389  0.00  0.00    +0.000 C 
ATOM     26  F   UNL     1       5.951   3.345  14.724  0.00  0.00    +0.000 F 
ATOM     27  F   UNL     1       6.062   5.499  14.461  0.00  0.00    +0.000 F 
ATOM     28  F   UNL     1       7.473   4.488  15.775  0.00  0.00    +0.000 F 
ENDBRANCH   6  25
BRANCH   4  29
ATOM     29  N   UNL     1       3.881   2.662  19.388  0.00  0.00    +0.000 N 
ATOM     30  O   UNL     1       4.805   2.340  20.143  0.00  0.00    +0.000 OA
ATOM     31  O   UNL     1       2.777   2.111  19.309  0.00  0.00    +0.000 OA
ENDBRANCH   4  29
TORSDOF 5
ENDMDL
MODEL 2
REMARK VINA RESULT:      -9.0      0.625      1.443
REMARK  Name = 
REMARK  5 active torsions:
REMARK  status: ('A' for Active; 'I' for Inactive)
REMARK    1  A    between atoms: C_2  and  C_14
REMARK    2  A    between atoms: N_3  and  C_4
REMARK    3  A    between atoms: C_4  and  C_5
REMARK    4  A    between atoms: C_17  and  N_18
REMARK    5  A    between atoms: C_22  and  C_23
REMARK                            x       y       z     vdW  Elec       q    Type
REMARK                         _______ _______ _______ _____ _____    ______ ____
ROOT
ATOM      1  C   UNL     1       2.400   7.258  19.173  0.00  0.00    +0.000 A 
ATOM      2  S   UNL     1       2.450   5.700  19.929  0.00  0.00    +0.000 S 
ATOM      3  C   UNL     1       3.522   5.183  18.672  0.00  0.00    +0.000 A 
ATOM      4  C   UNL     1       4.132   3.926  18.501  0.00  0.00    +0.000 A 
ATOM      5  C   UNL     1       5.019   3.719  17.433  0.00  0.00    +0.000 A 
ATOM      6  C   UNL     1       5.299   4.742  16.515  0.00  0.00    +0.000 A 
ATOM      7  C   UNL     1       4.677   5.999  16.663  0.00  0.00    +0.000 A 
ATOM      8  C   UNL     1       3.796   6.206  17.747  0.00  0.00    +0.000 A 
ATOM      9  N   UNL     1       3.114   7.342  18.080  0.00  0.00    +0.000 N 
ATOM     10  O   UNL     1       3.132   8.439  17.450  0.00  0.00    +0.000 OA
ENDROOT
BRANCH   1  12
ATOM     11  O   UNL     1       1.415   8.269  21.043  0.00  0.00    +0.000 OA
ATOM     12  C   UNL     1       1.602   8.271  19.826  0.00  0.00    +0.000 C 
ATOM     13  N   UNL     1       1.045   9.258  19.051  0.00  0.00    +0.000 N 
ATOM     14  H   UNL     1       1.227   9.262  18.049  0.00  0.00    +0.000 HD
BRANCH  13  15
ATOM     15  C   UNL     1       0.193  10.274  19.631  0.00  0.00    +0.000 C 
BRANCH  15  16
ATOM     16  C   UNL     1      -1.044  10.500  18.804  0.00  0.00    +0.000 A 
ATOM     17  C   UNL     1      -1.144   9.957  17.505  0.00  0.00    +0.000 A 
ATOM     18  C   UNL     1      -2.266  10.202  16.710  0.00  0.00    +0.000 A 
ATOM     19  C   UNL     1      -3.286  10.958  17.246  0.00  0.00    +0.000 A 
ATOM     20  C   UNL     1      -3.219  11.478  18.529  0.00  0.00    +0.000 A 
ATOM     21  C   UNL     1      -2.103  11.269  19.321  0.00  0.00    +0.000 A 
ATOM     22  C   UNL     1      -4.437  12.274  18.795  0.00  0.00    +0.000 C 
ATOM     23  C   UNL     1      -5.302  11.780  17.634  0.00  0.00    +0.000 C 
ATOM     24  O   UNL     1      -4.442  11.278  16.584  0.00  0.00    +0.000 OA
ENDBRANCH  15  16
ENDBRANCH  13  15
ENDBRANCH   1  12
BRANCH   6  25
ATOM     25  C   UNL     1       6.271   4.492  15.378  0.00  0.00    +0.000 C 
ATOM     26  F   UNL     1       6.092   3.283  14.780  0.00  0.00    +0.000 F 
ATOM     27  F   UNL     1       6.160   5.419  14.390  0.00  0.00    +0.000 F 
ATOM     28  F   UNL     1       7.566   4.521  15.789  0.00  0.00    +0.000 F 
ENDBRANCH   6  25
BRANCH   4  29
ATOM     29  N   UNL     1       3.899   2.809  19.402  0.00  0.00    +0.000 N 
ATOM     30  O   UNL     1       2.776   2.295  19.379  0.00  0.00    +0.000 OA
ATOM     31  O   UNL     1       4.854   2.448  20.101  0.00  0.00    +0.000 OA
ENDBRANCH   4  29
TORSDOF 5
ENDMDL
MODEL 3
REMARK VINA RESULT:      -8.8      4.669      8.948
REMARK  Name = 
REMARK  5 active torsions:
REMARK  status: ('A' for Active; 'I' for Inactive)
REMARK    1  A    between atoms: C_2  and  C_14
REMARK    2  A    between atoms: N_3  and  C_4
REMARK    3  A    between atoms: C_4  and  C_5
REMARK    4  A    between atoms: C_17  and  N_18
REMARK    5  A    between atoms: C_22  and  C_23
REMARK                            x       y       z     vdW  Elec       q    Type
REMARK                         _______ _______ _______ _____ _____    ______ ____
ROOT
ATOM      1  C   UNL     1       1.889   7.873  19.408  0.00  0.00    +0.000 A 
ATOM      2  S   UNL     1       1.295   7.984  21.031  0.00  0.00    +0.000 S 
ATOM      3  C   UNL     1       0.777   9.597  20.676  0.00  0.00    +0.000 A 
ATOM      4  C   UNL     1       0.110  10.510  21.515  0.00  0.00    +0.000 A 
ATOM      5  C   UNL     1      -0.273  11.766  21.018  0.00  0.00    +0.000 A 
ATOM      6  C   UNL     1       0.011  12.138  19.696  0.00  0.00    +0.000 A 
ATOM      7  C   UNL     1       0.697  11.240  18.851  0.00  0.00    +0.000 A 
ATOM      8  C   UNL     1       1.069   9.974  19.353  0.00  0.00    +0.000 A 
ATOM      9  N   UNL     1       1.714   8.960  18.702  0.00  0.00    +0.000 N 
ATOM     10  O   UNL     1       2.125   8.980  17.506  0.00  0.00    +0.000 OA
ENDROOT
BRANCH   1  12
ATOM     11  O   UNL     1       1.973   5.884  18.172  0.00  0.00    +0.000 OA
ATOM     12  C   UNL     1       2.486   6.616  19.020  0.00  0.00    +0.000 C 
ATOM     13  N   UNL     1       3.661   6.241  19.624  0.00  0.00    +0.000 N 
ATOM     14  H   UNL     1       4.087   6.866  20.306  0.00  0.00    +0.000 HD
BRANCH  13  15
ATOM     15  C   UNL     1       4.287   4.972  19.321  0.00  0.00    +0.000 C 
BRANCH  15  16
ATOM     16  C   UNL     1       5.211   5.078  18.137  0.00  0.00    +0.000 A 
ATOM     17  C   UNL     1       6.467   5.707  18.266  0.00  0.00    +0.000 A 
ATOM     18  C   UNL     1       7.311   5.855  17.162  0.00  0.00    +0.000 A 
ATOM     19  C   UNL     1       6.894   5.336  15.956  0.00  0.00    +0.000 A 
ATOM     20  C   UNL     1       5.676   4.691  15.815  0.00  0.00    +0.000 A 
ATOM     21  C   UNL     1       4.815   4.559  16.890  0.00  0.00    +0.000 A 
ATOM     22  C   UNL     1       5.499   4.290  14.401  0.00  0.00    +0.000 C 
ATOM     23  C   UNL     1       6.940   4.470  13.921  0.00  0.00    +0.000 C 
ATOM     24  O   UNL     1       7.616   5.407  14.792  0.00  0.00    +0.000 OA
ENDBRANCH  15  16
ENDBRANCH  13  15
ENDBRANCH   1  12
BRANCH   6  25
ATOM     25  C   UNL     1      -0.427  13.496  19.182  0.00  0.00    +0.000 C 
ATOM     26  F   UNL     1       0.474  14.482  19.448  0.00  0.00    +0.000 F 
ATOM     27  F   UNL     1      -0.607  13.506  17.835  0.00  0.00    +0.000 F 
ATOM     28  F   UNL     1      -1.602  13.903  19.731  0.00  0.00    +0.000 F 
ENDBRANCH   6  25
BRANCH   4  29
ATOM     29  N   UNL     1      -0.223  10.209  22.897  0.00  0.00    +0.000 N 
ATOM     30  O   UNL     1      -1.376  10.458  23.264  0.00  0.00    +0.000 OA
ATOM     31  O   UNL     1       0.669   9.702  23.588  0.00  0.00    +0.000 OA
ENDBRANCH   4  29
TORSDOF 5
ENDMDL
MODEL 4
REMARK VINA RESULT:      -8.3      0.963      1.314
REMARK  Name = 
REMARK  5 active torsions:
REMARK  status: ('A' for Active; 'I' for Inactive)
REMARK    1  A    between atoms: C_2  and  C_14
REMARK    2  A    between atoms: N_3  and  C_4
REMARK    3  A    between atoms: C_4  and  C_5
REMARK    4  A    between atoms: C_17  and  N_18
REMARK    5  A    between atoms: C_22  and  C_23
REMARK                            x       y       z     vdW  Elec       q    Type
REMARK                         _______ _______ _______ _____ _____    ______ ____
ROOT
ATOM      1  C   UNL     1       2.355   6.497  19.795  0.00  0.00    +0.000 A 
ATOM      2  S   UNL     1       2.593   4.847  20.266  0.00  0.00    +0.000 S 
ATOM      3  C   UNL     1       3.557   4.635  18.843  0.00  0.00    +0.000 A 
ATOM      4  C   UNL     1       4.230   3.479  18.403  0.00  0.00    +0.000 A 
ATOM      5  C   UNL     1       5.009   3.525  17.237  0.00  0.00    +0.000 A 
ATOM      6  C   UNL     1       5.118   4.704  16.485  0.00  0.00    +0.000 A 
ATOM      7  C   UNL     1       4.431   5.863  16.904  0.00  0.00    +0.000 A 
ATOM      8  C   UNL     1       3.659   5.815  18.085  0.00  0.00    +0.000 A 
ATOM      9  N   UNL     1       2.941   6.819  18.670  0.00  0.00    +0.000 N 
ATOM     10  O   UNL     1       2.816   8.001  18.238  0.00  0.00    +0.000 OA
ENDROOT
BRANCH   1  12
ATOM     11  O   UNL     1       0.593   6.870  21.293  0.00  0.00    +0.000 OA
ATOM     12  C   UNL     1       1.565   7.318  20.683  0.00  0.00    +0.000 C 
ATOM     13  N   UNL     1       1.923   8.634  20.841  0.00  0.00    +0.000 N 
ATOM     14  H   UNL     1       2.743   8.986  20.350  0.00  0.00    +0.000 HD
BRANCH  13  15
ATOM     15  C   UNL     1       1.146   9.526  21.675  0.00  0.00    +0.000 C 
BRANCH  15  16
ATOM     16  C   UNL     1       0.077  10.234  20.886  0.00  0.00    +0.000 A 
ATOM     17  C   UNL     1      -0.614  11.330  21.443  0.00  0.00    +0.000 A 
ATOM     18  C   UNL     1      -1.642  11.962  20.738  0.00  0.00    +0.000 A 
ATOM     19  C   UNL     1      -1.934  11.506  19.471  0.00  0.00    +0.000 A 
ATOM     20  C   UNL     1      -1.248  10.447  18.896  0.00  0.00    +0.000 A 
ATOM     21  C   UNL     1      -0.246   9.792  19.589  0.00  0.00    +0.000 A 
ATOM     22  C   UNL     1      -1.818  10.168  17.559  0.00  0.00    +0.000 C 
ATOM     23  C   UNL     1      -2.620  11.457  17.370  0.00  0.00    +0.000 C 
ATOM     24  O   UNL     1      -2.913  12.028  18.667  0.00  0.00    +0.000 OA
ENDBRANCH  15  16
ENDBRANCH  13  15
ENDBRANCH   1  12
BRANCH   6  25
ATOM     25  C   UNL     1       5.977   4.728  15.236  0.00  0.00    +0.000 C 
ATOM     26  F   UNL     1       6.114   3.501  14.661  0.00  0.00    +0.000 F 
ATOM     27  F   UNL     1       5.467   5.539  14.272  0.00  0.00    +0.000 F 
ATOM     28  F   UNL     1       7.239   5.170  15.483  0.00  0.00    +0.000 F 
ENDBRANCH   6  25
BRANCH   4  29
ATOM     29  N   UNL     1       4.172   2.215  19.119  0.00  0.00    +0.000 N 
ATOM     30  O   UNL     1       4.863   2.114  20.137  0.00  0.00    +0.000 OA
ATOM     31  O   UNL     1       3.412   1.352  18.663  0.00  0.00    +0.000 OA
ENDBRANCH   4  29
TORSDOF 5
ENDMDL
MODEL 5
REMARK VINA RESULT:      -8.3      2.218      2.990
REMARK  Name = 
REMARK  5 active torsions:
REMARK  status: ('A' for Active; 'I' for Inactive)
REMARK    1  A    between atoms: C_2  and  C_14
REMARK    2  A    between atoms: N_3  and  C_4
REMARK    3  A    between atoms: C_4  and  C_5
REMARK    4  A    between atoms: C_17  and  N_18
REMARK    5  A    between atoms: C_22  and  C_23
REMARK                            x       y       z     vdW  Elec       q    Type
REMARK                         _______ _______ _______ _____ _____    ______ ____
ROOT
ATOM      1  C   UNL     1       2.378   7.149  19.351  0.00  0.00    +0.000 A 
ATOM      2  S   UNL     1       2.422   5.555  20.027  0.00  0.00    +0.000 S 
ATOM      3  C   UNL     1       3.479   5.093  18.736  0.00  0.00    +0.000 A 
ATOM      4  C   UNL     1       4.078   3.841  18.497  0.00  0.00    +0.000 A 
ATOM      5  C   UNL     1       4.954   3.681  17.412  0.00  0.00    +0.000 A 
ATOM      6  C   UNL     1       5.234   4.747  16.544  0.00  0.00    +0.000 A 
ATOM      7  C   UNL     1       4.624   6.000  16.761  0.00  0.00    +0.000 A 
ATOM      8  C   UNL     1       3.754   6.159  17.862  0.00  0.00    +0.000 A 
ATOM      9  N   UNL     1       3.084   7.282  18.258  0.00  0.00    +0.000 N 
ATOM     10  O   UNL     1       3.105   8.409  17.683  0.00  0.00    +0.000 OA
ENDROOT
BRANCH   1  12
ATOM     11  O   UNL     1       1.465   8.105  21.285  0.00  0.00    +0.000 OA
ATOM     12  C   UNL     1       1.595   8.134  20.060  0.00  0.00    +0.000 C 
ATOM     13  N   UNL     1       0.984   9.125  19.333  0.00  0.00    +0.000 N 
ATOM     14  H   UNL     1       1.119   9.152  18.324  0.00  0.00    +0.000 HD
BRANCH  13  15
ATOM     15  C   UNL     1       0.143  10.114  19.973  0.00  0.00    +0.000 C 
BRANCH  15  16
ATOM     16  C   UNL     1       0.494  11.510  19.533  0.00  0.00    +0.000 A 
ATOM     17  C   UNL     1       1.662  11.748  18.778  0.00  0.00    +0.000 A 
ATOM     18  C   UNL     1       2.024  13.045  18.407  0.00  0.00    +0.000 A 
ATOM     19  C   UNL     1       1.187  14.078  18.768  0.00  0.00    +0.000 A 
ATOM     20  C   UNL     1       0.022  13.863  19.486  0.00  0.00    +0.000 A 
ATOM     21  C   UNL     1      -0.339  12.588  19.886  0.00  0.00    +0.000 A 
ATOM     22  C   UNL     1      -0.631  15.163  19.756  0.00  0.00    +0.000 C 
ATOM     23  C   UNL     1       0.144  16.028  18.761  0.00  0.00    +0.000 C 
ATOM     24  O   UNL     1       1.414  15.398  18.474  0.00  0.00    +0.000 OA
ENDBRANCH  15  16
ENDBRANCH  13  15
ENDBRANCH   1  12
BRANCH   6  25
ATOM     25  C   UNL     1       6.194   4.547  15.388  0.00  0.00    +0.000 C 
ATOM     26  F   UNL     1       6.154   5.563  14.481  0.00  0.00    +0.000 F 
ATOM     27  F   UNL     1       7.487   4.462  15.798  0.00  0.00    +0.000 F 
ATOM     28  F   UNL     1       5.935   3.410  14.690  0.00  0.00    +0.000 F 
ENDBRANCH   6  25
BRANCH   4  29
ATOM     29  N   UNL     1       3.843   2.683  19.343  0.00  0.00    +0.000 N 
ATOM     30  O   UNL     1       2.759   2.105  19.217  0.00  0.00    +0.000 OA
ATOM     31  O   UNL     1       4.762   2.354  20.104  0.00  0.00    +0.000 OA
ENDBRANCH   4  29
TORSDOF 5
ENDMDL
MODEL 6
REMARK VINA RESULT:      -8.3      2.411      3.307
REMARK  Name = 
REMARK  5 active torsions:
REMARK  status: ('A' for Active; 'I' for Inactive)
REMARK    1  A    between atoms: C_2  and  C_14
REMARK    2  A    between atoms: N_3  and  C_4
REMARK    3  A    between atoms: C_4  and  C_5
REMARK    4  A    between atoms: C_17  and  N_18
REMARK    5  A    between atoms: C_22  and  C_23
REMARK                            x       y       z     vdW  Elec       q    Type
REMARK                         _______ _______ _______ _____ _____    ______ ____
ROOT
ATOM      1  C   UNL     1       2.310   7.183  19.493  0.00  0.00    +0.000 A 
ATOM      2  S   UNL     1       2.378   5.593  20.179  0.00  0.00    +0.000 S 
ATOM      3  C   UNL     1       3.425   5.134  18.879  0.00  0.00    +0.000 A 
ATOM      4  C   UNL     1       4.034   3.887  18.640  0.00  0.00    +0.000 A 
ATOM      5  C   UNL     1       4.899   3.729  17.546  0.00  0.00    +0.000 A 
ATOM      6  C   UNL     1       5.157   4.792  16.668  0.00  0.00    +0.000 A 
ATOM      7  C   UNL     1       4.537   6.041  16.884  0.00  0.00    +0.000 A 
ATOM      8  C   UNL     1       3.678   6.197  17.994  0.00  0.00    +0.000 A 
ATOM      9  N   UNL     1       3.002   7.316  18.391  0.00  0.00    +0.000 N 
ATOM     10  O   UNL     1       3.004   8.439  17.809  0.00  0.00    +0.000 OA
ENDROOT
BRANCH   1  12
ATOM     11  O   UNL     1       1.444   8.166  21.435  0.00  0.00    +0.000 OA
ATOM     12  C   UNL     1       1.524   8.164  20.206  0.00  0.00    +0.000 C 
ATOM     13  N   UNL     1       0.855   9.115  19.476  0.00  0.00    +0.000 N 
ATOM     14  H   UNL     1       0.949   9.116  18.462  0.00  0.00    +0.000 HD
BRANCH  13  15
ATOM     15  C   UNL     1       0.009  10.096  20.121  0.00  0.00    +0.000 C 
BRANCH  15  16
ATOM     16  C   UNL     1       0.653  11.457  20.139  0.00  0.00    +0.000 A 
ATOM     17  C   UNL     1       0.379  12.362  21.186  0.00  0.00    +0.000 A 
ATOM     18  C   UNL     1       0.932  13.646  21.187  0.00  0.00    +0.000 A 
ATOM     19  C   UNL     1       1.780  13.985  20.155  0.00  0.00    +0.000 A 
ATOM     20  C   UNL     1       2.083  13.101  19.132  0.00  0.00    +0.000 A 
ATOM     21  C   UNL     1       1.523  11.835  19.100  0.00  0.00    +0.000 A 
ATOM     22  C   UNL     1       2.977  13.768  18.161  0.00  0.00    +0.000 C 
ATOM     23  C   UNL     1       3.397  14.969  19.011  0.00  0.00    +0.000 C 
ATOM     24  O   UNL     1       2.393  15.204  20.026  0.00  0.00    +0.000 OA
ENDBRANCH  15  16
ENDBRANCH  13  15
ENDBRANCH   1  12
BRANCH   6  25
ATOM     25  C   UNL     1       6.106   4.595  15.502  0.00  0.00    +0.000 C 
ATOM     26  F   UNL     1       7.411   4.796  15.837  0.00  0.00    +0.000 F 
ATOM     27  F   UNL     1       6.040   3.339  14.988  0.00  0.00    +0.000 F 
ATOM     28  F   UNL     1       5.847   5.446  14.474  0.00  0.00    +0.000 F 
ENDBRANCH   6  25
BRANCH   4  29
ATOM     29  N   UNL     1       3.821   2.732  19.496  0.00  0.00    +0.000 N 
ATOM     30  O   UNL     1       2.711   2.193  19.446  0.00  0.00    +0.000 OA
ATOM     31  O   UNL     1       4.781   2.366  20.187  0.00  0.00    +0.000 OA
ENDBRANCH   4  29
TORSDOF 5
ENDMDL
MODEL 7
REMARK VINA RESULT:      -8.3      2.230      3.147
REMARK  Name = 
REMARK  5 active torsions:
REMARK  status: ('A' for Active; 'I' for Inactive)
REMARK    1  A    between atoms: C_2  and  C_14
REMARK    2  A    between atoms: N_3  and  C_4
REMARK    3  A    between atoms: C_4  and  C_5
REMARK    4  A    between atoms: C_17  and  N_18
REMARK    5  A    between atoms: C_22  and  C_23
REMARK                            x       y       z     vdW  Elec       q    Type
REMARK                         _______ _______ _______ _____ _____    ______ ____
ROOT
ATOM      1  C   UNL     1       2.248   7.233  19.577  0.00  0.00    +0.000 A 
ATOM      2  S   UNL     1       2.328   5.641  20.255  0.00  0.00    +0.000 S 
ATOM      3  C   UNL     1       3.347   5.186  18.931  0.00  0.00    +0.000 A 
ATOM      4  C   UNL     1       3.949   3.939  18.675  0.00  0.00    +0.000 A 
ATOM      5  C   UNL     1       4.791   3.784  17.562  0.00  0.00    +0.000 A 
ATOM      6  C   UNL     1       5.033   4.851  16.684  0.00  0.00    +0.000 A 
ATOM      7  C   UNL     1       4.419   6.099  16.918  0.00  0.00    +0.000 A 
ATOM      8  C   UNL     1       3.583   6.252  18.046  0.00  0.00    +0.000 A 
ATOM      9  N   UNL     1       2.917   7.370  18.462  0.00  0.00    +0.000 N 
ATOM     10  O   UNL     1       2.909   8.496  17.885  0.00  0.00    +0.000 OA
ENDROOT
BRANCH   1  12
ATOM     11  O   UNL     1       1.419   8.206  21.541  0.00  0.00    +0.000 OA
ATOM     12  C   UNL     1       1.479   8.212  20.310  0.00  0.00    +0.000 C 
ATOM     13  N   UNL     1       0.802   9.172  19.599  0.00  0.00    +0.000 N 
ATOM     14  H   UNL     1       0.880   9.181  18.583  0.00  0.00    +0.000 HD
BRANCH  13  15
ATOM     15  C   UNL     1      -0.028  10.152  20.265  0.00  0.00    +0.000 C 
BRANCH  15  16
ATOM     16  C   UNL     1       0.307  11.553  19.827  0.00  0.00    +0.000 A 
ATOM     17  C   UNL     1      -0.564  12.262  18.974  0.00  0.00    +0.000 A 
ATOM     18  C   UNL     1      -0.239  13.544  18.521  0.00  0.00    +0.000 A 
ATOM     19  C   UNL     1       0.939  14.106  18.963  0.00  0.00    +0.000 A 
ATOM     20  C   UNL     1       1.795  13.437  19.823  0.00  0.00    +0.000 A 
ATOM     21  C   UNL     1       1.503  12.156  20.260  0.00  0.00    +0.000 A 
ATOM     22  C   UNL     1       2.986  14.278  20.077  0.00  0.00    +0.000 C 
ATOM     23  C   UNL     1       2.451  15.610  19.547  0.00  0.00    +0.000 C 
ATOM     24  O   UNL     1       1.385  15.351  18.604  0.00  0.00    +0.000 OA
ENDBRANCH  15  16
ENDBRANCH  13  15
ENDBRANCH   1  12
BRANCH   6  25
ATOM     25  C   UNL     1       5.957   4.658  15.497  0.00  0.00    +0.000 C 
ATOM     26  F   UNL     1       5.483   5.228  14.355  0.00  0.00    +0.000 F 
ATOM     27  F   UNL     1       7.186   5.200  15.705  0.00  0.00    +0.000 F 
ATOM     28  F   UNL     1       6.159   3.345  15.206  0.00  0.00    +0.000 F 
ENDBRANCH   6  25
BRANCH   4  29
ATOM     29  N   UNL     1       3.752   2.780  19.530  0.00  0.00    +0.000 N 
ATOM     30  O   UNL     1       2.643   2.238  19.494  0.00  0.00    +0.000 OA
ATOM     31  O   UNL     1       4.722   2.416  20.206  0.00  0.00    +0.000 OA
ENDBRANCH   4  29
TORSDOF 5
ENDMDL
MODEL 8
REMARK VINA RESULT:      -8.3      4.303      8.729
REMARK  Name = 
REMARK  5 active torsions:
REMARK  status: ('A' for Active; 'I' for Inactive)
REMARK    1  A    between atoms: C_2  and  C_14
REMARK    2  A    between atoms: N_3  and  C_4
REMARK    3  A    between atoms: C_4  and  C_5
REMARK    4  A    between atoms: C_17  and  N_18
REMARK    5  A    between atoms: C_22  and  C_23
REMARK                            x       y       z     vdW  Elec       q    Type
REMARK                         _______ _______ _______ _____ _____    ______ ____
ROOT
ATOM      1  C   UNL     1       2.458   7.112  19.312  0.00  0.00    +0.000 A 
ATOM      2  S   UNL     1       1.734   7.229  20.882  0.00  0.00    +0.000 S 
ATOM      3  C   UNL     1       1.072   8.756  20.404  0.00  0.00    +0.000 A 
ATOM      4  C   UNL     1       0.248   9.626  21.144  0.00  0.00    +0.000 A 
ATOM      5  C   UNL     1      -0.232  10.805  20.555  0.00  0.00    +0.000 A 
ATOM      6  C   UNL     1       0.110  11.147  19.238  0.00  0.00    +0.000 A 
ATOM      7  C   UNL     1       0.951  10.295  18.493  0.00  0.00    +0.000 A 
ATOM      8  C   UNL     1       1.420   9.102  19.087  0.00  0.00    +0.000 A 
ATOM      9  N   UNL     1       2.219   8.140  18.538  0.00  0.00    +0.000 N 
ATOM     10  O   UNL     1       2.715   8.151  17.375  0.00  0.00    +0.000 OA
ENDROOT
BRANCH   1  12
ATOM     11  O   UNL     1       4.033   5.460  19.837  0.00  0.00    +0.000 OA
ATOM     12  C   UNL     1       3.216   5.914  19.035  0.00  0.00    +0.000 C 
ATOM     13  N   UNL     1       3.008   5.276  17.837  0.00  0.00    +0.000 N 
ATOM     14  H   UNL     1       2.313   5.649  17.193  0.00  0.00    +0.000 HD
BRANCH  13  15
ATOM     15  C   UNL     1       3.769   4.100  17.473  0.00  0.00    +0.000 C 
BRANCH  15  16
ATOM     16  C   UNL     1       4.896   4.438  16.533  0.00  0.00    +0.000 A 
ATOM     17  C   UNL     1       5.963   5.255  16.963  0.00  0.00    +0.000 A 
ATOM     18  C   UNL     1       6.989   5.616  16.085  0.00  0.00    +0.000 A 
ATOM     19  C   UNL     1       6.943   5.120  14.800  0.00  0.00    +0.000 A 
ATOM     20  C   UNL     1       5.918   4.295  14.366  0.00  0.00    +0.000 A 
ATOM     21  C   UNL     1       4.880   3.949  15.214  0.00  0.00    +0.000 A 
ATOM     22  C   UNL     1       6.127   3.969  12.938  0.00  0.00    +0.000 C 
ATOM     23  C   UNL     1       7.584   4.416  12.804  0.00  0.00    +0.000 C 
ATOM     24  O   UNL     1       7.877   5.390  13.833  0.00  0.00    +0.000 OA
ENDBRANCH  15  16
ENDBRANCH  13  15
ENDBRANCH   1  12
BRANCH   6  25
ATOM     25  C   UNL     1      -0.434  12.422  18.623  0.00  0.00    +0.000 C 
ATOM     26  F   UNL     1      -1.318  12.192  17.614  0.00  0.00    +0.000 F 
ATOM     27  F   UNL     1      -1.092  13.194  19.528  0.00  0.00    +0.000 F 
ATOM     28  F   UNL     1       0.547  13.201  18.094  0.00  0.00    +0.000 F 
ENDBRANCH   6  25
BRANCH   4  29
ATOM     29  N   UNL     1      -0.154   9.352  22.514  0.00  0.00    +0.000 N 
ATOM     30  O   UNL     1       0.413   9.993  23.405  0.00  0.00    +0.000 OA
ATOM     31  O   UNL     1      -1.052   8.515  22.675  0.00  0.00    +0.000 OA
ENDBRANCH   4  29
TORSDOF 5
ENDMDL
MODEL 9
REMARK VINA RESULT:      -8.3      2.646      3.268
REMARK  Name = 
REMARK  5 active torsions:
REMARK  status: ('A' for Active; 'I' for Inactive)
REMARK    1  A    between atoms: C_2  and  C_14
REMARK    2  A    between atoms: N_3  and  C_4
REMARK    3  A    between atoms: C_4  and  C_5
REMARK    4  A    between atoms: C_17  and  N_18
REMARK    5  A    between atoms: C_22  and  C_23
REMARK                            x       y       z     vdW  Elec       q    Type
REMARK                         _______ _______ _______ _____ _____    ______ ____
ROOT
ATOM      1  C   UNL     1       2.447   7.978  18.584  0.00  0.00    +0.000 A 
ATOM      2  S   UNL     1       3.524   7.777  17.243  0.00  0.00    +0.000 S 
ATOM      3  C   UNL     1       3.746   6.132  17.735  0.00  0.00    +0.000 A 
ATOM      4  C   UNL     1       4.534   5.133  17.131  0.00  0.00    +0.000 A 
ATOM      5  C   UNL     1       4.541   3.833  17.660  0.00  0.00    +0.000 A 
ATOM      6  C   UNL     1       3.786   3.510  18.797  0.00  0.00    +0.000 A 
ATOM      7  C   UNL     1       3.010   4.507  19.424  0.00  0.00    +0.000 A 
ATOM      8  C   UNL     1       2.996   5.810  18.880  0.00  0.00    +0.000 A 
ATOM      9  N   UNL     1       2.303   6.903  19.316  0.00  0.00    +0.000 N 
ATOM     10  O   UNL     1       1.543   6.955  20.326  0.00  0.00    +0.000 OA
ENDROOT
BRANCH   1  12
ATOM     11  O   UNL     1       2.272  10.276  18.163  0.00  0.00    +0.000 OA
ATOM     12  C   UNL     1       1.832   9.277  18.733  0.00  0.00    +0.000 C 
ATOM     13  N   UNL     1       0.724   9.382  19.537  0.00  0.00    +0.000 N 
ATOM     14  H   UNL     1       0.355   8.544  19.983  0.00  0.00    +0.000 HD
BRANCH  13  15
ATOM     15  C   UNL     1       0.088  10.661  19.772  0.00  0.00    +0.000 C 
BRANCH  15  16
ATOM     16  C   UNL     1      -1.123  10.848  18.898  0.00  0.00    +0.000 A 
ATOM     17  C   UNL     1      -2.177  11.692  19.307  0.00  0.00    +0.000 A 
ATOM     18  C   UNL     1      -3.327  11.833  18.526  0.00  0.00    +0.000 A 
ATOM     19  C   UNL     1      -3.384  11.153  17.329  0.00  0.00    +0.000 A 
ATOM     20  C   UNL     1      -2.348  10.340  16.897  0.00  0.00    +0.000 A 
ATOM     21  C   UNL     1      -1.213  10.167  17.669  0.00  0.00    +0.000 A 
ATOM     22  C   UNL     1      -2.723   9.719  15.607  0.00  0.00    +0.000 C 
ATOM     23  C   UNL     1      -3.914  10.611  15.252  0.00  0.00    +0.000 C 
ATOM     24  O   UNL     1      -4.445  11.196  16.464  0.00  0.00    +0.000 OA
ENDBRANCH  15  16
ENDBRANCH  13  15
ENDBRANCH   1  12
BRANCH   6  25
ATOM     25  C   UNL     1       3.804   2.094  19.339  0.00  0.00    +0.000 C 
ATOM     26  F   UNL     1       4.883   1.839  20.128  0.00  0.00    +0.000 F 
ATOM     27  F   UNL     1       2.711   1.817  20.097  0.00  0.00    +0.000 F 
ATOM     28  F   UNL     1       3.832   1.162  18.350  0.00  0.00    +0.000 F 
ENDBRANCH   6  25
BRANCH   4  29
ATOM     29  N   UNL     1       5.347   5.380  15.951  0.00  0.00    +0.000 N 
ATOM     30  O   UNL     1       5.084   4.721  14.940  0.00  0.00    +0.000 OA
ATOM     31  O   UNL     1       6.221   6.250  16.049  0.00  0.00    +0.000 OA
ENDBRANCH   4  29
TORSDOF 5
ENDMDL
