MODEL 1
REMARK VINA RESULT:      -8.3      0.000      0.000
REMARK  Name = 
REMARK  6 active torsions:
REMARK  status: ('A' for Active; 'I' for Inactive)
REMARK    1  A    between atoms: C_1  and  C_2
REMARK    2  A    between atoms: C_2  and  C_4
REMARK    3  A    between atoms: C_8  and  C_9
REMARK    4  A    between atoms: C_12  and  C_13
REMARK    5  A    between atoms: N_24  and  C_25
REMARK    6  A    between atoms: N_26  and  C_27
REMARK                            x       y       z     vdW  Elec       q    Type
REMARK                         _______ _______ _______ _____ _____    ______ ____
ROOT
ATOM      1  C   UNL     1       2.025   8.081  18.674  0.00  0.00    +0.000 A 
ATOM      2  C   UNL     1       1.494   8.635  17.505  0.00  0.00    +0.000 A 
ATOM      3  C   UNL     1       0.544   9.658  17.532  0.00  0.00    +0.000 A 
ATOM      4  C   UNL     1       0.103  10.115  18.781  0.00  0.00    +0.000 A 
ATOM      5  C   UNL     1       0.586   9.587  19.976  0.00  0.00    +0.000 A 
ATOM      6  C   UNL     1       1.581   8.588  19.903  0.00  0.00    +0.000 A 
ATOM      7  C   UNL     1      -0.119  10.233  21.041  0.00  0.00    +0.000 A 
ATOM      8  C   UNL     1      -0.968  11.187  20.474  0.00  0.00    +0.000 A 
ATOM      9  C   UNL     1      -1.779  12.013  21.259  0.00  0.00    +0.000 A 
ATOM     10  C   UNL     1      -1.713  11.851  22.636  0.00  0.00    +0.000 A 
ATOM     11  C   UNL     1      -0.883  10.892  23.194  0.00  0.00    +0.000 A 
ATOM     12  N   UNL     1      -0.105  10.092  22.438  0.00  0.00    +0.000 N 
ATOM     13  C   UNL     1       0.736   9.075  23.087  0.00  0.00    +0.000 C 
ATOM     14  N   UNL     1      -0.814  11.095  19.106  0.00  0.00    +0.000 N 
ATOM     15  C   UNL     1      -1.487  11.898  18.107  0.00  0.00    +0.000 C 
ENDROOT
BRANCH   1  21
ATOM     16  C   UNL     1       5.015   4.871  16.854  0.00  0.00    +0.000 C 
ATOM     17  C   UNL     1       4.103   4.079  17.816  0.00  0.00    +0.000 C 
ATOM     18  O   UNL     1       3.426   3.070  17.774  0.00  0.00    +0.000 OA
ATOM     19  N   UNL     1       4.172   5.050  18.800  0.00  0.00    +0.000 N 
ATOM     20  C   UNL     1       3.009   5.766  19.112  0.00  0.00    +0.000 C 
ATOM     21  C   UNL     1       3.030   7.008  18.590  0.00  0.00    +0.000 C 
ATOM     22  C   UNL     1       4.306   7.244  17.813  0.00  0.00    +0.000 C 
ATOM     23  C   UNL     1       5.062   5.935  17.985  0.00  0.00    +0.000 C 
BRANCH  16  25
ATOM     24  C   UNL     1       7.530   4.546  17.228  0.00  0.00    +0.000 C 
ATOM     25  C   UNL     1       6.317   4.220  16.342  0.00  0.00    +0.000 C 
ATOM     26  O   UNL     1       6.549   4.744  15.149  0.00  0.00    +0.000 OA
ENDBRANCH  16  25
BRANCH  20  27
ATOM     27  C   UNL     1       1.936   5.145  20.073  0.00  0.00    +0.000 C 
ATOM     28  O   UNL     1       2.148   5.128  21.308  0.00  0.00    +0.000 OA
ATOM     29  O   UNL     1       1.078   4.463  19.402  0.00  0.00    +0.000 OA
ENDBRANCH  20  27
ENDBRANCH   1  21
TORSDOF 3
ENDMDL
MODEL 2
REMARK VINA RESULT:      -8.2      2.827      8.462
REMARK  Name = 
REMARK  6 active torsions:
REMARK  status: ('A' for Active; 'I' for Inactive)
REMARK    1  A    between atoms: C_1  and  C_2
REMARK    2  A    between atoms: C_2  and  C_4
REMARK    3  A    between atoms: C_8  and  C_9
REMARK    4  A    between atoms: C_12  and  C_13
REMARK    5  A    between atoms: N_24  and  C_25
REMARK    6  A    between atoms: N_26  and  C_27
REMARK                            x       y       z     vdW  Elec       q    Type
REMARK                         _______ _______ _______ _____ _____    ______ ____
ROOT
ATOM      1  C   UNL     1       1.835   7.202  20.104  0.00  0.00    +0.000 A 
ATOM      2  C   UNL     1       1.353   6.049  20.731  0.00  0.00    +0.000 A 
ATOM      3  C   UNL     1       1.776   4.771  20.362  0.00  0.00    +0.000 A 
ATOM      4  C   UNL     1       2.695   4.658  19.310  0.00  0.00    +0.000 A 
ATOM      5  C   UNL     1       3.194   5.772  18.640  0.00  0.00    +0.000 A 
ATOM      6  C   UNL     1       2.778   7.048  19.077  0.00  0.00    +0.000 A 
ATOM      7  C   UNL     1       4.048   5.292  17.597  0.00  0.00    +0.000 A 
ATOM      8  C   UNL     1       4.102   3.899  17.696  0.00  0.00    +0.000 A 
ATOM      9  C   UNL     1       4.882   3.127  16.829  0.00  0.00    +0.000 A 
ATOM     10  C   UNL     1       5.609   3.797  15.854  0.00  0.00    +0.000 A 
ATOM     11  C   UNL     1       5.539   5.177  15.747  0.00  0.00    +0.000 A 
ATOM     12  N   UNL     1       4.783   5.921  16.580  0.00  0.00    +0.000 N 
ATOM     13  C   UNL     1       4.729   7.381  16.400  0.00  0.00    +0.000 C 
ATOM     14  N   UNL     1       3.275   3.542  18.741  0.00  0.00    +0.000 N 
ATOM     15  C   UNL     1       3.024   2.199  19.221  0.00  0.00    +0.000 C 
ENDROOT
BRANCH   1  21
ATOM     16  C   UNL     1      -0.841  10.573  22.112  0.00  0.00    +0.000 C 
ATOM     17  C   UNL     1      -0.697  10.994  20.634  0.00  0.00    +0.000 C 
ATOM     18  O   UNL     1      -1.434  11.333  19.728  0.00  0.00    +0.000 OA
ATOM     19  N   UNL     1       0.653  10.691  20.602  0.00  0.00    +0.000 N 
ATOM     20  C   UNL     1       1.077   9.622  19.801  0.00  0.00    +0.000 C 
ATOM     21  C   UNL     1       1.363   8.529  20.535  0.00  0.00    +0.000 C 
ATOM     22  C   UNL     1       1.125   8.791  22.006  0.00  0.00    +0.000 C 
ATOM     23  C   UNL     1       0.675  10.243  22.029  0.00  0.00    +0.000 C 
BRANCH  16  25
ATOM     24  C   UNL     1      -2.748  12.151  22.780  0.00  0.00    +0.000 C 
ATOM     25  C   UNL     1      -1.360  11.598  23.142  0.00  0.00    +0.000 C 
ATOM     26  O   UNL     1      -0.512  12.614  23.113  0.00  0.00    +0.000 OA
ENDBRANCH  16  25
BRANCH  20  27
ATOM     27  C   UNL     1       1.284   9.826  18.260  0.00  0.00    +0.000 C 
ATOM     28  O   UNL     1       2.229  10.541  17.853  0.00  0.00    +0.000 OA
ATOM     29  O   UNL     1       0.243   9.438  17.614  0.00  0.00    +0.000 OA
ENDBRANCH  20  27
ENDBRANCH   1  21
TORSDOF 3
ENDMDL
MODEL 3
REMARK VINA RESULT:      -8.0      1.874      2.913
REMARK  Name = 
REMARK  6 active torsions:
REMARK  status: ('A' for Active; 'I' for Inactive)
REMARK    1  A    between atoms: C_1  and  C_2
REMARK    2  A    between atoms: C_2  and  C_4
REMARK    3  A    between atoms: C_8  and  C_9
REMARK    4  A    between atoms: C_12  and  C_13
REMARK    5  A    between atoms: N_24  and  C_25
REMARK    6  A    between atoms: N_26  and  C_27
REMARK                            x       y       z     vdW  Elec       q    Type
REMARK                         _______ _______ _______ _____ _____    ______ ____
ROOT
ATOM      1  C   UNL     1       2.272   7.935  18.601  0.00  0.00    +0.000 A 
ATOM      2  C   UNL     1       2.495   8.896  17.610  0.00  0.00    +0.000 A 
ATOM      3  C   UNL     1       2.061  10.216  17.745  0.00  0.00    +0.000 A 
ATOM      4  C   UNL     1       1.360  10.565  18.906  0.00  0.00    +0.000 A 
ATOM      5  C   UNL     1       1.095   9.644  19.916  0.00  0.00    +0.000 A 
ATOM      6  C   UNL     1       1.594   8.332  19.762  0.00  0.00    +0.000 A 
ATOM      7  C   UNL     1       0.315  10.315  20.910  0.00  0.00    +0.000 A 
ATOM      8  C   UNL     1       0.177  11.649  20.516  0.00  0.00    +0.000 A 
ATOM      9  C   UNL     1      -0.515  12.583  21.295  0.00  0.00    +0.000 A 
ATOM     10  C   UNL     1      -1.068  12.135  22.486  0.00  0.00    +0.000 A 
ATOM     11  C   UNL     1      -0.945  10.808  22.867  0.00  0.00    +0.000 A 
ATOM     12  N   UNL     1      -0.282   9.907  22.113  0.00  0.00    +0.000 N 
ATOM     13  C   UNL     1      -0.208   8.506  22.557  0.00  0.00    +0.000 C 
ATOM     14  N   UNL     1       0.819  11.772  19.300  0.00  0.00    +0.000 N 
ATOM     15  C   UNL     1       0.946  12.981  18.512  0.00  0.00    +0.000 C 
ENDROOT
BRANCH   1  21
ATOM     16  C   UNL     1       3.750   3.530  19.585  0.00  0.00    +0.000 C 
ATOM     17  C   UNL     1       4.862   4.147  18.709  0.00  0.00    +0.000 C 
ATOM     18  O   UNL     1       6.070   4.269  18.758  0.00  0.00    +0.000 OA
ATOM     19  N   UNL     1       3.957   4.713  17.828  0.00  0.00    +0.000 N 
ATOM     20  C   UNL     1       3.859   6.110  17.781  0.00  0.00    +0.000 C 
ATOM     21  C   UNL     1       2.756   6.556  18.414  0.00  0.00    +0.000 C 
ATOM     22  C   UNL     1       1.965   5.406  18.994  0.00  0.00    +0.000 C 
ATOM     23  C   UNL     1       2.770   4.186  18.573  0.00  0.00    +0.000 C 
BRANCH  16  25
ATOM     24  C   UNL     1       4.948   1.504  20.601  0.00  0.00    +0.000 C 
ATOM     25  C   UNL     1       3.728   2.004  19.812  0.00  0.00    +0.000 C 
ATOM     26  O   UNL     1       3.782   1.449  18.611  0.00  0.00    +0.000 OA
ENDBRANCH  16  25
BRANCH  20  27
ATOM     27  C   UNL     1       4.894   6.944  16.949  0.00  0.00    +0.000 C 
ATOM     28  O   UNL     1       4.885   6.870  15.698  0.00  0.00    +0.000 OA
ATOM     29  O   UNL     1       5.825   7.391  17.714  0.00  0.00    +0.000 OA
ENDBRANCH  20  27
ENDBRANCH   1  21
TORSDOF 3
ENDMDL
MODEL 4
REMARK VINA RESULT:      -7.9      2.944      7.867
REMARK  Name = 
REMARK  6 active torsions:
REMARK  status: ('A' for Active; 'I' for Inactive)
REMARK    1  A    between atoms: C_1  and  C_2
REMARK    2  A    between atoms: C_2  and  C_4
REMARK    3  A    between atoms: C_8  and  C_9
REMARK    4  A    between atoms: C_12  and  C_13
REMARK    5  A    between atoms: N_24  and  C_25
REMARK    6  A    between atoms: N_26  and  C_27
REMARK                            x       y       z     vdW  Elec       q    Type
REMARK                         _______ _______ _______ _____ _____    ______ ____
ROOT
ATOM      1  C   UNL     1       2.198   8.038  18.385  0.00  0.00    +0.000 A 
ATOM      2  C   UNL     1       3.337   8.250  17.601  0.00  0.00    +0.000 A 
ATOM      3  C   UNL     1       4.155   7.200  17.181  0.00  0.00    +0.000 A 
ATOM      4  C   UNL     1       3.824   5.901  17.589  0.00  0.00    +0.000 A 
ATOM      5  C   UNL     1       2.712   5.636  18.384  0.00  0.00    +0.000 A 
ATOM      6  C   UNL     1       1.883   6.720  18.746  0.00  0.00    +0.000 A 
ATOM      7  C   UNL     1       2.712   4.232  18.659  0.00  0.00    +0.000 A 
ATOM      8  C   UNL     1       3.787   3.662  17.971  0.00  0.00    +0.000 A 
ATOM      9  C   UNL     1       4.046   2.288  18.013  0.00  0.00    +0.000 A 
ATOM     10  C   UNL     1       3.191   1.499  18.770  0.00  0.00    +0.000 A 
ATOM     11  C   UNL     1       2.136   2.069  19.465  0.00  0.00    +0.000 A 
ATOM     12  N   UNL     1       1.890   3.394  19.429  0.00  0.00    +0.000 N 
ATOM     13  C   UNL     1       0.770   3.944  20.209  0.00  0.00    +0.000 C 
ATOM     14  N   UNL     1       4.443   4.695  17.332  0.00  0.00    +0.000 N 
ATOM     15  C   UNL     1       5.614   4.580  16.488  0.00  0.00    +0.000 C 
ENDROOT
BRANCH   1  21
ATOM     16  C   UNL     1       0.812  12.498  19.247  0.00  0.00    +0.000 C 
ATOM     17  C   UNL     1       0.616  11.745  20.581  0.00  0.00    +0.000 C 
ATOM     18  O   UNL     1       0.921  11.905  21.747  0.00  0.00    +0.000 OA
ATOM     19  N   UNL     1       0.062  10.640  19.961  0.00  0.00    +0.000 N 
ATOM     20  C   UNL     1       0.777   9.435  19.982  0.00  0.00    +0.000 C 
ATOM     21  C   UNL     1       1.363   9.180  18.796  0.00  0.00    +0.000 C 
ATOM     22  C   UNL     1       1.075  10.284  17.804  0.00  0.00    +0.000 C 
ATOM     23  C   UNL     1       0.187  11.234  18.594  0.00  0.00    +0.000 C 
BRANCH  16  25
ATOM     24  C   UNL     1       1.035  15.033  19.559  0.00  0.00    +0.000 C 
ATOM     25  C   UNL     1       0.152  13.880  19.057  0.00  0.00    +0.000 C 
ATOM     26  O   UNL     1      -0.944  13.873  19.798  0.00  0.00    +0.000 OA
ENDBRANCH  16  25
BRANCH  20  27
ATOM     27  C   UNL     1       0.725   8.510  21.248  0.00  0.00    +0.000 C 
ATOM     28  O   UNL     1      -0.363   7.989  21.588  0.00  0.00    +0.000 OA
ATOM     29  O   UNL     1       1.796   8.646  21.944  0.00  0.00    +0.000 OA
ENDBRANCH  20  27
ENDBRANCH   1  21
TORSDOF 3
ENDMDL
MODEL 5
REMARK VINA RESULT:      -7.7      2.680      8.465
REMARK  Name = 
REMARK  6 active torsions:
REMARK  status: ('A' for Active; 'I' for Inactive)
REMARK    1  A    between atoms: C_1  and  C_2
REMARK    2  A    between atoms: C_2  and  C_4
REMARK    3  A    between atoms: C_8  and  C_9
REMARK    4  A    between atoms: C_12  and  C_13
REMARK    5  A    between atoms: N_24  and  C_25
REMARK    6  A    between atoms: N_26  and  C_27
REMARK                            x       y       z     vdW  Elec       q    Type
REMARK                         _______ _______ _______ _____ _____    ______ ____
ROOT
ATOM      1  C   UNL     1       2.297   6.693  19.509  0.00  0.00    +0.000 A 
ATOM      2  C   UNL     1       1.879   5.483  20.072  0.00  0.00    +0.000 A 
ATOM      3  C   UNL     1       2.352   4.250  19.617  0.00  0.00    +0.000 A 
ATOM      4  C   UNL     1       3.254   4.244  18.545  0.00  0.00    +0.000 A 
ATOM      5  C   UNL     1       3.690   5.419  17.937  0.00  0.00    +0.000 A 
ATOM      6  C   UNL     1       3.225   6.646  18.459  0.00  0.00    +0.000 A 
ATOM      7  C   UNL     1       4.543   5.044  16.851  0.00  0.00    +0.000 A 
ATOM      8  C   UNL     1       4.662   3.652  16.862  0.00  0.00    +0.000 A 
ATOM      9  C   UNL     1       5.459   2.970  15.936  0.00  0.00    +0.000 A 
ATOM     10  C   UNL     1       6.134   3.732  14.993  0.00  0.00    +0.000 A 
ATOM     11  C   UNL     1       6.001   5.112  14.973  0.00  0.00    +0.000 A 
ATOM     12  N   UNL     1       5.229   5.767  15.863  0.00  0.00    +0.000 N 
ATOM     13  C   UNL     1       5.106   7.231  15.775  0.00  0.00    +0.000 C 
ATOM     14  N   UNL     1       3.872   3.193  17.898  0.00  0.00    +0.000 N 
ATOM     15  C   UNL     1       3.692   1.813  18.297  0.00  0.00    +0.000 C 
ENDROOT
BRANCH   1  21
ATOM     16  C   UNL     1      -0.546   9.822  21.673  0.00  0.00    +0.000 C 
ATOM     17  C   UNL     1      -0.346  10.373  20.244  0.00  0.00    +0.000 C 
ATOM     18  O   UNL     1      -1.049  10.774  19.337  0.00  0.00    +0.000 OA
ATOM     19  N   UNL     1       1.011  10.101  20.249  0.00  0.00    +0.000 N 
ATOM     20  C   UNL     1       1.495   9.114  19.380  0.00  0.00    +0.000 C 
ATOM     21  C   UNL     1       1.774   7.967  20.031  0.00  0.00    +0.000 C 
ATOM     22  C   UNL     1       1.465   8.096  21.505  0.00  0.00    +0.000 C 
ATOM     23  C   UNL     1       0.980   9.532  21.633  0.00  0.00    +0.000 C 
BRANCH  16  25
ATOM     24  C   UNL     1      -0.920  12.235  22.455  0.00  0.00    +0.000 C 
ATOM     25  C   UNL     1      -1.135  10.744  22.761  0.00  0.00    +0.000 C 
ATOM     26  O   UNL     1      -0.474  10.472  23.875  0.00  0.00    +0.000 OA
ENDBRANCH  16  25
BRANCH  20  27
ATOM     27  C   UNL     1       1.767   9.456  17.874  0.00  0.00    +0.000 C 
ATOM     28  O   UNL     1       2.543  10.395  17.583  0.00  0.00    +0.000 OA
ATOM     29  O   UNL     1       0.901   8.875  17.122  0.00  0.00    +0.000 OA
ENDBRANCH  20  27
ENDBRANCH   1  21
TORSDOF 3
ENDMDL
MODEL 6
REMARK VINA RESULT:      -7.6      3.165      8.183
REMARK  Name = 
REMARK  6 active torsions:
REMARK  status: ('A' for Active; 'I' for Inactive)
REMARK    1  A    between atoms: C_1  and  C_2
REMARK    2  A    between atoms: C_2  and  C_4
REMARK    3  A    between atoms: C_8  and  C_9
REMARK    4  A    between atoms: C_12  and  C_13
REMARK    5  A    between atoms: N_24  and  C_25
REMARK    6  A    between atoms: N_26  and  C_27
REMARK                            x       y       z     vdW  Elec       q    Type
REMARK                         _______ _______ _______ _____ _____    ______ ____
ROOT
ATOM      1  C   UNL     1       1.839   7.779  19.518  0.00  0.00    +0.000 A 
ATOM      2  C   UNL     1       1.510   6.801  20.461  0.00  0.00    +0.000 A 
ATOM      3  C   UNL     1       2.080   5.526  20.440  0.00  0.00    +0.000 A 
ATOM      4  C   UNL     1       2.991   5.228  19.417  0.00  0.00    +0.000 A 
ATOM      5  C   UNL     1       3.340   6.159  18.442  0.00  0.00    +0.000 A 
ATOM      6  C   UNL     1       2.777   7.451  18.529  0.00  0.00    +0.000 A 
ATOM      7  C   UNL     1       4.230   5.506  17.532  0.00  0.00    +0.000 A 
ATOM      8  C   UNL     1       4.456   4.212  18.009  0.00  0.00    +0.000 A 
ATOM      9  C   UNL     1       5.312   3.321  17.353  0.00  0.00    +0.000 A 
ATOM     10  C   UNL     1       5.936   3.769  16.197  0.00  0.00    +0.000 A 
ATOM     11  C   UNL     1       5.697   5.047  15.717  0.00  0.00    +0.000 A 
ATOM     12  N   UNL     1       4.868   5.904  16.346  0.00  0.00    +0.000 N 
ATOM     13  C   UNL     1       4.634   7.239  15.774  0.00  0.00    +0.000 C 
ATOM     14  N   UNL     1       3.694   4.071  19.151  0.00  0.00    +0.000 N 
ATOM     15  C   UNL     1       3.616   2.896  19.995  0.00  0.00    +0.000 C 
ENDROOT
BRANCH   1  21
ATOM     16  C   UNL     1       1.166  12.449  18.978  0.00  0.00    +0.000 C 
ATOM     17  C   UNL     1       1.017  12.188  20.492  0.00  0.00    +0.000 C 
ATOM     18  O   UNL     1       1.466  12.649  21.524  0.00  0.00    +0.000 OA
ATOM     19  N   UNL     1       0.255  11.050  20.297  0.00  0.00    +0.000 N 
ATOM     20  C   UNL     1       0.801   9.812  20.662  0.00  0.00    +0.000 C 
ATOM     21  C   UNL     1       1.214   9.111  19.588  0.00  0.00    +0.000 C 
ATOM     22  C   UNL     1       0.970   9.885  18.313  0.00  0.00    +0.000 C 
ATOM     23  C   UNL     1       0.310  11.164  18.806  0.00  0.00    +0.000 C 
BRANCH  16  25
ATOM     24  C   UNL     1       1.539  14.982  18.848  0.00  0.00    +0.000 C 
ATOM     25  C   UNL     1       0.681  13.792  18.392  0.00  0.00    +0.000 C 
ATOM     26  O   UNL     1      -0.540  13.983  18.866  0.00  0.00    +0.000 OA
ENDBRANCH  16  25
BRANCH  20  27
ATOM     27  C   UNL     1       0.763   9.345  22.159  0.00  0.00    +0.000 C 
ATOM     28  O   UNL     1      -0.340   9.121  22.709  0.00  0.00    +0.000 OA
ATOM     29  O   UNL     1       1.907   9.535  22.714  0.00  0.00    +0.000 OA
ENDBRANCH  20  27
ENDBRANCH   1  21
TORSDOF 3
ENDMDL
MODEL 7
REMARK VINA RESULT:      -7.5      1.454      2.628
REMARK  Name = 
REMARK  6 active torsions:
REMARK  status: ('A' for Active; 'I' for Inactive)
REMARK    1  A    between atoms: C_1  and  C_2
REMARK    2  A    between atoms: C_2  and  C_4
REMARK    3  A    between atoms: C_8  and  C_9
REMARK    4  A    between atoms: C_12  and  C_13
REMARK    5  A    between atoms: N_24  and  C_25
REMARK    6  A    between atoms: N_26  and  C_27
REMARK                            x       y       z     vdW  Elec       q    Type
REMARK                         _______ _______ _______ _____ _____    ______ ____
ROOT
ATOM      1  C   UNL     1       1.947   7.574  20.041  0.00  0.00    +0.000 A 
ATOM      2  C   UNL     1       1.200   7.348  21.202  0.00  0.00    +0.000 A 
ATOM      3  C   UNL     1       0.398   8.338  21.773  0.00  0.00    +0.000 A 
ATOM      4  C   UNL     1       0.373   9.600  21.164  0.00  0.00    +0.000 A 
ATOM      5  C   UNL     1       1.111   9.884  20.018  0.00  0.00    +0.000 A 
ATOM      6  C   UNL     1       1.870   8.840  19.445  0.00  0.00    +0.000 A 
ATOM      7  C   UNL     1       0.902  11.265  19.710  0.00  0.00    +0.000 A 
ATOM      8  C   UNL     1      -0.010  11.777  20.637  0.00  0.00    +0.000 A 
ATOM      9  C   UNL     1      -0.446  13.105  20.589  0.00  0.00    +0.000 A 
ATOM     10  C   UNL     1       0.064  13.908  19.579  0.00  0.00    +0.000 A 
ATOM     11  C   UNL     1       0.982  13.404  18.672  0.00  0.00    +0.000 A 
ATOM     12  N   UNL     1       1.406  12.125  18.721  0.00  0.00    +0.000 N 
ATOM     13  C   UNL     1       2.402  11.654  17.746  0.00  0.00    +0.000 C 
ATOM     14  N   UNL     1      -0.314  10.747  21.505  0.00  0.00    +0.000 N 
ATOM     15  C   UNL     1      -1.229  10.808  22.626  0.00  0.00    +0.000 C 
ENDROOT
BRANCH   1  21
ATOM     16  C   UNL     1       4.096   4.768  16.868  0.00  0.00    +0.000 C 
ATOM     17  C   UNL     1       3.293   3.814  17.778  0.00  0.00    +0.000 C 
ATOM     18  O   UNL     1       2.498   2.905  17.636  0.00  0.00    +0.000 OA
ATOM     19  N   UNL     1       3.674   4.475  18.933  0.00  0.00    +0.000 N 
ATOM     20  C   UNL     1       2.694   5.161  19.661  0.00  0.00    +0.000 C 
ATOM     21  C   UNL     1       2.772   6.493  19.474  0.00  0.00    +0.000 C 
ATOM     22  C   UNL     1       3.893   6.838  18.519  0.00  0.00    +0.000 C 
ATOM     23  C   UNL     1       4.495   5.481  18.190  0.00  0.00    +0.000 C 
BRANCH  16  25
ATOM     24  C   UNL     1       6.595   4.315  16.524  0.00  0.00    +0.000 C 
ATOM     25  C   UNL     1       5.181   4.188  15.937  0.00  0.00    +0.000 C 
ATOM     26  O   UNL     1       5.148   4.914  14.831  0.00  0.00    +0.000 OA
ENDBRANCH  16  25
BRANCH  20  27
ATOM     27  C   UNL     1       1.756   4.383  20.649  0.00  0.00    +0.000 C 
ATOM     28  O   UNL     1       2.228   3.916  21.712  0.00  0.00    +0.000 OA
ATOM     29  O   UNL     1       0.649   4.083  20.069  0.00  0.00    +0.000 OA
ENDBRANCH  20  27
ENDBRANCH   1  21
TORSDOF 3
ENDMDL
MODEL 8
REMARK VINA RESULT:      -7.4      2.722      4.229
REMARK  Name = 
REMARK  6 active torsions:
REMARK  status: ('A' for Active; 'I' for Inactive)
REMARK    1  A    between atoms: C_1  and  C_2
REMARK    2  A    between atoms: C_2  and  C_4
REMARK    3  A    between atoms: C_8  and  C_9
REMARK    4  A    between atoms: C_12  and  C_13
REMARK    5  A    between atoms: N_24  and  C_25
REMARK    6  A    between atoms: N_26  and  C_27
REMARK                            x       y       z     vdW  Elec       q    Type
REMARK                         _______ _______ _______ _____ _____    ______ ____
ROOT
ATOM      1  C   UNL     1      -1.047  10.195  18.742  0.00  0.00    +0.000 A 
ATOM      2  C   UNL     1      -1.795   9.924  17.592  0.00  0.00    +0.000 A 
ATOM      3  C   UNL     1      -3.013  10.556  17.332  0.00  0.00    +0.000 A 
ATOM      4  C   UNL     1      -3.497  11.470  18.278  0.00  0.00    +0.000 A 
ATOM      5  C   UNL     1      -2.801  11.764  19.448  0.00  0.00    +0.000 A 
ATOM      6  C   UNL     1      -1.550  11.139  19.648  0.00  0.00    +0.000 A 
ATOM      7  C   UNL     1      -3.604  12.676  20.203  0.00  0.00    +0.000 A 
ATOM      8  C   UNL     1      -4.742  12.969  19.446  0.00  0.00    +0.000 A 
ATOM      9  C   UNL     1      -5.721  13.861  19.898  0.00  0.00    +0.000 A 
ATOM     10  C   UNL     1      -5.522  14.451  21.139  0.00  0.00    +0.000 A 
ATOM     11  C   UNL     1      -4.401  14.145  21.894  0.00  0.00    +0.000 A 
ATOM     12  N   UNL     1      -3.461  13.281  21.461  0.00  0.00    +0.000 N 
ATOM     13  C   UNL     1      -2.306  12.977  22.319  0.00  0.00    +0.000 C 
ATOM     14  N   UNL     1      -4.651  12.226  18.286  0.00  0.00    +0.000 N 
ATOM     15  C   UNL     1      -5.603  12.215  17.194  0.00  0.00    +0.000 C 
ENDROOT
BRANCH   1  21
ATOM     16  C   UNL     1       2.463   7.018  18.357  0.00  0.00    +0.000 C 
ATOM     17  C   UNL     1       2.101   7.047  19.858  0.00  0.00    +0.000 C 
ATOM     18  O   UNL     1       1.833   6.239  20.726  0.00  0.00    +0.000 OA
ATOM     19  N   UNL     1       2.016   8.428  19.887  0.00  0.00    +0.000 N 
ATOM     20  C   UNL     1       0.761   9.013  20.103  0.00  0.00    +0.000 C 
ATOM     21  C   UNL     1       0.236   9.507  18.965  0.00  0.00    +0.000 C 
ATOM     22  C   UNL     1       1.163   9.265  17.795  0.00  0.00    +0.000 C 
ATOM     23  C   UNL     1       2.353   8.566  18.436  0.00  0.00    +0.000 C 
BRANCH  16  25
ATOM     24  C   UNL     1       4.451   7.090  16.740  0.00  0.00    +0.000 C 
ATOM     25  C   UNL     1       3.782   6.353  17.911  0.00  0.00    +0.000 C 
ATOM     26  O   UNL     1       3.460   5.143  17.482  0.00  0.00    +0.000 OA
ENDBRANCH  16  25
BRANCH  20  27
ATOM     27  C   UNL     1       0.192   9.141  21.560  0.00  0.00    +0.000 C 
ATOM     28  O   UNL     1       0.773   9.880  22.388  0.00  0.00    +0.000 OA
ATOM     29  O   UNL     1      -0.668   8.213  21.785  0.00  0.00    +0.000 OA
ENDBRANCH  20  27
ENDBRANCH   1  21
TORSDOF 3
ENDMDL
MODEL 9
REMARK VINA RESULT:      -7.2      0.873      1.138
REMARK  Name = 
REMARK  6 active torsions:
REMARK  status: ('A' for Active; 'I' for Inactive)
REMARK    1  A    between atoms: C_1  and  C_2
REMARK    2  A    between atoms: C_2  and  C_4
REMARK    3  A    between atoms: C_8  and  C_9
REMARK    4  A    between atoms: C_12  and  C_13
REMARK    5  A    between atoms: N_24  and  C_25
REMARK    6  A    between atoms: N_26  and  C_27
REMARK                            x       y       z     vdW  Elec       q    Type
REMARK                         _______ _______ _______ _____ _____    ______ ____
ROOT
ATOM      1  C   UNL     1       2.186   7.713  18.781  0.00  0.00    +0.000 A 
ATOM      2  C   UNL     1       1.713   8.229  17.570  0.00  0.00    +0.000 A 
ATOM      3  C   UNL     1       0.802   9.286  17.518  0.00  0.00    +0.000 A 
ATOM      4  C   UNL     1       0.339   9.816  18.729  0.00  0.00    +0.000 A 
ATOM      5  C   UNL     1       0.763   9.329  19.962  0.00  0.00    +0.000 A 
ATOM      6  C   UNL     1       1.722   8.292  19.970  0.00  0.00    +0.000 A 
ATOM      7  C   UNL     1       0.049  10.049  20.972  0.00  0.00    +0.000 A 
ATOM      8  C   UNL     1      -0.746  11.005  20.334  0.00  0.00    +0.000 A 
ATOM      9  C   UNL     1      -1.550  11.896  21.052  0.00  0.00    +0.000 A 
ATOM     10  C   UNL     1      -1.534  11.797  22.436  0.00  0.00    +0.000 A 
ATOM     11  C   UNL     1      -0.759  10.836  23.066  0.00  0.00    +0.000 A 
ATOM     12  N   UNL     1       0.012   9.974  22.373  0.00  0.00    +0.000 N 
ATOM     13  C   UNL     1       0.794   8.959  23.097  0.00  0.00    +0.000 C 
ATOM     14  N   UNL     1      -0.551  10.842  18.977  0.00  0.00    +0.000 N 
ATOM     15  C   UNL     1      -1.162  11.621  17.920  0.00  0.00    +0.000 C 
ENDROOT
BRANCH   1  21
ATOM     16  C   UNL     1       5.907   5.007  17.600  0.00  0.00    +0.000 C 
ATOM     17  C   UNL     1       4.680   4.073  17.515  0.00  0.00    +0.000 C 
ATOM     18  O   UNL     1       4.207   3.295  16.710  0.00  0.00    +0.000 OA
ATOM     19  N   UNL     1       4.141   4.552  18.696  0.00  0.00    +0.000 N 
ATOM     20  C   UNL     1       2.944   5.278  18.635  0.00  0.00    +0.000 C 
ATOM     21  C   UNL     1       3.153   6.601  18.781  0.00  0.00    +0.000 C 
ATOM     22  C   UNL     1       4.626   6.898  18.955  0.00  0.00    +0.000 C 
ATOM     23  C   UNL     1       5.262   5.517  18.918  0.00  0.00    +0.000 C 
BRANCH  16  25
ATOM     24  C   UNL     1       8.241   5.043  18.659  0.00  0.00    +0.000 C 
ATOM     25  C   UNL     1       7.323   4.394  17.611  0.00  0.00    +0.000 C 
ATOM     26  O   UNL     1       7.845   4.645  16.421  0.00  0.00    +0.000 OA
ENDBRANCH  16  25
BRANCH  20  27
ATOM     27  C   UNL     1       1.570   4.526  18.539  0.00  0.00    +0.000 C 
ATOM     28  O   UNL     1       1.017   4.390  17.423  0.00  0.00    +0.000 OA
ATOM     29  O   UNL     1       1.053   4.394  19.708  0.00  0.00    +0.000 OA
ENDBRANCH  20  27
ENDBRANCH   1  21
TORSDOF 3
ENDMDL
