MODEL 1
REMARK VINA RESULT:      -8.7      0.000      0.000
REMARK  Name = 
REMARK  9 active torsions:
REMARK  status: ('A' for Active; 'I' for Inactive)
REMARK    1  A    between atoms: C_1  and  C_2
REMARK    2  A    between atoms: N_4  and  C_5
REMARK    3  A    between atoms: C_9  and  N_10
REMARK    4  A    between atoms: C_11  and  C_13
REMARK    5  A    between atoms: C_13  and  S_14
REMARK    6  A    between atoms: S_14  and  C_15
REMARK    7  A    between atoms: C_18  and  C_19
REMARK    8  A    between atoms: C_21  and  C_22
REMARK    9  A    between atoms: C_29  and  C_30
REMARK                            x       y       z     vdW  Elec       q    Type
REMARK                         _______ _______ _______ _____ _____    ______ ____
ROOT
ATOM      1  C   UNL     1       3.045   4.173  20.175  0.00  0.00    +0.000 A 
ATOM      2  C   UNL     1       3.845   5.149  19.604  0.00  0.00    +0.000 A 
ATOM      3  C   UNL     1       3.427   6.479  19.655  0.00  0.00    +0.000 A 
ATOM      4  C   UNL     1       2.219   6.786  20.266  0.00  0.00    +0.000 A 
ATOM      5  N   UNL     1       1.493   5.818  20.861  0.00  0.00    +0.000 NA
ATOM      6  N   UNL     1       1.908   4.506  20.814  0.00  0.00    +0.000 NA
ENDROOT
BRANCH   4   7
ATOM      7  C   UNL     1       1.581   8.101  20.208  0.00  0.00    +0.000 A 
ATOM      8  S   UNL     1       0.925   8.833  21.616  0.00  0.00    +0.000 S 
ATOM      9  C   UNL     1       0.580  10.269  20.738  0.00  0.00    +0.000 A 
ATOM     10  N   UNL     1       0.859  10.199  19.454  0.00  0.00    +0.000 NA
ATOM     11  C   UNL     1       1.413   8.967  19.132  0.00  0.00    +0.000 A 
ATOM     12  C   UNL     1       1.825   8.742  17.719  0.00  0.00    +0.000 C 
BRANCH   9  13
ATOM     13  C   UNL     1       0.105  11.483  21.422  0.00  0.00    +0.000 A 
ATOM     14  C   UNL     1      -0.830  11.359  22.463  0.00  0.00    +0.000 A 
ATOM     15  C   UNL     1      -1.351  12.487  23.102  0.00  0.00    +0.000 A 
ATOM     16  C   UNL     1      -0.939  13.760  22.713  0.00  0.00    +0.000 A 
ATOM     17  C   UNL     1       0.003  13.902  21.699  0.00  0.00    +0.000 A 
ATOM     18  C   UNL     1       0.526  12.774  21.062  0.00  0.00    +0.000 A 
ENDBRANCH   9  13
ENDBRANCH   4   7
BRANCH   1  19
ATOM     19  S   UNL     1       3.329   2.438  19.956  0.00  0.00    +0.000 S 
BRANCH  19  20
ATOM     20  C   UNL     1       2.491   2.141  18.373  0.00  0.00    +0.000 C 
BRANCH  20  22
ATOM     21  N   UNL     1       4.505   2.934  17.227  0.00  0.00    +0.000 N 
ATOM     22  C   UNL     1       3.120   3.006  17.290  0.00  0.00    +0.000 C 
ATOM     23  O   UNL     1       2.404   3.707  16.578  0.00  0.00    +0.000 OA
ATOM     24  H   UNL     1       4.955   2.203  17.769  0.00  0.00    +0.000 HD
BRANCH  21  29
ATOM     25  C   UNL     1       6.818   5.573  15.995  0.00  0.00    +0.000 A 
ATOM     26  C   UNL     1       7.008   5.159  14.676  0.00  0.00    +0.000 A 
ATOM     27  C   UNL     1       6.354   4.033  14.185  0.00  0.00    +0.000 A 
ATOM     28  C   UNL     1       5.512   3.293  15.009  0.00  0.00    +0.000 A 
ATOM     29  C   UNL     1       5.334   3.657  16.342  0.00  0.00    +0.000 A 
ATOM     30  C   UNL     1       5.990   4.800  16.831  0.00  0.00    +0.000 A 
BRANCH  25  34
ATOM     31  C   UNL     1       8.260   8.340  18.130  0.00  0.00    +0.000 C 
ATOM     32  C   UNL     1       7.639   6.990  17.887  0.00  0.00    +0.000 C 
ATOM     33  O   UNL     1       7.388   6.252  18.836  0.00  0.00    +0.000 OA
ATOM     34  N   UNL     1       7.440   6.727  16.532  0.00  0.00    +0.000 N 
ATOM     35  H   UNL     1       7.870   7.359  15.861  0.00  0.00    +0.000 HD
ENDBRANCH  25  34
ENDBRANCH  21  29
ENDBRANCH  20  22
ENDBRANCH  19  20
ENDBRANCH   1  19
TORSDOF 7
ENDMDL
MODEL 2
REMARK VINA RESULT:      -8.5      4.752     10.617
REMARK  Name = 
REMARK  9 active torsions:
REMARK  status: ('A' for Active; 'I' for Inactive)
REMARK    1  A    between atoms: C_1  and  C_2
REMARK    2  A    between atoms: N_4  and  C_5
REMARK    3  A    between atoms: C_9  and  N_10
REMARK    4  A    between atoms: C_11  and  C_13
REMARK    5  A    between atoms: C_13  and  S_14
REMARK    6  A    between atoms: S_14  and  C_15
REMARK    7  A    between atoms: C_18  and  C_19
REMARK    8  A    between atoms: C_21  and  C_22
REMARK    9  A    between atoms: C_29  and  C_30
REMARK                            x       y       z     vdW  Elec       q    Type
REMARK                         _______ _______ _______ _____ _____    ______ ____
ROOT
ATOM      1  C   UNL     1      -0.772  12.580  21.515  0.00  0.00    +0.000 A 
ATOM      2  C   UNL     1      -1.063  12.170  20.225  0.00  0.00    +0.000 A 
ATOM      3  C   UNL     1      -0.517  10.974  19.758  0.00  0.00    +0.000 A 
ATOM      4  C   UNL     1       0.306  10.233  20.594  0.00  0.00    +0.000 A 
ATOM      5  N   UNL     1       0.522  10.632  21.864  0.00  0.00    +0.000 NA
ATOM      6  N   UNL     1      -0.019  11.811  22.326  0.00  0.00    +0.000 NA
ENDROOT
BRANCH   4   7
ATOM      7  C   UNL     1       1.092   9.078  20.160  0.00  0.00    +0.000 A 
ATOM      8  S   UNL     1       1.245   7.684  21.151  0.00  0.00    +0.000 S 
ATOM      9  C   UNL     1       2.097   6.863  19.907  0.00  0.00    +0.000 A 
ATOM     10  N   UNL     1       2.331   7.593  18.836  0.00  0.00    +0.000 NA
ATOM     11  C   UNL     1       1.780   8.861  18.971  0.00  0.00    +0.000 A 
ATOM     12  C   UNL     1       1.922   9.801  17.824  0.00  0.00    +0.000 C 
BRANCH   9  13
ATOM     13  C   UNL     1       2.433   5.435  20.029  0.00  0.00    +0.000 A 
ATOM     14  C   UNL     1       1.585   4.596  20.772  0.00  0.00    +0.000 A 
ATOM     15  C   UNL     1       1.894   3.246  20.961  0.00  0.00    +0.000 A 
ATOM     16  C   UNL     1       3.053   2.712  20.404  0.00  0.00    +0.000 A 
ATOM     17  C   UNL     1       3.893   3.522  19.647  0.00  0.00    +0.000 A 
ATOM     18  C   UNL     1       3.583   4.870  19.454  0.00  0.00    +0.000 A 
ENDBRANCH   9  13
ENDBRANCH   4   7
BRANCH   1  19
ATOM     19  S   UNL     1      -1.185  14.187  22.137  0.00  0.00    +0.000 S 
BRANCH  19  20
ATOM     20  C   UNL     1      -2.865  13.901  22.761  0.00  0.00    +0.000 C 
BRANCH  20  22
ATOM     21  N   UNL     1      -4.268  12.668  21.178  0.00  0.00    +0.000 N 
ATOM     22  C   UNL     1      -3.853  13.923  21.603  0.00  0.00    +0.000 C 
ATOM     23  O   UNL     1      -4.196  14.997  21.115  0.00  0.00    +0.000 OA
ATOM     24  H   UNL     1      -4.027  11.876  21.766  0.00  0.00    +0.000 HD
BRANCH  21  29
ATOM     25  C   UNL     1      -5.420  11.765  17.759  0.00  0.00    +0.000 A 
ATOM     26  C   UNL     1      -6.805  11.851  17.918  0.00  0.00    +0.000 A 
ATOM     27  C   UNL     1      -7.356  12.235  19.138  0.00  0.00    +0.000 A 
ATOM     28  C   UNL     1      -6.533  12.522  20.222  0.00  0.00    +0.000 A 
ATOM     29  C   UNL     1      -5.150  12.405  20.106  0.00  0.00    +0.000 A 
ATOM     30  C   UNL     1      -4.597  12.026  18.870  0.00  0.00    +0.000 A 
BRANCH  25  34
ATOM     31  C   UNL     1      -3.301  10.389  14.947  0.00  0.00    +0.000 C 
ATOM     32  C   UNL     1      -3.775  10.488  16.373  0.00  0.00    +0.000 C 
ATOM     33  O   UNL     1      -3.263   9.782  17.238  0.00  0.00    +0.000 OA
ATOM     34  N   UNL     1      -4.813  11.406  16.531  0.00  0.00    +0.000 N 
ATOM     35  H   UNL     1      -5.250  11.773  15.689  0.00  0.00    +0.000 HD
ENDBRANCH  25  34
ENDBRANCH  21  29
ENDBRANCH  20  22
ENDBRANCH  19  20
ENDBRANCH   1  19
TORSDOF 7
ENDMDL
MODEL 3
REMARK VINA RESULT:      -8.1      0.639      1.053
REMARK  Name = 
REMARK  9 active torsions:
REMARK  status: ('A' for Active; 'I' for Inactive)
REMARK    1  A    between atoms: C_1  and  C_2
REMARK    2  A    between atoms: N_4  and  C_5
REMARK    3  A    between atoms: C_9  and  N_10
REMARK    4  A    between atoms: C_11  and  C_13
REMARK    5  A    between atoms: C_13  and  S_14
REMARK    6  A    between atoms: S_14  and  C_15
REMARK    7  A    between atoms: C_18  and  C_19
REMARK    8  A    between atoms: C_21  and  C_22
REMARK    9  A    between atoms: C_29  and  C_30
REMARK                            x       y       z     vdW  Elec       q    Type
REMARK                         _______ _______ _______ _____ _____    ______ ____
ROOT
ATOM      1  C   UNL     1       2.673   4.620  20.249  0.00  0.00    +0.000 A 
ATOM      2  C   UNL     1       3.121   5.492  19.271  0.00  0.00    +0.000 A 
ATOM      3  C   UNL     1       2.699   6.821  19.307  0.00  0.00    +0.000 A 
ATOM      4  C   UNL     1       1.837   7.231  20.315  0.00  0.00    +0.000 A 
ATOM      5  N   UNL     1       1.467   6.370  21.284  0.00  0.00    +0.000 NA
ATOM      6  N   UNL     1       1.886   5.059  21.250  0.00  0.00    +0.000 NA
ENDROOT
BRANCH   4   7
ATOM      7  C   UNL     1       1.171   8.533  20.346  0.00  0.00    +0.000 A 
ATOM      8  S   UNL     1       0.259   9.031  21.713  0.00  0.00    +0.000 S 
ATOM      9  C   UNL     1       0.017  10.582  21.017  0.00  0.00    +0.000 A 
ATOM     10  N   UNL     1       0.514  10.716  19.805  0.00  0.00    +0.000 NA
ATOM     11  C   UNL     1       1.158   9.554  19.402  0.00  0.00    +0.000 A 
ATOM     12  C   UNL     1       1.814   9.555  18.065  0.00  0.00    +0.000 C 
BRANCH   9  13
ATOM     13  C   UNL     1      -0.612  11.671  21.783  0.00  0.00    +0.000 A 
ATOM     14  C   UNL     1      -0.038  12.953  21.744  0.00  0.00    +0.000 A 
ATOM     15  C   UNL     1      -0.567  14.002  22.500  0.00  0.00    +0.000 A 
ATOM     16  C   UNL     1      -1.684  13.788  23.303  0.00  0.00    +0.000 A 
ATOM     17  C   UNL     1      -2.280  12.531  23.338  0.00  0.00    +0.000 A 
ATOM     18  C   UNL     1      -1.753  11.482  22.580  0.00  0.00    +0.000 A 
ENDBRANCH   9  13
ENDBRANCH   4   7
BRANCH   1  19
ATOM     19  S   UNL     1       2.922   2.868  20.172  0.00  0.00    +0.000 S 
BRANCH  19  20
ATOM     20  C   UNL     1       2.095   2.463  18.608  0.00  0.00    +0.000 C 
BRANCH  20  22
ATOM     21  N   UNL     1       4.201   3.187  17.588  0.00  0.00    +0.000 N 
ATOM     22  C   UNL     1       2.820   3.143  17.454  0.00  0.00    +0.000 C 
ATOM     23  O   UNL     1       2.173   3.613  16.521  0.00  0.00    +0.000 OA
ATOM     24  H   UNL     1       4.612   2.627  18.329  0.00  0.00    +0.000 HD
BRANCH  21  29
ATOM     25  C   UNL     1       6.589   5.667  16.182  0.00  0.00    +0.000 A 
ATOM     26  C   UNL     1       6.913   5.059  14.968  0.00  0.00    +0.000 A 
ATOM     27  C   UNL     1       6.324   3.852  14.600  0.00  0.00    +0.000 A 
ATOM     28  C   UNL     1       5.416   3.226  15.447  0.00  0.00    +0.000 A 
ATOM     29  C   UNL     1       5.104   3.787  16.683  0.00  0.00    +0.000 A 
ATOM     30  C   UNL     1       5.693   5.010  17.047  0.00  0.00    +0.000 A 
BRANCH  25  34
ATOM     31  C   UNL     1       8.136   8.616  17.973  0.00  0.00    +0.000 C 
ATOM     32  C   UNL     1       7.712   7.178  17.830  0.00  0.00    +0.000 C 
ATOM     33  O   UNL     1       7.908   6.388  18.750  0.00  0.00    +0.000 OA
ATOM     34  N   UNL     1       7.141   6.907  16.587  0.00  0.00    +0.000 N 
ATOM     35  H   UNL     1       7.219   7.621  15.867  0.00  0.00    +0.000 HD
ENDBRANCH  25  34
ENDBRANCH  21  29
ENDBRANCH  20  22
ENDBRANCH  19  20
ENDBRANCH   1  19
TORSDOF 7
ENDMDL
MODEL 4
REMARK VINA RESULT:      -8.0      2.848      4.315
REMARK  Name = 
REMARK  9 active torsions:
REMARK  status: ('A' for Active; 'I' for Inactive)
REMARK    1  A    between atoms: C_1  and  C_2
REMARK    2  A    between atoms: N_4  and  C_5
REMARK    3  A    between atoms: C_9  and  N_10
REMARK    4  A    between atoms: C_11  and  C_13
REMARK    5  A    between atoms: C_13  and  S_14
REMARK    6  A    between atoms: S_14  and  C_15
REMARK    7  A    between atoms: C_18  and  C_19
REMARK    8  A    between atoms: C_21  and  C_22
REMARK    9  A    between atoms: C_29  and  C_30
REMARK                            x       y       z     vdW  Elec       q    Type
REMARK                         _______ _______ _______ _____ _____    ______ ____
ROOT
ATOM      1  C   UNL     1       1.769   7.200  20.226  0.00  0.00    +0.000 A 
ATOM      2  C   UNL     1       2.124   7.652  18.967  0.00  0.00    +0.000 A 
ATOM      3  C   UNL     1       1.844   8.975  18.621  0.00  0.00    +0.000 A 
ATOM      4  C   UNL     1       1.212   9.797  19.543  0.00  0.00    +0.000 A 
ATOM      5  N   UNL     1       0.933   9.341  20.781  0.00  0.00    +0.000 NA
ATOM      6  N   UNL     1       1.211   8.037  21.123  0.00  0.00    +0.000 NA
ENDROOT
BRANCH   4   7
ATOM      7  C   UNL     1       0.690  11.129  19.234  0.00  0.00    +0.000 A 
ATOM      8  S   UNL     1       1.537  12.546  19.705  0.00  0.00    +0.000 S 
ATOM      9  C   UNL     1       0.405  13.530  18.867  0.00  0.00    +0.000 A 
ATOM     10  N   UNL     1      -0.595  12.865  18.326  0.00  0.00    +0.000 NA
ATOM     11  C   UNL     1      -0.457  11.500  18.541  0.00  0.00    +0.000 A 
ATOM     12  C   UNL     1      -1.489  10.601  17.955  0.00  0.00    +0.000 C 
BRANCH   9  13
ATOM     13  C   UNL     1       0.625  14.976  18.708  0.00  0.00    +0.000 A 
ATOM     14  C   UNL     1       1.940  15.458  18.591  0.00  0.00    +0.000 A 
ATOM     15  C   UNL     1       2.199  16.828  18.495  0.00  0.00    +0.000 A 
ATOM     16  C   UNL     1       1.146  17.738  18.507  0.00  0.00    +0.000 A 
ATOM     17  C   UNL     1      -0.164  17.279  18.601  0.00  0.00    +0.000 A 
ATOM     18  C   UNL     1      -0.424  15.910  18.694  0.00  0.00    +0.000 A 
ENDBRANCH   9  13
ENDBRANCH   4   7
BRANCH   1  19
ATOM     19  S   UNL     1       1.831   5.493  20.695  0.00  0.00    +0.000 S 
BRANCH  19  20
ATOM     20  C   UNL     1       2.050   4.693  19.081  0.00  0.00    +0.000 C 
BRANCH  20  22
ATOM     21  N   UNL     1       3.672   4.821  17.250  0.00  0.00    +0.000 N 
ATOM     22  C   UNL     1       3.496   4.839  18.628  0.00  0.00    +0.000 C 
ATOM     23  O   UNL     1       4.389   4.937  19.466  0.00  0.00    +0.000 OA
ATOM     24  H   UNL     1       2.837   4.889  16.676  0.00  0.00    +0.000 HD
BRANCH  21  29
ATOM     25  C   UNL     1       6.312   4.115  14.729  0.00  0.00    +0.000 A 
ATOM     26  C   UNL     1       7.313   4.994  15.144  0.00  0.00    +0.000 A 
ATOM     27  C   UNL     1       7.131   5.795  16.269  0.00  0.00    +0.000 A 
ATOM     28  C   UNL     1       5.940   5.740  16.985  0.00  0.00    +0.000 A 
ATOM     29  C   UNL     1       4.907   4.904  16.571  0.00  0.00    +0.000 A 
ATOM     30  C   UNL     1       5.098   4.091  15.440  0.00  0.00    +0.000 A 
BRANCH  25  34
ATOM     31  C   UNL     1       5.991   2.122  11.532  0.00  0.00    +0.000 C 
ATOM     32  C   UNL     1       5.591   3.185  12.521  0.00  0.00    +0.000 C 
ATOM     33  O   UNL     1       4.601   3.881  12.304  0.00  0.00    +0.000 OA
ATOM     34  N   UNL     1       6.461   3.262  13.607  0.00  0.00    +0.000 N 
ATOM     35  H   UNL     1       7.335   2.745  13.549  0.00  0.00    +0.000 HD
ENDBRANCH  25  34
ENDBRANCH  21  29
ENDBRANCH  20  22
ENDBRANCH  19  20
ENDBRANCH   1  19
TORSDOF 7
ENDMDL
MODEL 5
REMARK VINA RESULT:      -8.0      2.403      3.105
REMARK  Name = 
REMARK  9 active torsions:
REMARK  status: ('A' for Active; 'I' for Inactive)
REMARK    1  A    between atoms: C_1  and  C_2
REMARK    2  A    between atoms: N_4  and  C_5
REMARK    3  A    between atoms: C_9  and  N_10
REMARK    4  A    between atoms: C_11  and  C_13
REMARK    5  A    between atoms: C_13  and  S_14
REMARK    6  A    between atoms: S_14  and  C_15
REMARK    7  A    between atoms: C_18  and  C_19
REMARK    8  A    between atoms: C_21  and  C_22
REMARK    9  A    between atoms: C_29  and  C_30
REMARK                            x       y       z     vdW  Elec       q    Type
REMARK                         _______ _______ _______ _____ _____    ______ ____
ROOT
ATOM      1  C   UNL     1       1.588   6.725  20.508  0.00  0.00    +0.000 A 
ATOM      2  C   UNL     1       2.145   7.203  19.334  0.00  0.00    +0.000 A 
ATOM      3  C   UNL     1       1.899   8.525  18.960  0.00  0.00    +0.000 A 
ATOM      4  C   UNL     1       1.097   9.319  19.768  0.00  0.00    +0.000 A 
ATOM      5  N   UNL     1       0.618   8.838  20.932  0.00  0.00    +0.000 NA
ATOM      6  N   UNL     1       0.864   7.535  21.303  0.00  0.00    +0.000 NA
ENDROOT
BRANCH   4   7
ATOM      7  C   UNL     1       0.605  10.643  19.387  0.00  0.00    +0.000 A 
ATOM      8  S   UNL     1       1.360  12.072  19.967  0.00  0.00    +0.000 S 
ATOM      9  C   UNL     1       0.342  13.040  18.980  0.00  0.00    +0.000 A 
ATOM     10  N   UNL     1      -0.565  12.363  18.308  0.00  0.00    +0.000 NA
ATOM     11  C   UNL     1      -0.440  11.000  18.542  0.00  0.00    +0.000 A 
ATOM     12  C   UNL     1      -1.370  10.087  17.820  0.00  0.00    +0.000 C 
BRANCH   9  13
ATOM     13  C   UNL     1       0.563  14.490  18.851  0.00  0.00    +0.000 A 
ATOM     14  C   UNL     1      -0.548  15.341  18.727  0.00  0.00    +0.000 A 
ATOM     15  C   UNL     1      -0.384  16.717  18.545  0.00  0.00    +0.000 A 
ATOM     16  C   UNL     1       0.895  17.265  18.491  0.00  0.00    +0.000 A 
ATOM     17  C   UNL     1       2.007  16.441  18.634  0.00  0.00    +0.000 A 
ATOM     18  C   UNL     1       1.844  15.066  18.819  0.00  0.00    +0.000 A 
ENDBRANCH   9  13
ENDBRANCH   4   7
BRANCH   1  19
ATOM     19  S   UNL     1       1.609   5.012  20.962  0.00  0.00    +0.000 S 
BRANCH  19  20
ATOM     20  C   UNL     1       1.537   4.216  19.332  0.00  0.00    +0.000 C 
BRANCH  20  22
ATOM     21  N   UNL     1       3.307   5.098  17.886  0.00  0.00    +0.000 N 
ATOM     22  C   UNL     1       2.943   4.084  18.764  0.00  0.00    +0.000 C 
ATOM     23  O   UNL     1       3.639   3.122  19.078  0.00  0.00    +0.000 OA
ATOM     24  H   UNL     1       2.696   5.907  17.836  0.00  0.00    +0.000 HD
BRANCH  21  29
ATOM     25  C   UNL     1       6.527   6.530  16.699  0.00  0.00    +0.000 A 
ATOM     26  C   UNL     1       6.990   5.494  15.885  0.00  0.00    +0.000 A 
ATOM     27  C   UNL     1       6.230   4.341  15.704  0.00  0.00    +0.000 A 
ATOM     28  C   UNL     1       5.004   4.199  16.346  0.00  0.00    +0.000 A 
ATOM     29  C   UNL     1       4.535   5.197  17.197  0.00  0.00    +0.000 A 
ATOM     30  C   UNL     1       5.301   6.363  17.370  0.00  0.00    +0.000 A 
BRANCH  25  34
ATOM     31  C   UNL     1       8.650   9.410  17.919  0.00  0.00    +0.000 C 
ATOM     32  C   UNL     1       8.090   8.013  17.970  0.00  0.00    +0.000 C 
ATOM     33  O   UNL     1       8.409   7.259  18.886  0.00  0.00    +0.000 OA
ATOM     34  N   UNL     1       7.251   7.732  16.892  0.00  0.00    +0.000 N 
ATOM     35  H   UNL     1       7.235   8.395  16.122  0.00  0.00    +0.000 HD
ENDBRANCH  25  34
ENDBRANCH  21  29
ENDBRANCH  20  22
ENDBRANCH  19  20
ENDBRANCH   1  19
TORSDOF 7
ENDMDL
MODEL 6
REMARK VINA RESULT:      -7.9      4.147      9.618
REMARK  Name = 
REMARK  9 active torsions:
REMARK  status: ('A' for Active; 'I' for Inactive)
REMARK    1  A    between atoms: C_1  and  C_2
REMARK    2  A    between atoms: N_4  and  C_5
REMARK    3  A    between atoms: C_9  and  N_10
REMARK    4  A    between atoms: C_11  and  C_13
REMARK    5  A    between atoms: C_13  and  S_14
REMARK    6  A    between atoms: S_14  and  C_15
REMARK    7  A    between atoms: C_18  and  C_19
REMARK    8  A    between atoms: C_21  and  C_22
REMARK    9  A    between atoms: C_29  and  C_30
REMARK                            x       y       z     vdW  Elec       q    Type
REMARK                         _______ _______ _______ _____ _____    ______ ____
ROOT
ATOM      1  C   UNL     1      -0.601  10.834  22.069  0.00  0.00    +0.000 A 
ATOM      2  C   UNL     1       0.039   9.865  22.822  0.00  0.00    +0.000 A 
ATOM      3  C   UNL     1       0.863   8.942  22.176  0.00  0.00    +0.000 A 
ATOM      4  C   UNL     1       1.011   9.015  20.798  0.00  0.00    +0.000 A 
ATOM      5  N   UNL     1       0.418  10.007  20.102  0.00  0.00    +0.000 NA
ATOM      6  N   UNL     1      -0.392  10.919  20.741  0.00  0.00    +0.000 NA
ENDROOT
BRANCH   4   7
ATOM      7  C   UNL     1       1.678   7.996  19.988  0.00  0.00    +0.000 A 
ATOM      8  S   UNL     1       1.958   6.417  20.603  0.00  0.00    +0.000 S 
ATOM      9  C   UNL     1       2.563   5.905  19.079  0.00  0.00    +0.000 A 
ATOM     10  N   UNL     1       2.631   6.859  18.174  0.00  0.00    +0.000 NA
ATOM     11  C   UNL     1       2.148   8.058  18.681  0.00  0.00    +0.000 A 
ATOM     12  C   UNL     1       2.118   9.233  17.765  0.00  0.00    +0.000 C 
BRANCH   9  13
ATOM     13  C   UNL     1       2.874   4.489  18.821  0.00  0.00    +0.000 A 
ATOM     14  C   UNL     1       2.276   3.849  17.722  0.00  0.00    +0.000 A 
ATOM     15  C   UNL     1       2.498   2.492  17.472  0.00  0.00    +0.000 A 
ATOM     16  C   UNL     1       3.328   1.755  18.313  0.00  0.00    +0.000 A 
ATOM     17  C   UNL     1       3.946   2.377  19.393  0.00  0.00    +0.000 A 
ATOM     18  C   UNL     1       3.727   3.734  19.642  0.00  0.00    +0.000 A 
ENDBRANCH   9  13
ENDBRANCH   4   7
BRANCH   1  19
ATOM     19  S   UNL     1      -1.862  11.892  22.723  0.00  0.00    +0.000 S 
BRANCH  19  20
ATOM     20  C   UNL     1      -2.376  12.790  21.231  0.00  0.00    +0.000 C 
BRANCH  20  22
ATOM     21  N   UNL     1      -1.008  14.045  19.633  0.00  0.00    +0.000 N 
ATOM     22  C   UNL     1      -1.406  13.931  20.959  0.00  0.00    +0.000 C 
ATOM     23  O   UNL     1      -1.026  14.641  21.888  0.00  0.00    +0.000 OA
ATOM     24  H   UNL     1      -1.516  13.492  18.949  0.00  0.00    +0.000 HD
BRANCH  21  29
ATOM     25  C   UNL     1       2.135  15.430  18.210  0.00  0.00    +0.000 A 
ATOM     26  C   UNL     1       1.793  16.777  18.081  0.00  0.00    +0.000 A 
ATOM     27  C   UNL     1       0.542  17.233  18.489  0.00  0.00    +0.000 A 
ATOM     28  C   UNL     1      -0.391  16.347  19.017  0.00  0.00    +0.000 A 
ATOM     29  C   UNL     1      -0.094  14.991  19.121  0.00  0.00    +0.000 A 
ATOM     30  C   UNL     1       1.173  14.536  18.716  0.00  0.00    +0.000 A 
BRANCH  25  34
ATOM     31  C   UNL     1       5.779  14.490  17.843  0.00  0.00    +0.000 C 
ATOM     32  C   UNL     1       4.589  15.079  18.553  0.00  0.00    +0.000 C 
ATOM     33  O   UNL     1       4.731  15.600  19.657  0.00  0.00    +0.000 OA
ATOM     34  N   UNL     1       3.404  14.925  17.834  0.00  0.00    +0.000 N 
ATOM     35  H   UNL     1       3.420  14.309  17.025  0.00  0.00    +0.000 HD
ENDBRANCH  25  34
ENDBRANCH  21  29
ENDBRANCH  20  22
ENDBRANCH  19  20
ENDBRANCH   1  19
TORSDOF 7
ENDMDL
MODEL 7
REMARK VINA RESULT:      -7.8      4.141      9.866
REMARK  Name = 
REMARK  9 active torsions:
REMARK  status: ('A' for Active; 'I' for Inactive)
REMARK    1  A    between atoms: C_1  and  C_2
REMARK    2  A    between atoms: N_4  and  C_5
REMARK    3  A    between atoms: C_9  and  N_10
REMARK    4  A    between atoms: C_11  and  C_13
REMARK    5  A    between atoms: C_13  and  S_14
REMARK    6  A    between atoms: S_14  and  C_15
REMARK    7  A    between atoms: C_18  and  C_19
REMARK    8  A    between atoms: C_21  and  C_22
REMARK    9  A    between atoms: C_29  and  C_30
REMARK                            x       y       z     vdW  Elec       q    Type
REMARK                         _______ _______ _______ _____ _____    ______ ____
ROOT
ATOM      1  C   UNL     1       0.280  10.448  21.051  0.00  0.00    +0.000 A 
ATOM      2  C   UNL     1       0.487   9.331  21.842  0.00  0.00    +0.000 A 
ATOM      3  C   UNL     1       1.214   8.260  21.321  0.00  0.00    +0.000 A 
ATOM      4  C   UNL     1       1.701   8.340  20.023  0.00  0.00    +0.000 A 
ATOM      5  N   UNL     1       1.529   9.465  19.301  0.00  0.00    +0.000 NA
ATOM      6  N   UNL     1       0.815  10.523  19.817  0.00  0.00    +0.000 NA
ENDROOT
BRANCH   4   7
ATOM      7  C   UNL     1       2.297   7.217  19.300  0.00  0.00    +0.000 A 
ATOM      8  S   UNL     1       3.121   7.456  17.813  0.00  0.00    +0.000 S 
ATOM      9  C   UNL     1       3.589   5.804  17.778  0.00  0.00    +0.000 A 
ATOM     10  N   UNL     1       3.106   5.083  18.768  0.00  0.00    +0.000 NA
ATOM     11  C   UNL     1       2.355   5.868  19.633  0.00  0.00    +0.000 A 
ATOM     12  C   UNL     1       1.770   5.208  20.834  0.00  0.00    +0.000 C 
BRANCH   9  13
ATOM     13  C   UNL     1       4.531   5.300  16.765  0.00  0.00    +0.000 A 
ATOM     14  C   UNL     1       4.775   3.919  16.686  0.00  0.00    +0.000 A 
ATOM     15  C   UNL     1       5.703   3.402  15.778  0.00  0.00    +0.000 A 
ATOM     16  C   UNL     1       6.398   4.259  14.929  0.00  0.00    +0.000 A 
ATOM     17  C   UNL     1       6.154   5.628  14.977  0.00  0.00    +0.000 A 
ATOM     18  C   UNL     1       5.224   6.145  15.882  0.00  0.00    +0.000 A 
ENDBRANCH   9  13
ENDBRANCH   4   7
BRANCH   1  19
ATOM     19  S   UNL     1      -0.832  11.754  21.493  0.00  0.00    +0.000 S 
BRANCH  19  20
ATOM     20  C   UNL     1      -1.752  11.973  19.943  0.00  0.00    +0.000 C 
BRANCH  20  22
ATOM     21  N   UNL     1      -0.542  14.091  19.727  0.00  0.00    +0.000 N 
ATOM     22  C   UNL     1      -1.031  12.978  19.056  0.00  0.00    +0.000 C 
ATOM     23  O   UNL     1      -0.944  12.771  17.848  0.00  0.00    +0.000 OA
ATOM     24  H   UNL     1      -0.550  14.060  20.742  0.00  0.00    +0.000 HD
BRANCH  21  29
ATOM     25  C   UNL     1       2.266  16.194  18.494  0.00  0.00    +0.000 A 
ATOM     26  C   UNL     1       1.568  17.291  17.986  0.00  0.00    +0.000 A 
ATOM     27  C   UNL     1       0.180  17.352  18.076  0.00  0.00    +0.000 A 
ATOM     28  C   UNL     1      -0.533  16.310  18.661  0.00  0.00    +0.000 A 
ATOM     29  C   UNL     1       0.132  15.184  19.140  0.00  0.00    +0.000 A 
ATOM     30  C   UNL     1       1.534  15.130  19.055  0.00  0.00    +0.000 A 
BRANCH  25  34
ATOM     31  C   UNL     1       6.010  16.594  18.836  0.00  0.00    +0.000 C 
ATOM     32  C   UNL     1       4.572  16.895  19.166  0.00  0.00    +0.000 C 
ATOM     33  O   UNL     1       4.303  17.749  20.007  0.00  0.00    +0.000 OA
ATOM     34  N   UNL     1       3.679  16.099  18.450  0.00  0.00    +0.000 N 
ATOM     35  H   UNL     1       4.060  15.312  17.930  0.00  0.00    +0.000 HD
ENDBRANCH  25  34
ENDBRANCH  21  29
ENDBRANCH  20  22
ENDBRANCH  19  20
ENDBRANCH   1  19
TORSDOF 7
ENDMDL
MODEL 8
REMARK VINA RESULT:      -7.8      3.946      9.359
REMARK  Name = 
REMARK  9 active torsions:
REMARK  status: ('A' for Active; 'I' for Inactive)
REMARK    1  A    between atoms: C_1  and  C_2
REMARK    2  A    between atoms: N_4  and  C_5
REMARK    3  A    between atoms: C_9  and  N_10
REMARK    4  A    between atoms: C_11  and  C_13
REMARK    5  A    between atoms: C_13  and  S_14
REMARK    6  A    between atoms: S_14  and  C_15
REMARK    7  A    between atoms: C_18  and  C_19
REMARK    8  A    between atoms: C_21  and  C_22
REMARK    9  A    between atoms: C_29  and  C_30
REMARK                            x       y       z     vdW  Elec       q    Type
REMARK                         _______ _______ _______ _____ _____    ______ ____
ROOT
ATOM      1  C   UNL     1       0.081  10.147  21.110  0.00  0.00    +0.000 A 
ATOM      2  C   UNL     1       0.632   9.191  21.947  0.00  0.00    +0.000 A 
ATOM      3  C   UNL     1       1.473   8.221  21.400  0.00  0.00    +0.000 A 
ATOM      4  C   UNL     1       1.726   8.235  20.036  0.00  0.00    +0.000 A 
ATOM      5  N   UNL     1       1.219   9.215  19.261  0.00  0.00    +0.000 NA
ATOM      6  N   UNL     1       0.392  10.174  19.800  0.00  0.00    +0.000 NA
ENDROOT
BRANCH   4   7
ATOM      7  C   UNL     1       2.421   7.165  19.318  0.00  0.00    +0.000 A 
ATOM      8  S   UNL     1       3.516   7.516  18.044  0.00  0.00    +0.000 S 
ATOM      9  C   UNL     1       3.940   5.857  17.919  0.00  0.00    +0.000 A 
ATOM     10  N   UNL     1       3.262   5.062  18.719  0.00  0.00    +0.000 NA
ATOM     11  C   UNL     1       2.381   5.788  19.510  0.00  0.00    +0.000 A 
ATOM     12  C   UNL     1       1.564   5.038  20.503  0.00  0.00    +0.000 C 
BRANCH   9  13
ATOM     13  C   UNL     1       5.044   5.417  17.049  0.00  0.00    +0.000 A 
ATOM     14  C   UNL     1       4.878   5.473  15.655  0.00  0.00    +0.000 A 
ATOM     15  C   UNL     1       5.877   5.013  14.792  0.00  0.00    +0.000 A 
ATOM     16  C   UNL     1       7.061   4.496  15.311  0.00  0.00    +0.000 A 
ATOM     17  C   UNL     1       7.252   4.452  16.688  0.00  0.00    +0.000 A 
ATOM     18  C   UNL     1       6.256   4.915  17.551  0.00  0.00    +0.000 A 
ENDBRANCH   9  13
ENDBRANCH   4   7
BRANCH   1  19
ATOM     19  S   UNL     1      -1.192  11.266  21.626  0.00  0.00    +0.000 S 
BRANCH  19  20
ATOM     20  C   UNL     1      -1.321  12.346  20.172  0.00  0.00    +0.000 C 
BRANCH  20  22
ATOM     21  N   UNL     1       0.160  13.832  18.908  0.00  0.00    +0.000 N 
ATOM     22  C   UNL     1      -0.163  13.334  20.164  0.00  0.00    +0.000 C 
ATOM     23  O   UNL     1       0.411  13.609  21.215  0.00  0.00    +0.000 OA
ATOM     24  H   UNL     1      -0.491  13.640  18.153  0.00  0.00    +0.000 HD
BRANCH  21  29
ATOM     25  C   UNL     1       3.558  15.043  18.004  0.00  0.00    +0.000 A 
ATOM     26  C   UNL     1       3.354  16.424  18.014  0.00  0.00    +0.000 A 
ATOM     27  C   UNL     1       2.111  16.955  18.347  0.00  0.00    +0.000 A 
ATOM     28  C   UNL     1       1.048  16.114  18.659  0.00  0.00    +0.000 A 
ATOM     29  C   UNL     1       1.209  14.732  18.617  0.00  0.00    +0.000 A 
ATOM     30  C   UNL     1       2.468  14.199  18.289  0.00  0.00    +0.000 A 
BRANCH  25  34
ATOM     31  C   UNL     1       7.194  14.082  17.623  0.00  0.00    +0.000 C 
ATOM     32  C   UNL     1       6.044  14.859  18.208  0.00  0.00    +0.000 C 
ATOM     33  O   UNL     1       6.257  15.721  19.057  0.00  0.00    +0.000 OA
ATOM     34  N   UNL     1       4.811  14.457  17.697  0.00  0.00    +0.000 N 
ATOM     35  H   UNL     1       4.785  13.607  17.140  0.00  0.00    +0.000 HD
ENDBRANCH  25  34
ENDBRANCH  21  29
ENDBRANCH  20  22
ENDBRANCH  19  20
ENDBRANCH   1  19
TORSDOF 7
ENDMDL
MODEL 9
REMARK VINA RESULT:      -7.7      1.937      3.180
REMARK  Name = 
REMARK  9 active torsions:
REMARK  status: ('A' for Active; 'I' for Inactive)
REMARK    1  A    between atoms: C_1  and  C_2
REMARK    2  A    between atoms: N_4  and  C_5
REMARK    3  A    between atoms: C_9  and  N_10
REMARK    4  A    between atoms: C_11  and  C_13
REMARK    5  A    between atoms: C_13  and  S_14
REMARK    6  A    between atoms: S_14  and  C_15
REMARK    7  A    between atoms: C_18  and  C_19
REMARK    8  A    between atoms: C_21  and  C_22
REMARK    9  A    between atoms: C_29  and  C_30
REMARK                            x       y       z     vdW  Elec       q    Type
REMARK                         _______ _______ _______ _____ _____    ______ ____
ROOT
ATOM      1  C   UNL     1       2.075   3.731  19.867  0.00  0.00    +0.000 A 
ATOM      2  C   UNL     1       2.123   4.372  21.094  0.00  0.00    +0.000 A 
ATOM      3  C   UNL     1       1.798   5.727  21.160  0.00  0.00    +0.000 A 
ATOM      4  C   UNL     1       1.446   6.397  19.996  0.00  0.00    +0.000 A 
ATOM      5  N   UNL     1       1.354   5.729  18.829  0.00  0.00    +0.000 NA
ATOM      6  N   UNL     1       1.671   4.390  18.764  0.00  0.00    +0.000 NA
ENDROOT
BRANCH   4   7
ATOM      7  C   UNL     1       1.281   7.848  19.902  0.00  0.00    +0.000 A 
ATOM      8  S   UNL     1       0.368   8.715  21.068  0.00  0.00    +0.000 S 
ATOM      9  C   UNL     1       0.812  10.207  20.341  0.00  0.00    +0.000 A 
ATOM     10  N   UNL     1       1.535  10.084  19.249  0.00  0.00    +0.000 NA
ATOM     11  C   UNL     1       1.796   8.747  18.975  0.00  0.00    +0.000 A 
ATOM     12  C   UNL     1       2.642   8.437  17.789  0.00  0.00    +0.000 C 
BRANCH   9  13
ATOM     13  C   UNL     1       0.474  11.492  20.975  0.00  0.00    +0.000 A 
ATOM     14  C   UNL     1       1.185  12.645  20.601  0.00  0.00    +0.000 A 
ATOM     15  C   UNL     1       0.937  13.875  21.216  0.00  0.00    +0.000 A 
ATOM     16  C   UNL     1      -0.031  13.973  22.212  0.00  0.00    +0.000 A 
ATOM     17  C   UNL     1      -0.760  12.847  22.581  0.00  0.00    +0.000 A 
ATOM     18  C   UNL     1      -0.516  11.618  21.964  0.00  0.00    +0.000 A 
ENDBRANCH   9  13
ENDBRANCH   4   7
BRANCH   1  19
ATOM     19  S   UNL     1       2.705   2.096  19.604  0.00  0.00    +0.000 S 
BRANCH  19  20
ATOM     20  C   UNL     1       4.461   2.328  20.003  0.00  0.00    +0.000 C 
BRANCH  20  22
ATOM     21  N   UNL     1       4.577   3.289  17.754  0.00  0.00    +0.000 N 
ATOM     22  C   UNL     1       5.074   3.342  19.049  0.00  0.00    +0.000 C 
ATOM     23  O   UNL     1       5.952   4.103  19.451  0.00  0.00    +0.000 OA
ATOM     24  H   UNL     1       3.750   2.720  17.599  0.00  0.00    +0.000 HD
BRANCH  21  29
ATOM     25  C   UNL     1       6.021   4.198  14.450  0.00  0.00    +0.000 A 
ATOM     26  C   UNL     1       5.854   5.584  14.464  0.00  0.00    +0.000 A 
ATOM     27  C   UNL     1       5.297   6.220  15.570  0.00  0.00    +0.000 A 
ATOM     28  C   UNL     1       4.882   5.479  16.672  0.00  0.00    +0.000 A 
ATOM     29  C   UNL     1       4.997   4.091  16.670  0.00  0.00    +0.000 A 
ATOM     30  C   UNL     1       5.569   3.454  15.555  0.00  0.00    +0.000 A 
BRANCH  25  34
ATOM     31  C   UNL     1       6.833   2.314  11.274  0.00  0.00    +0.000 C 
ATOM     32  C   UNL     1       5.941   3.087  12.210  0.00  0.00    +0.000 C 
ATOM     33  O   UNL     1       4.770   3.297  11.904  0.00  0.00    +0.000 OA
ATOM     34  N   UNL     1       6.607   3.510  13.359  0.00  0.00    +0.000 N 
ATOM     35  H   UNL     1       7.620   3.417  13.379  0.00  0.00    +0.000 HD
ENDBRANCH  25  34
ENDBRANCH  21  29
ENDBRANCH  20  22
ENDBRANCH  19  20
ENDBRANCH   1  19
TORSDOF 7
ENDMDL
