MODEL 1
REMARK VINA RESULT:      -7.0      0.000      0.000
REMARK  Name = 
REMARK  5 active torsions:
REMARK  status: ('A' for Active; 'I' for Inactive)
REMARK    1  A    between atoms: C_1  and  O_2
REMARK    2  A    between atoms: O_2  and  C_3
REMARK    3  A    between atoms: C_5  and  N_6
REMARK    4  A    between atoms: C_10  and  C_11
REMARK    5  A    between atoms: N_13  and  C_14
REMARK                            x       y       z     vdW  Elec       q    Type
REMARK                         _______ _______ _______ _____ _____    ______ ____
ROOT
ATOM      1  C   UNL     1       1.954   8.164  18.854  0.00  0.00    +0.000 C 
ATOM      2  O   UNL     1       1.584   8.795  17.864  0.00  0.00    +0.000 OA
ATOM      3  N   UNL     1       1.548   8.516  20.122  0.00  0.00    +0.000 N 
ATOM      4  H   UNL     1       1.663   7.818  20.851  0.00  0.00    +0.000 HD
ENDROOT
BRANCH   3   5
ATOM      5  C   UNL     1       0.579   9.583  20.309  0.00  0.00    +0.000 C 
ATOM      6  C   UNL     1      -0.253   9.428  21.584  0.00  0.00    +0.000 C 
ATOM      7  C   UNL     1      -0.781  10.841  21.757  0.00  0.00    +0.000 C 
ATOM      8  C   UNL     1      -1.384  11.196  23.107  0.00  0.00    +0.000 C 
ATOM      9  C   UNL     1      -1.781  12.680  23.077  0.00  0.00    +0.000 C 
ATOM     10  C   UNL     1      -0.586  13.552  22.681  0.00  0.00    +0.000 C 
ATOM     11  C   UNL     1       0.103  13.055  21.396  0.00  0.00    +0.000 C 
ATOM     12  N   UNL     1       0.427  11.642  21.545  0.00  0.00    +0.000 NA
ATOM     13  C   UNL     1       1.152  11.025  20.423  0.00  0.00    +0.000 C 
ENDBRANCH   3   5
BRANCH   1  20
ATOM     14  C   UNL     1       2.927   5.848  19.500  0.00  0.00    +0.000 A 
ATOM     15  C   UNL     1       3.857   4.831  19.201  0.00  0.00    +0.000 A 
ATOM     16  C   UNL     1       4.754   4.935  18.129  0.00  0.00    +0.000 A 
ATOM     17  C   UNL     1       4.651   6.052  17.293  0.00  0.00    +0.000 A 
ATOM     18 CL   UNL     1       5.661   6.204  15.897  0.00  0.00    +0.000 Cl
ATOM     19  C   UNL     1       3.743   7.071  17.572  0.00  0.00    +0.000 A 
ATOM     20  C   UNL     1       2.869   6.987  18.674  0.00  0.00    +0.000 A 
BRANCH  16  21
ATOM     21  N   UNL     1       5.545   3.823  17.790  0.00  0.00    +0.000 N 
ATOM     22  H   UNL     1       5.250   2.943  18.198  0.00  0.00    +0.000 HD
ATOM     23  H   UNL     1       6.543   3.998  17.910  0.00  0.00    +0.000 HD
ENDBRANCH  16  21
BRANCH  14  25
ATOM     24  C   UNL     1       1.393   4.463  20.674  0.00  0.00    +0.000 C 
ATOM     25  O   UNL     1       2.025   5.735  20.530  0.00  0.00    +0.000 OA
ENDBRANCH  14  25
ENDBRANCH   1  20
TORSDOF 4
ENDMDL
MODEL 2
REMARK VINA RESULT:      -6.9      1.920      2.609
REMARK  Name = 
REMARK  5 active torsions:
REMARK  status: ('A' for Active; 'I' for Inactive)
REMARK    1  A    between atoms: C_1  and  O_2
REMARK    2  A    between atoms: O_2  and  C_3
REMARK    3  A    between atoms: C_5  and  N_6
REMARK    4  A    between atoms: C_10  and  C_11
REMARK    5  A    between atoms: N_13  and  C_14
REMARK                            x       y       z     vdW  Elec       q    Type
REMARK                         _______ _______ _______ _____ _____    ______ ____
ROOT
ATOM      1  C   UNL     1       2.743   6.199  18.408  0.00  0.00    +0.000 C 
ATOM      2  O   UNL     1       1.851   5.402  18.703  0.00  0.00    +0.000 OA
ATOM      3  N   UNL     1       2.602   7.549  18.638  0.00  0.00    +0.000 N 
ATOM      4  H   UNL     1       3.450   8.108  18.624  0.00  0.00    +0.000 HD
ENDROOT
BRANCH   3   5
ATOM      5  C   UNL     1       1.432   8.053  19.338  0.00  0.00    +0.000 C 
ATOM      6  C   UNL     1       1.535   7.924  20.858  0.00  0.00    +0.000 C 
ATOM      7  C   UNL     1       0.475   8.916  21.304  0.00  0.00    +0.000 C 
ATOM      8  C   UNL     1       0.492   9.341  22.765  0.00  0.00    +0.000 C 
ATOM      9  C   UNL     1      -0.610  10.391  22.969  0.00  0.00    +0.000 C 
ATOM     10  C   UNL     1      -0.443  11.550  21.982  0.00  0.00    +0.000 C 
ATOM     11  C   UNL     1      -0.292  11.066  20.527  0.00  0.00    +0.000 C 
ATOM     12  N   UNL     1       0.775  10.077  20.463  0.00  0.00    +0.000 NA
ATOM     13  C   UNL     1       1.094   9.557  19.123  0.00  0.00    +0.000 C 
ENDBRANCH   3   5
BRANCH   1  20
ATOM     14  C   UNL     1       4.181   4.429  17.173  0.00  0.00    +0.000 A 
ATOM     15  C   UNL     1       5.444   4.091  16.644  0.00  0.00    +0.000 A 
ATOM     16  C   UNL     1       6.546   4.952  16.742  0.00  0.00    +0.000 A 
ATOM     17  C   UNL     1       6.344   6.213  17.312  0.00  0.00    +0.000 A 
ATOM     18 CL   UNL     1       7.633   7.364  17.384  0.00  0.00    +0.000 Cl
ATOM     19  C   UNL     1       5.106   6.566  17.845  0.00  0.00    +0.000 A 
ATOM     20  C   UNL     1       4.008   5.685  17.784  0.00  0.00    +0.000 A 
BRANCH  16  21
ATOM     21  N   UNL     1       7.731   4.625  16.060  0.00  0.00    +0.000 N 
ATOM     22  H   UNL     1       8.536   5.194  16.298  0.00  0.00    +0.000 HD
ATOM     23  H   UNL     1       7.594   4.538  15.053  0.00  0.00    +0.000 HD
ENDBRANCH  16  21
BRANCH  14  25
ATOM     24  C   UNL     1       3.161   2.362  17.756  0.00  0.00    +0.000 C 
ATOM     25  O   UNL     1       3.091   3.601  17.050  0.00  0.00    +0.000 OA
ENDBRANCH  14  25
ENDBRANCH   1  20
TORSDOF 4
ENDMDL
MODEL 3
REMARK VINA RESULT:      -6.7      1.313      1.349
REMARK  Name = 
REMARK  5 active torsions:
REMARK  status: ('A' for Active; 'I' for Inactive)
REMARK    1  A    between atoms: C_1  and  O_2
REMARK    2  A    between atoms: O_2  and  C_3
REMARK    3  A    between atoms: C_5  and  N_6
REMARK    4  A    between atoms: C_10  and  C_11
REMARK    5  A    between atoms: N_13  and  C_14
REMARK                            x       y       z     vdW  Elec       q    Type
REMARK                         _______ _______ _______ _____ _____    ______ ____
ROOT
ATOM      1  C   UNL     1       2.397   7.856  18.285  0.00  0.00    +0.000 C 
ATOM      2  O   UNL     1       1.990   8.589  17.382  0.00  0.00    +0.000 OA
ATOM      3  N   UNL     1       1.947   7.996  19.578  0.00  0.00    +0.000 N 
ATOM      4  H   UNL     1       2.108   7.215  20.207  0.00  0.00    +0.000 HD
ENDROOT
BRANCH   3   5
ATOM      5  C   UNL     1       0.892   8.948  19.887  0.00  0.00    +0.000 C 
ATOM      6  C   UNL     1       0.294   8.757  21.281  0.00  0.00    +0.000 C 
ATOM      7  C   UNL     1      -0.374  10.104  21.495  0.00  0.00    +0.000 C 
ATOM      8  C   UNL     1      -0.802  10.450  22.913  0.00  0.00    +0.000 C 
ATOM      9  C   UNL     1      -1.382  11.872  22.903  0.00  0.00    +0.000 C 
ATOM     10  C   UNL     1      -0.382  12.861  22.296  0.00  0.00    +0.000 C 
ATOM     11  C   UNL     1       0.158  12.387  20.933  0.00  0.00    +0.000 C 
ATOM     12  N   UNL     1       0.675  11.032  21.069  0.00  0.00    +0.000 NA
ATOM     13  C   UNL     1       1.290  10.452  19.865  0.00  0.00    +0.000 C 
ENDBRANCH   3   5
BRANCH   1  20
ATOM     14  C   UNL     1       3.154   5.409  17.882  0.00  0.00    +0.000 A 
ATOM     15  C   UNL     1       4.220   4.534  17.586  0.00  0.00    +0.000 A 
ATOM     16  C   UNL     1       5.532   4.993  17.413  0.00  0.00    +0.000 A 
ATOM     17  C   UNL     1       5.756   6.373  17.456  0.00  0.00    +0.000 A 
ATOM     18 CL   UNL     1       7.332   7.020  17.158  0.00  0.00    +0.000 Cl
ATOM     19  C   UNL     1       4.719   7.256  17.751  0.00  0.00    +0.000 A 
ATOM     20  C   UNL     1       3.407   6.792  17.967  0.00  0.00    +0.000 A 
BRANCH  16  21
ATOM     21  N   UNL     1       6.517   4.094  16.966  0.00  0.00    +0.000 N 
ATOM     22  H   UNL     1       7.336   4.022  17.561  0.00  0.00    +0.000 HD
ATOM     23  H   UNL     1       6.754   4.225  15.983  0.00  0.00    +0.000 HD
ENDBRANCH  16  21
BRANCH  14  25
ATOM     24  C   UNL     1       1.680   3.550  18.033  0.00  0.00    +0.000 C 
ATOM     25  O   UNL     1       1.861   4.966  18.021  0.00  0.00    +0.000 OA
ENDBRANCH  14  25
ENDBRANCH   1  20
TORSDOF 4
ENDMDL
MODEL 4
REMARK VINA RESULT:      -6.7      2.550      3.332
REMARK  Name = 
REMARK  5 active torsions:
REMARK  status: ('A' for Active; 'I' for Inactive)
REMARK    1  A    between atoms: C_1  and  O_2
REMARK    2  A    between atoms: O_2  and  C_3
REMARK    3  A    between atoms: C_5  and  N_6
REMARK    4  A    between atoms: C_10  and  C_11
REMARK    5  A    between atoms: N_13  and  C_14
REMARK                            x       y       z     vdW  Elec       q    Type
REMARK                         _______ _______ _______ _____ _____    ______ ____
ROOT
ATOM      1  C   UNL     1       2.871   6.991  18.358  0.00  0.00    +0.000 C 
ATOM      2  O   UNL     1       3.389   7.738  17.528  0.00  0.00    +0.000 OA
ATOM      3  N   UNL     1       2.026   7.478  19.331  0.00  0.00    +0.000 N 
ATOM      4  H   UNL     1       1.434   6.802  19.805  0.00  0.00    +0.000 HD
ENDROOT
BRANCH   3   5
ATOM      5  C   UNL     1       1.639   8.880  19.329  0.00  0.00    +0.000 C 
ATOM      6  C   UNL     1       0.653   9.234  18.216  0.00  0.00    +0.000 C 
ATOM      7  C   UNL     1       0.088  10.543  18.737  0.00  0.00    +0.000 C 
ATOM      8  C   UNL     1      -1.184  11.060  18.082  0.00  0.00    +0.000 C 
ATOM      9  C   UNL     1      -1.608  12.344  18.810  0.00  0.00    +0.000 C 
ATOM     10  C   UNL     1      -1.742  12.094  20.316  0.00  0.00    +0.000 C 
ATOM     11  C   UNL     1      -0.495  11.411  20.910  0.00  0.00    +0.000 C 
ATOM     12  N   UNL     1      -0.194  10.214  20.137  0.00  0.00    +0.000 NA
ATOM     13  C   UNL     1       0.938   9.404  20.616  0.00  0.00    +0.000 C 
ENDBRANCH   3   5
BRANCH   1  20
ATOM     14  C   UNL     1       4.438   4.938  18.138  0.00  0.00    +0.000 A 
ATOM     15  C   UNL     1       4.548   3.532  18.100  0.00  0.00    +0.000 A 
ATOM     16  C   UNL     1       3.428   2.696  18.189  0.00  0.00    +0.000 A 
ATOM     17  C   UNL     1       2.180   3.291  18.406  0.00  0.00    +0.000 A 
ATOM     18 CL   UNL     1       0.765   2.320  18.619  0.00  0.00    +0.000 Cl
ATOM     19  C   UNL     1       2.048   4.678  18.441  0.00  0.00    +0.000 A 
ATOM     20  C   UNL     1       3.169   5.521  18.310  0.00  0.00    +0.000 A 
BRANCH  16  21
ATOM     21  N   UNL     1       3.618   1.307  18.303  0.00  0.00    +0.000 N 
ATOM     22  H   UNL     1       4.484   0.957  17.907  0.00  0.00    +0.000 HD
ATOM     23  H   UNL     1       2.803   0.772  18.005  0.00  0.00    +0.000 HD
ENDBRANCH  16  21
BRANCH  14  25
ATOM     24  C   UNL     1       6.576   5.482  19.023  0.00  0.00    +0.000 C 
ATOM     25  O   UNL     1       5.539   5.760  18.083  0.00  0.00    +0.000 OA
ENDBRANCH  14  25
ENDBRANCH   1  20
TORSDOF 4
ENDMDL
MODEL 5
REMARK VINA RESULT:      -6.6      2.050      2.678
REMARK  Name = 
REMARK  5 active torsions:
REMARK  status: ('A' for Active; 'I' for Inactive)
REMARK    1  A    between atoms: C_1  and  O_2
REMARK    2  A    between atoms: O_2  and  C_3
REMARK    3  A    between atoms: C_5  and  N_6
REMARK    4  A    between atoms: C_10  and  C_11
REMARK    5  A    between atoms: N_13  and  C_14
REMARK                            x       y       z     vdW  Elec       q    Type
REMARK                         _______ _______ _______ _____ _____    ______ ____
ROOT
ATOM      1  C   UNL     1       2.159   7.176  19.362  0.00  0.00    +0.000 C 
ATOM      2  O   UNL     1       1.839   7.641  18.268  0.00  0.00    +0.000 OA
ATOM      3  N   UNL     1       1.766   7.776  20.537  0.00  0.00    +0.000 N 
ATOM      4  H   UNL     1       1.830   7.215  21.382  0.00  0.00    +0.000 HD
ENDROOT
BRANCH   3   5
ATOM      5  C   UNL     1       0.867   8.918  20.511  0.00  0.00    +0.000 C 
ATOM      6  C   UNL     1      -0.011   9.026  21.758  0.00  0.00    +0.000 C 
ATOM      7  C   UNL     1      -0.446  10.478  21.680  0.00  0.00    +0.000 C 
ATOM      8  C   UNL     1      -1.065  11.086  22.930  0.00  0.00    +0.000 C 
ATOM      9  C   UNL     1      -1.357  12.567  22.646  0.00  0.00    +0.000 C 
ATOM     10  C   UNL     1      -0.094  13.286  22.164  0.00  0.00    +0.000 C 
ATOM     11  C   UNL     1       0.599  12.544  21.006  0.00  0.00    +0.000 C 
ATOM     12  N   UNL     1       0.820  11.157  21.392  0.00  0.00    +0.000 NA
ATOM     13  C   UNL     1       1.535  10.320  20.415  0.00  0.00    +0.000 C 
ENDBRANCH   3   5
BRANCH   1  20
ATOM     14  C   UNL     1       4.179   5.697  18.688  0.00  0.00    +0.000 A 
ATOM     15  C   UNL     1       4.844   4.462  18.839  0.00  0.00    +0.000 A 
ATOM     16  C   UNL     1       4.343   3.444  19.660  0.00  0.00    +0.000 A 
ATOM     17  C   UNL     1       3.192   3.711  20.409  0.00  0.00    +0.000 A 
ATOM     18 CL   UNL     1       2.566   2.537  21.515  0.00  0.00    +0.000 Cl
ATOM     19  C   UNL     1       2.516   4.922  20.272  0.00  0.00    +0.000 A 
ATOM     20  C   UNL     1       2.996   5.931  19.414  0.00  0.00    +0.000 A 
BRANCH  16  21
ATOM     21  N   UNL     1       5.130   2.301  19.890  0.00  0.00    +0.000 N 
ATOM     22  H   UNL     1       4.768   1.662  20.590  0.00  0.00    +0.000 HD
ATOM     23  H   UNL     1       6.115   2.524  20.031  0.00  0.00    +0.000 HD
ENDBRANCH  16  21
BRANCH  14  25
ATOM     24  C   UNL     1       4.933   6.383  16.540  0.00  0.00    +0.000 C 
ATOM     25  O   UNL     1       4.685   6.709  17.908  0.00  0.00    +0.000 OA
ENDBRANCH  14  25
ENDBRANCH   1  20
TORSDOF 4
ENDMDL
MODEL 6
REMARK VINA RESULT:      -6.6      1.202      1.279
REMARK  Name = 
REMARK  5 active torsions:
REMARK  status: ('A' for Active; 'I' for Inactive)
REMARK    1  A    between atoms: C_1  and  O_2
REMARK    2  A    between atoms: O_2  and  C_3
REMARK    3  A    between atoms: C_5  and  N_6
REMARK    4  A    between atoms: C_10  and  C_11
REMARK    5  A    between atoms: N_13  and  C_14
REMARK                            x       y       z     vdW  Elec       q    Type
REMARK                         _______ _______ _______ _____ _____    ______ ____
ROOT
ATOM      1  C   UNL     1       2.284   8.262  18.217  0.00  0.00    +0.000 C 
ATOM      2  O   UNL     1       2.165   8.765  17.100  0.00  0.00    +0.000 OA
ATOM      3  N   UNL     1       1.609   8.767  19.306  0.00  0.00    +0.000 N 
ATOM      4  H   UNL     1       1.537   8.165  20.121  0.00  0.00    +0.000 HD
ENDROOT
BRANCH   3   5
ATOM      5  C   UNL     1       0.651   9.848  19.136  0.00  0.00    +0.000 C 
ATOM      6  C   UNL     1      -0.348   9.958  20.289  0.00  0.00    +0.000 C 
ATOM      7  C   UNL     1      -0.858  11.374  20.094  0.00  0.00    +0.000 C 
ATOM      8  C   UNL     1      -1.628  11.999  21.247  0.00  0.00    +0.000 C 
ATOM      9  C   UNL     1      -1.979  13.444  20.859  0.00  0.00    +0.000 C 
ATOM     10  C   UNL     1      -0.719  14.219  20.460  0.00  0.00    +0.000 C 
ATOM     11  C   UNL     1       0.124  13.468  19.412  0.00  0.00    +0.000 C 
ATOM     12  N   UNL     1       0.388  12.118  19.890  0.00  0.00    +0.000 NA
ATOM     13  C   UNL     1       1.241  11.283  19.029  0.00  0.00    +0.000 C 
ENDBRANCH   3   5
BRANCH   1  20
ATOM     14  C   UNL     1       3.067   6.087  19.393  0.00  0.00    +0.000 A 
ATOM     15  C   UNL     1       4.007   5.037  19.432  0.00  0.00    +0.000 A 
ATOM     16  C   UNL     1       5.079   4.963  18.532  0.00  0.00    +0.000 A 
ATOM     17  C   UNL     1       5.152   5.926  17.520  0.00  0.00    +0.000 A 
ATOM     18 CL   UNL     1       6.392   5.848  16.317  0.00  0.00    +0.000 Cl
ATOM     19  C   UNL     1       4.237   6.976  17.465  0.00  0.00    +0.000 A 
ATOM     20  C   UNL     1       3.183   7.073  18.395  0.00  0.00    +0.000 A 
BRANCH  16  21
ATOM     21  N   UNL     1       5.887   3.813  18.523  0.00  0.00    +0.000 N 
ATOM     22  H   UNL     1       6.724   3.878  17.954  0.00  0.00    +0.000 HD
ATOM     23  H   UNL     1       5.356   2.960  18.347  0.00  0.00    +0.000 HD
ENDBRANCH  16  21
BRANCH  14  25
ATOM     24  C   UNL     1       1.474   4.889  20.688  0.00  0.00    +0.000 C 
ATOM     25  O   UNL     1       1.997   6.144  20.254  0.00  0.00    +0.000 OA
ENDBRANCH  14  25
ENDBRANCH   1  20
TORSDOF 4
ENDMDL
MODEL 7
REMARK VINA RESULT:      -6.5      1.305      1.455
REMARK  Name = 
REMARK  5 active torsions:
REMARK  status: ('A' for Active; 'I' for Inactive)
REMARK    1  A    between atoms: C_1  and  O_2
REMARK    2  A    between atoms: O_2  and  C_3
REMARK    3  A    between atoms: C_5  and  N_6
REMARK    4  A    between atoms: C_10  and  C_11
REMARK    5  A    between atoms: N_13  and  C_14
REMARK                            x       y       z     vdW  Elec       q    Type
REMARK                         _______ _______ _______ _____ _____    ______ ____
ROOT
ATOM      1  C   UNL     1       2.636   7.179  18.907  0.00  0.00    +0.000 C 
ATOM      2  O   UNL     1       2.002   7.559  17.922  0.00  0.00    +0.000 OA
ATOM      3  N   UNL     1       2.278   7.564  20.180  0.00  0.00    +0.000 N 
ATOM      4  H   UNL     1       2.660   7.020  20.949  0.00  0.00    +0.000 HD
ENDROOT
BRANCH   3   5
ATOM      5  C   UNL     1       1.070   8.344  20.396  0.00  0.00    +0.000 C 
ATOM      6  C   UNL     1       0.614   8.361  21.856  0.00  0.00    +0.000 C 
ATOM      7  C   UNL     1      -0.304   9.570  21.857  0.00  0.00    +0.000 C 
ATOM      8  C   UNL     1      -0.703  10.137  23.211  0.00  0.00    +0.000 C 
ATOM      9  C   UNL     1      -1.565  11.386  22.970  0.00  0.00    +0.000 C 
ATOM     10  C   UNL     1      -0.831  12.384  22.068  0.00  0.00    +0.000 C 
ATOM     11  C   UNL     1      -0.293  11.728  20.783  0.00  0.00    +0.000 C 
ATOM     12  N   UNL     1       0.502  10.561  21.140  0.00  0.00    +0.000 NA
ATOM     13  C   UNL     1       1.146   9.853  20.022  0.00  0.00    +0.000 C 
ENDBRANCH   3   5
BRANCH   1  20
ATOM     14  C   UNL     1       3.954   4.965  19.199  0.00  0.00    +0.000 A 
ATOM     15  C   UNL     1       5.145   4.256  18.944  0.00  0.00    +0.000 A 
ATOM     16  C   UNL     1       6.221   4.832  18.257  0.00  0.00    +0.000 A 
ATOM     17  C   UNL     1       6.057   6.124  17.745  0.00  0.00    +0.000 A 
ATOM     18 CL   UNL     1       7.306   6.866  16.807  0.00  0.00    +0.000 Cl
ATOM     19  C   UNL     1       4.890   6.845  17.989  0.00  0.00    +0.000 A 
ATOM     20  C   UNL     1       3.823   6.281  18.716  0.00  0.00    +0.000 A 
BRANCH  16  21
ATOM     21  N   UNL     1       7.316   4.025  17.899  0.00  0.00    +0.000 N 
ATOM     22  H   UNL     1       7.170   3.027  18.009  0.00  0.00    +0.000 HD
ATOM     23  H   UNL     1       8.192   4.343  18.311  0.00  0.00    +0.000 HD
ENDBRANCH  16  21
BRANCH  14  25
ATOM     24  C   UNL     1       2.432   3.142  19.321  0.00  0.00    +0.000 C 
ATOM     25  O   UNL     1       2.884   4.391  19.844  0.00  0.00    +0.000 OA
ENDBRANCH  14  25
ENDBRANCH   1  20
TORSDOF 4
ENDMDL
MODEL 8
REMARK VINA RESULT:      -6.5      2.021      2.348
REMARK  Name = 
REMARK  5 active torsions:
REMARK  status: ('A' for Active; 'I' for Inactive)
REMARK    1  A    between atoms: C_1  and  O_2
REMARK    2  A    between atoms: O_2  and  C_3
REMARK    3  A    between atoms: C_5  and  N_6
REMARK    4  A    between atoms: C_10  and  C_11
REMARK    5  A    between atoms: N_13  and  C_14
REMARK                            x       y       z     vdW  Elec       q    Type
REMARK                         _______ _______ _______ _____ _____    ______ ____
ROOT
ATOM      1  C   UNL     1       2.507   8.309  18.049  0.00  0.00    +0.000 C 
ATOM      2  O   UNL     1       2.576   8.838  16.939  0.00  0.00    +0.000 OA
ATOM      3  N   UNL     1       1.701   8.824  19.039  0.00  0.00    +0.000 N 
ATOM      4  H   UNL     1       1.484   8.210  19.820  0.00  0.00    +0.000 HD
ENDROOT
BRANCH   3   5
ATOM      5  C   UNL     1       0.826   9.950  18.759  0.00  0.00    +0.000 C 
ATOM      6  C   UNL     1      -0.442   9.556  17.999  0.00  0.00    +0.000 C 
ATOM      7  C   UNL     1      -1.327  10.758  18.273  0.00  0.00    +0.000 C 
ATOM      8  C   UNL     1      -2.811  10.611  17.972  0.00  0.00    +0.000 C 
ATOM      9  C   UNL     1      -3.515  11.911  18.390  0.00  0.00    +0.000 C 
ATOM     10  C   UNL     1      -3.207  12.247  19.853  0.00  0.00    +0.000 C 
ATOM     11  C   UNL     1      -1.697  12.218  20.156  0.00  0.00    +0.000 C 
ATOM     12  N   UNL     1      -1.146  10.944  19.715  0.00  0.00    +0.000 NA
ATOM     13  C   UNL     1       0.283  10.728  19.992  0.00  0.00    +0.000 C 
ENDBRANCH   3   5
BRANCH   1  20
ATOM     14  C   UNL     1       3.079   6.137  19.346  0.00  0.00    +0.000 A 
ATOM     15  C   UNL     1       3.948   5.036  19.483  0.00  0.00    +0.000 A 
ATOM     16  C   UNL     1       5.070   4.867  18.660  0.00  0.00    +0.000 A 
ATOM     17  C   UNL     1       5.268   5.786  17.624  0.00  0.00    +0.000 A 
ATOM     18 CL   UNL     1       6.577   5.591  16.511  0.00  0.00    +0.000 Cl
ATOM     19  C   UNL     1       4.424   6.884  17.473  0.00  0.00    +0.000 A 
ATOM     20  C   UNL     1       3.319   7.077  18.326  0.00  0.00    +0.000 A 
BRANCH  16  21
ATOM     21  N   UNL     1       5.805   3.671  18.744  0.00  0.00    +0.000 N 
ATOM     22  H   UNL     1       6.788   3.752  18.507  0.00  0.00    +0.000 HD
ATOM     23  H   UNL     1       5.348   2.894  18.268  0.00  0.00    +0.000 HD
ENDBRANCH  16  21
BRANCH  14  25
ATOM     24  C   UNL     1       1.398   5.087  20.660  0.00  0.00    +0.000 C 
ATOM     25  O   UNL     1       1.960   6.288  20.130  0.00  0.00    +0.000 OA
ENDBRANCH  14  25
ENDBRANCH   1  20
TORSDOF 4
ENDMDL
MODEL 9
REMARK VINA RESULT:      -6.4      2.683      3.557
REMARK  Name = 
REMARK  5 active torsions:
REMARK  status: ('A' for Active; 'I' for Inactive)
REMARK    1  A    between atoms: C_1  and  O_2
REMARK    2  A    between atoms: O_2  and  C_3
REMARK    3  A    between atoms: C_5  and  N_6
REMARK    4  A    between atoms: C_10  and  C_11
REMARK    5  A    between atoms: N_13  and  C_14
REMARK                            x       y       z     vdW  Elec       q    Type
REMARK                         _______ _______ _______ _____ _____    ______ ____
ROOT
ATOM      1  C   UNL     1       2.966   7.303  18.421  0.00  0.00    +0.000 C 
ATOM      2  O   UNL     1       3.253   7.844  17.353  0.00  0.00    +0.000 OA
ATOM      3  N   UNL     1       2.139   7.916  19.335  0.00  0.00    +0.000 N 
ATOM      4  H   UNL     1       1.733   7.325  20.056  0.00  0.00    +0.000 HD
ENDROOT
BRANCH   3   5
ATOM      5  C   UNL     1       1.495   9.178  19.009  0.00  0.00    +0.000 C 
ATOM      6  C   UNL     1       0.392   9.040  17.959  0.00  0.00    +0.000 C 
ATOM      7  C   UNL     1      -0.377  10.331  18.178  0.00  0.00    +0.000 C 
ATOM      8  C   UNL     1      -1.762  10.429  17.555  0.00  0.00    +0.000 C 
ATOM      9  C   UNL     1      -2.374  11.777  17.964  0.00  0.00    +0.000 C 
ATOM     10  C   UNL     1      -2.364  11.937  19.487  0.00  0.00    +0.000 C 
ATOM     11  C   UNL     1      -0.976  11.661  20.097  0.00  0.00    +0.000 C 
ATOM     12  N   UNL     1      -0.503  10.363  19.637  0.00  0.00    +0.000 NA
ATOM     13  C   UNL     1       0.790   9.917  20.182  0.00  0.00    +0.000 C 
ENDBRANCH   3   5
BRANCH   1  20
ATOM     14  C   UNL     1       4.825   5.495  18.410  0.00  0.00    +0.000 A 
ATOM     15  C   UNL     1       5.200   4.182  18.761  0.00  0.00    +0.000 A 
ATOM     16  C   UNL     1       4.312   3.297  19.385  0.00  0.00    +0.000 A 
ATOM     17  C   UNL     1       3.046   3.777  19.737  0.00  0.00    +0.000 A 
ATOM     18 CL   UNL     1       1.928   2.772  20.593  0.00  0.00    +0.000 Cl
ATOM     19  C   UNL     1       2.652   5.070  19.396  0.00  0.00    +0.000 A 
ATOM     20  C   UNL     1       3.531   5.947  18.731  0.00  0.00    +0.000 A 
BRANCH  16  21
ATOM     21  N   UNL     1       4.792   2.059  19.849  0.00  0.00    +0.000 N 
ATOM     22  H   UNL     1       5.674   1.761  19.447  0.00  0.00    +0.000 HD
ATOM     23  H   UNL     1       4.082   1.328  19.828  0.00  0.00    +0.000 HD
ENDBRANCH  16  21
BRANCH  14  25
ATOM     24  C   UNL     1       7.085   6.178  18.131  0.00  0.00    +0.000 C 
ATOM     25  O   UNL     1       5.705   6.377  17.827  0.00  0.00    +0.000 OA
ENDBRANCH  14  25
ENDBRANCH   1  20
TORSDOF 4
ENDMDL
