MODEL 1
REMARK VINA RESULT:      -7.5      0.000      0.000
REMARK  Name = 
REMARK  4 active torsions:
REMARK  status: ('A' for Active; 'I' for Inactive)
REMARK    1  A    between atoms: C_1  and  C_2
REMARK    2  A    between atoms: C_2  and  O_3
REMARK    3  A    between atoms: O_3  and  C_4
REMARK    4  A    between atoms: C_4  and  C_6
REMARK                            x       y       z     vdW  Elec       q    Type
REMARK                         _______ _______ _______ _____ _____    ______ ____
ROOT
ATOM      1  C   UNL     1       5.534   4.848  16.691  0.00  0.00    +0.000 C 
ATOM      2  C   UNL     1       4.984   4.046  17.619  0.00  0.00    +0.000 C 
ATOM      3  C   UNL     1       3.927   4.476  18.530  0.00  0.00    +0.000 A 
ATOM      4  C   UNL     1       3.415   3.583  19.479  0.00  0.00    +0.000 A 
ATOM      5  C   UNL     1       2.416   3.997  20.359  0.00  0.00    +0.000 A 
ATOM      6 BR   UNL     1       1.728   2.787  21.637  0.00  0.00    +0.000 Br
ATOM      7  C   UNL     1       1.924   5.299  20.306  0.00  0.00    +0.000 A 
ATOM      8  C   UNL     1       2.437   6.191  19.365  0.00  0.00    +0.000 A 
ATOM      9  C   UNL     1       3.442   5.787  18.473  0.00  0.00    +0.000 A 
ATOM     10  C   UNL     1       3.984   6.770  17.473  0.00  0.00    +0.000 C 
ATOM     11  C   UNL     1       5.056   6.248  16.541  0.00  0.00    +0.000 C 
ATOM     12  O   UNL     1       5.502   6.988  15.664  0.00  0.00    +0.000 OA
ENDROOT
BRANCH   1  13
ATOM     13  C   UNL     1       6.667   4.267  15.935  0.00  0.00    +0.000 C 
ATOM     14  O   UNL     1       7.842   4.496  16.192  0.00  0.00    +0.000 OA
BRANCH  13  15
ATOM     15  O   UNL     1       6.217   3.608  14.844  0.00  0.00    +0.000 OA
BRANCH  15  17
ATOM     16  C   UNL     1       5.832   3.389  12.505  0.00  0.00    +0.000 C 
ATOM     17  C   UNL     1       6.534   4.201  13.579  0.00  0.00    +0.000 C 
ENDBRANCH  15  17
ENDBRANCH  13  15
ENDBRANCH   1  13
TORSDOF 3
ENDMDL
MODEL 2
REMARK VINA RESULT:      -7.4      1.554      1.822
REMARK  Name = 
REMARK  4 active torsions:
REMARK  status: ('A' for Active; 'I' for Inactive)
REMARK    1  A    between atoms: C_1  and  C_2
REMARK    2  A    between atoms: C_2  and  O_3
REMARK    3  A    between atoms: O_3  and  C_4
REMARK    4  A    between atoms: C_4  and  C_6
REMARK                            x       y       z     vdW  Elec       q    Type
REMARK                         _______ _______ _______ _____ _____    ______ ____
ROOT
ATOM      1  C   UNL     1       6.144   5.033  15.659  0.00  0.00    +0.000 C 
ATOM      2  C   UNL     1       5.047   4.299  15.914  0.00  0.00    +0.000 C 
ATOM      3  C   UNL     1       4.312   4.363  17.174  0.00  0.00    +0.000 A 
ATOM      4  C   UNL     1       3.185   3.554  17.369  0.00  0.00    +0.000 A 
ATOM      5  C   UNL     1       2.491   3.604  18.576  0.00  0.00    +0.000 A 
ATOM      6 BR   UNL     1       0.971   2.512  18.832  0.00  0.00    +0.000 Br
ATOM      7  C   UNL     1       2.913   4.451  19.598  0.00  0.00    +0.000 A 
ATOM      8  C   UNL     1       4.038   5.253  19.408  0.00  0.00    +0.000 A 
ATOM      9  C   UNL     1       4.745   5.213  18.197  0.00  0.00    +0.000 A 
ATOM     10  C   UNL     1       5.959   6.082  18.020  0.00  0.00    +0.000 C 
ATOM     11  C   UNL     1       6.655   5.986  16.679  0.00  0.00    +0.000 C 
ATOM     12  O   UNL     1       7.624   6.712  16.452  0.00  0.00    +0.000 OA
ENDROOT
BRANCH   1  13
ATOM     13  C   UNL     1       6.816   4.751  14.369  0.00  0.00    +0.000 C 
ATOM     14  O   UNL     1       7.752   5.409  13.934  0.00  0.00    +0.000 OA
BRANCH  13  15
ATOM     15  O   UNL     1       6.145   3.795  13.688  0.00  0.00    +0.000 OA
BRANCH  15  17
ATOM     16  C   UNL     1       5.664   2.510  11.743  0.00  0.00    +0.000 C 
ATOM     17  C   UNL     1       6.504   3.641  12.309  0.00  0.00    +0.000 C 
ENDBRANCH  15  17
ENDBRANCH  13  15
ENDBRANCH   1  13
TORSDOF 3
ENDMDL
MODEL 3
REMARK VINA RESULT:      -6.8      2.014      3.007
REMARK  Name = 
REMARK  4 active torsions:
REMARK  status: ('A' for Active; 'I' for Inactive)
REMARK    1  A    between atoms: C_1  and  C_2
REMARK    2  A    between atoms: C_2  and  O_3
REMARK    3  A    between atoms: O_3  and  C_4
REMARK    4  A    between atoms: C_4  and  C_6
REMARK                            x       y       z     vdW  Elec       q    Type
REMARK                         _______ _______ _______ _____ _____    ______ ____
ROOT
ATOM      1  C   UNL     1       6.087   4.471  17.559  0.00  0.00    +0.000 C 
ATOM      2  C   UNL     1       5.467   4.132  18.703  0.00  0.00    +0.000 C 
ATOM      3  C   UNL     1       4.053   3.776  18.778  0.00  0.00    +0.000 A 
ATOM      4  C   UNL     1       3.478   3.448  20.012  0.00  0.00    +0.000 A 
ATOM      5  C   UNL     1       2.125   3.121  20.086  0.00  0.00    +0.000 A 
ATOM      6 BR   UNL     1       1.356   2.679  21.754  0.00  0.00    +0.000 Br
ATOM      7  C   UNL     1       1.335   3.123  18.939  0.00  0.00    +0.000 A 
ATOM      8  C   UNL     1       1.905   3.454  17.710  0.00  0.00    +0.000 A 
ATOM      9  C   UNL     1       3.266   3.784  17.622  0.00  0.00    +0.000 A 
ATOM     10  C   UNL     1       3.854   4.145  16.286  0.00  0.00    +0.000 C 
ATOM     11  C   UNL     1       5.332   4.475  16.278  0.00  0.00    +0.000 C 
ATOM     12  O   UNL     1       5.885   4.727  15.207  0.00  0.00    +0.000 OA
ENDROOT
BRANCH   1  13
ATOM     13  C   UNL     1       7.495   4.907  17.700  0.00  0.00    +0.000 C 
ATOM     14  O   UNL     1       8.455   4.178  17.487  0.00  0.00    +0.000 OA
BRANCH  13  15
ATOM     15  O   UNL     1       7.553   6.141  18.250  0.00  0.00    +0.000 OA
BRANCH  15  17
ATOM     16  C   UNL     1       8.105   8.429  17.894  0.00  0.00    +0.000 C 
ATOM     17  C   UNL     1       7.336   7.237  17.352  0.00  0.00    +0.000 C 
ENDBRANCH  15  17
ENDBRANCH  13  15
ENDBRANCH   1  13
TORSDOF 3
ENDMDL
MODEL 4
REMARK VINA RESULT:      -6.8      2.123      3.144
REMARK  Name = 
REMARK  4 active torsions:
REMARK  status: ('A' for Active; 'I' for Inactive)
REMARK    1  A    between atoms: C_1  and  C_2
REMARK    2  A    between atoms: C_2  and  O_3
REMARK    3  A    between atoms: O_3  and  C_4
REMARK    4  A    between atoms: C_4  and  C_6
REMARK                            x       y       z     vdW  Elec       q    Type
REMARK                         _______ _______ _______ _____ _____    ______ ____
ROOT
ATOM      1  C   UNL     1       6.022   4.141  14.196  0.00  0.00    +0.000 C 
ATOM      2  C   UNL     1       5.090   3.679  15.047  0.00  0.00    +0.000 C 
ATOM      3  C   UNL     1       5.088   3.977  16.476  0.00  0.00    +0.000 A 
ATOM      4  C   UNL     1       4.088   3.445  17.300  0.00  0.00    +0.000 A 
ATOM      5  C   UNL     1       4.093   3.718  18.667  0.00  0.00    +0.000 A 
ATOM      6 BR   UNL     1       2.740   2.998  19.773  0.00  0.00    +0.000 Br
ATOM      7  C   UNL     1       5.090   4.514  19.224  0.00  0.00    +0.000 A 
ATOM      8  C   UNL     1       6.089   5.039  18.406  0.00  0.00    +0.000 A 
ATOM      9  C   UNL     1       6.096   4.774  17.029  0.00  0.00    +0.000 A 
ATOM     10  C   UNL     1       7.189   5.346  16.170  0.00  0.00    +0.000 C 
ATOM     11  C   UNL     1       7.113   5.021  14.693  0.00  0.00    +0.000 C 
ATOM     12  O   UNL     1       7.948   5.504  13.928  0.00  0.00    +0.000 OA
ENDROOT
BRANCH   1  13
ATOM     13  C   UNL     1       5.922   3.642  12.805  0.00  0.00    +0.000 C 
ATOM     14  O   UNL     1       6.891   3.340  12.120  0.00  0.00    +0.000 OA
BRANCH  13  15
ATOM     15  O   UNL     1       4.647   3.735  12.362  0.00  0.00    +0.000 OA
BRANCH  15  17
ATOM     16  C   UNL     1       3.340   3.701  10.373  0.00  0.00    +0.000 C 
ATOM     17  C   UNL     1       4.316   2.918  11.233  0.00  0.00    +0.000 C 
ENDBRANCH  15  17
ENDBRANCH  13  15
ENDBRANCH   1  13
TORSDOF 3
ENDMDL
MODEL 5
REMARK VINA RESULT:      -6.7      2.264      3.564
REMARK  Name = 
REMARK  4 active torsions:
REMARK  status: ('A' for Active; 'I' for Inactive)
REMARK    1  A    between atoms: C_1  and  C_2
REMARK    2  A    between atoms: C_2  and  O_3
REMARK    3  A    between atoms: O_3  and  C_4
REMARK    4  A    between atoms: C_4  and  C_6
REMARK                            x       y       z     vdW  Elec       q    Type
REMARK                         _______ _______ _______ _____ _____    ______ ____
ROOT
ATOM      1  C   UNL     1       6.613   5.380  17.737  0.00  0.00    +0.000 C 
ATOM      2  C   UNL     1       5.673   5.188  18.679  0.00  0.00    +0.000 C 
ATOM      3  C   UNL     1       4.434   4.453  18.440  0.00  0.00    +0.000 A 
ATOM      4  C   UNL     1       3.497   4.307  19.471  0.00  0.00    +0.000 A 
ATOM      5  C   UNL     1       2.307   3.618  19.240  0.00  0.00    +0.000 A 
ATOM      6 BR   UNL     1       1.048   3.425  20.635  0.00  0.00    +0.000 Br
ATOM      7  C   UNL     1       2.039   3.074  17.986  0.00  0.00    +0.000 A 
ATOM      8  C   UNL     1       2.968   3.223  16.958  0.00  0.00    +0.000 A 
ATOM      9  C   UNL     1       4.170   3.913  17.177  0.00  0.00    +0.000 A 
ATOM     10  C   UNL     1       5.152   4.066  16.049  0.00  0.00    +0.000 C 
ATOM     11  C   UNL     1       6.428   4.814  16.375  0.00  0.00    +0.000 C 
ATOM     12  O   UNL     1       7.296   4.926  15.509  0.00  0.00    +0.000 OA
ENDROOT
BRANCH   1  13
ATOM     13  C   UNL     1       7.749   6.243  18.135  0.00  0.00    +0.000 C 
ATOM     14  O   UNL     1       8.321   6.157  19.214  0.00  0.00    +0.000 OA
BRANCH  13  15
ATOM     15  O   UNL     1       7.935   7.225  17.224  0.00  0.00    +0.000 OA
BRANCH  15  17
ATOM     16  C   UNL     1       8.470   9.334  18.189  0.00  0.00    +0.000 C 
ATOM     17  C   UNL     1       7.372   8.501  17.555  0.00  0.00    +0.000 C 
ENDBRANCH  15  17
ENDBRANCH  13  15
ENDBRANCH   1  13
TORSDOF 3
ENDMDL
MODEL 6
REMARK VINA RESULT:      -6.6      3.465      6.031
REMARK  Name = 
REMARK  4 active torsions:
REMARK  status: ('A' for Active; 'I' for Inactive)
REMARK    1  A    between atoms: C_1  and  C_2
REMARK    2  A    between atoms: C_2  and  O_3
REMARK    3  A    between atoms: O_3  and  C_4
REMARK    4  A    between atoms: C_4  and  C_6
REMARK                            x       y       z     vdW  Elec       q    Type
REMARK                         _______ _______ _______ _____ _____    ______ ____
ROOT
ATOM      1  C   UNL     1       5.087   4.146  18.499  0.00  0.00    +0.000 C 
ATOM      2  C   UNL     1       4.807   3.720  17.255  0.00  0.00    +0.000 C 
ATOM      3  C   UNL     1       5.614   4.062  16.087  0.00  0.00    +0.000 A 
ATOM      4  C   UNL     1       5.247   3.589  14.821  0.00  0.00    +0.000 A 
ATOM      5  C   UNL     1       6.009   3.926  13.704  0.00  0.00    +0.000 A 
ATOM      6 BR   UNL     1       5.510   3.284  11.998  0.00  0.00    +0.000 Br
ATOM      7  C   UNL     1       7.134   4.738  13.835  0.00  0.00    +0.000 A 
ATOM      8  C   UNL     1       7.496   5.214  15.094  0.00  0.00    +0.000 A 
ATOM      9  C   UNL     1       6.739   4.881  16.227  0.00  0.00    +0.000 A 
ATOM     10  C   UNL     1       7.147   5.414  17.572  0.00  0.00    +0.000 C 
ATOM     11  C   UNL     1       6.282   4.996  18.743  0.00  0.00    +0.000 C 
ATOM     12  O   UNL     1       6.595   5.355  19.879  0.00  0.00    +0.000 OA
ENDROOT
BRANCH   1  13
ATOM     13  C   UNL     1       4.092   3.788  19.536  0.00  0.00    +0.000 C 
ATOM     14  O   UNL     1       4.116   2.737  20.165  0.00  0.00    +0.000 OA
BRANCH  13  15
ATOM     15  O   UNL     1       3.087   4.692  19.558  0.00  0.00    +0.000 OA
BRANCH  15  17
ATOM     16  C   UNL     1       0.978   4.086  20.480  0.00  0.00    +0.000 C 
ATOM     17  C   UNL     1       2.317   4.743  20.765  0.00  0.00    +0.000 C 
ENDBRANCH  15  17
ENDBRANCH  13  15
ENDBRANCH   1  13
TORSDOF 3
ENDMDL
MODEL 7
REMARK VINA RESULT:      -6.5      3.751      5.800
REMARK  Name = 
REMARK  4 active torsions:
REMARK  status: ('A' for Active; 'I' for Inactive)
REMARK    1  A    between atoms: C_1  and  C_2
REMARK    2  A    between atoms: C_2  and  O_3
REMARK    3  A    between atoms: O_3  and  C_4
REMARK    4  A    between atoms: C_4  and  C_6
REMARK                            x       y       z     vdW  Elec       q    Type
REMARK                         _______ _______ _______ _____ _____    ______ ____
ROOT
ATOM      1  C   UNL     1       4.246   3.151  19.289  0.00  0.00    +0.000 C 
ATOM      2  C   UNL     1       5.089   4.193  19.396  0.00  0.00    +0.000 C 
ATOM      3  C   UNL     1       5.456   5.049  18.271  0.00  0.00    +0.000 A 
ATOM      4  C   UNL     1       6.353   6.108  18.461  0.00  0.00    +0.000 A 
ATOM      5  C   UNL     1       6.714   6.917  17.385  0.00  0.00    +0.000 A 
ATOM      6 BR   UNL     1       7.923   8.345  17.649  0.00  0.00    +0.000 Br
ATOM      7  C   UNL     1       6.193   6.678  16.116  0.00  0.00    +0.000 A 
ATOM      8  C   UNL     1       5.305   5.621  15.924  0.00  0.00    +0.000 A 
ATOM      9  C   UNL     1       4.932   4.799  16.999  0.00  0.00    +0.000 A 
ATOM     10  C   UNL     1       3.978   3.661  16.763  0.00  0.00    +0.000 C 
ATOM     11  C   UNL     1       3.619   2.833  17.979  0.00  0.00    +0.000 C 
ATOM     12  O   UNL     1       2.801   1.919  17.863  0.00  0.00    +0.000 OA
ENDROOT
BRANCH   1  13
ATOM     13  C   UNL     1       4.082   2.334  20.514  0.00  0.00    +0.000 C 
ATOM     14  O   UNL     1       4.993   1.705  21.037  0.00  0.00    +0.000 OA
BRANCH  13  15
ATOM     15  O   UNL     1       2.776   2.252  20.853  0.00  0.00    +0.000 OA
BRANCH  15  17
ATOM     16  C   UNL     1       1.074   3.896  20.594  0.00  0.00    +0.000 C 
ATOM     17  C   UNL     1       2.215   3.416  21.473  0.00  0.00    +0.000 C 
ENDBRANCH  15  17
ENDBRANCH  13  15
ENDBRANCH   1  13
TORSDOF 3
ENDMDL
MODEL 8
REMARK VINA RESULT:      -6.5      3.211      4.399
REMARK  Name = 
REMARK  4 active torsions:
REMARK  status: ('A' for Active; 'I' for Inactive)
REMARK    1  A    between atoms: C_1  and  C_2
REMARK    2  A    between atoms: C_2  and  O_3
REMARK    3  A    between atoms: O_3  and  C_4
REMARK    4  A    between atoms: C_4  and  C_6
REMARK                            x       y       z     vdW  Elec       q    Type
REMARK                         _______ _______ _______ _____ _____    ______ ____
ROOT
ATOM      1  C   UNL     1       3.663   5.303  18.947  0.00  0.00    +0.000 C 
ATOM      2  C   UNL     1       2.896   5.812  19.926  0.00  0.00    +0.000 C 
ATOM      3  C   UNL     1       2.215   7.100  19.827  0.00  0.00    +0.000 A 
ATOM      4  C   UNL     1       1.443   7.567  20.898  0.00  0.00    +0.000 A 
ATOM      5  C   UNL     1       0.804   8.803  20.809  0.00  0.00    +0.000 A 
ATOM      6 BR   UNL     1      -0.236   9.428  22.258  0.00  0.00    +0.000 Br
ATOM      7  C   UNL     1       0.930   9.582  19.662  0.00  0.00    +0.000 A 
ATOM      8  C   UNL     1       1.702   9.120  18.597  0.00  0.00    +0.000 A 
ATOM      9  C   UNL     1       2.350   7.878  18.673  0.00  0.00    +0.000 A 
ATOM     10  C   UNL     1       3.183   7.406  17.513  0.00  0.00    +0.000 C 
ATOM     11  C   UNL     1       3.836   6.050  17.673  0.00  0.00    +0.000 C 
ATOM     12  O   UNL     1       4.488   5.583  16.737  0.00  0.00    +0.000 OA
ENDROOT
BRANCH   1  13
ATOM     13  C   UNL     1       4.361   4.038  19.274  0.00  0.00    +0.000 C 
ATOM     14  O   UNL     1       5.574   3.893  19.200  0.00  0.00    +0.000 OA
BRANCH  13  15
ATOM     15  O   UNL     1       3.465   3.048  19.489  0.00  0.00    +0.000 OA
BRANCH  15  17
ATOM     16  C   UNL     1       1.378   2.384  18.555  0.00  0.00    +0.000 C 
ATOM     17  C   UNL     1       2.874   2.473  18.316  0.00  0.00    +0.000 C 
ENDBRANCH  15  17
ENDBRANCH  13  15
ENDBRANCH   1  13
TORSDOF 3
ENDMDL
MODEL 9
REMARK VINA RESULT:      -6.5      3.482      5.868
REMARK  Name = 
REMARK  4 active torsions:
REMARK  status: ('A' for Active; 'I' for Inactive)
REMARK    1  A    between atoms: C_1  and  C_2
REMARK    2  A    between atoms: C_2  and  O_3
REMARK    3  A    between atoms: O_3  and  C_4
REMARK    4  A    between atoms: C_4  and  C_6
REMARK                            x       y       z     vdW  Elec       q    Type
REMARK                         _______ _______ _______ _____ _____    ______ ____
ROOT
ATOM      1  C   UNL     1       4.906   4.397  18.464  0.00  0.00    +0.000 C 
ATOM      2  C   UNL     1       4.577   4.006  17.220  0.00  0.00    +0.000 C 
ATOM      3  C   UNL     1       5.447   4.189  16.062  0.00  0.00    +0.000 A 
ATOM      4  C   UNL     1       5.025   3.766  14.796  0.00  0.00    +0.000 A 
ATOM      5  C   UNL     1       5.850   3.953  13.688  0.00  0.00    +0.000 A 
ATOM      6 BR   UNL     1       5.275   3.379  11.982  0.00  0.00    +0.000 Br
ATOM      7  C   UNL     1       7.093   4.565  13.828  0.00  0.00    +0.000 A 
ATOM      8  C   UNL     1       7.512   4.992  15.088  0.00  0.00    +0.000 A 
ATOM      9  C   UNL     1       6.693   4.808  16.212  0.00  0.00    +0.000 A 
ATOM     10  C   UNL     1       7.165   5.284  17.557  0.00  0.00    +0.000 C 
ATOM     11  C   UNL     1       6.225   5.035  18.718  0.00  0.00    +0.000 C 
ATOM     12  O   UNL     1       6.576   5.353  19.854  0.00  0.00    +0.000 OA
ENDROOT
BRANCH   1  13
ATOM     13  C   UNL     1       3.850   4.226  19.488  0.00  0.00    +0.000 C 
ATOM     14  O   UNL     1       3.360   5.155  20.117  0.00  0.00    +0.000 OA
BRANCH  13  15
ATOM     15  O   UNL     1       3.644   2.914  19.738  0.00  0.00    +0.000 OA
BRANCH  15  17
ATOM     16  C   UNL     1       1.507   2.213  18.957  0.00  0.00    +0.000 C 
ATOM     17  C   UNL     1       2.329   2.561  20.185  0.00  0.00    +0.000 C 
ENDBRANCH  15  17
ENDBRANCH  13  15
ENDBRANCH   1  13
TORSDOF 3
ENDMDL
