MODEL 1
REMARK VINA RESULT:      -7.5      0.000      0.000
REMARK  Name = 
REMARK  9 active torsions:
REMARK  status: ('A' for Active; 'I' for Inactive)
REMARK    1  A    between atoms: C_1  and  O_2
REMARK    2  A    between atoms: O_2  and  C_3
REMARK    3  A    between atoms: C_6  and  O_7
REMARK    4  A    between atoms: O_7  and  C_8
REMARK    5  A    between atoms: C_9  and  C_10
REMARK    6  A    between atoms: C_16  and  O_17
REMARK    7  A    between atoms: O_17  and  C_18
REMARK    8  A    between atoms: C_19  and  O_20
REMARK    9  A    between atoms: O_20  and  C_21
REMARK                            x       y       z     vdW  Elec       q    Type
REMARK                         _______ _______ _______ _____ _____    ______ ____
ROOT
ATOM      1  C   UNL     1       1.542   6.099  21.234  0.00  0.00    +0.000 C 
ATOM      2  C   UNL     1       2.296   5.102  20.820  0.00  0.00    +0.000 C 
ATOM      3  C   UNL     1       3.141   5.194  19.757  0.00  0.00    +0.000 C 
ATOM      4  C   UNL     1       4.030   3.872  19.580  0.00  0.00    +0.000 C 
ATOM      5  C   UNL     1       4.682   4.009  18.318  0.00  0.00    +0.000 A 
ATOM      6  C   UNL     1       6.137   4.380  18.280  0.00  0.00    +0.000 A 
ATOM      7  C   UNL     1       6.628   4.729  16.969  0.00  0.00    +0.000 A 
ATOM      8  C   UNL     1       5.864   4.240  15.927  0.00  0.00    +0.000 A 
ATOM      9  C   UNL     1       4.101   3.810  16.676  0.00  0.00    +0.000 A 
ATOM     10  C   UNL     1       3.089   3.599  18.372  0.00  0.00    +0.000 A 
ATOM     11  C   UNL     1       2.335   3.645  20.539  0.00  0.00    +0.000 C 
ATOM     12  O   UNL     1       2.129   3.612  21.987  0.00  0.00    +0.000 OA
ENDROOT
BRANCH   1  17
ATOM     13  C   UNL     1       2.042   8.453  18.366  0.00  0.00    +0.000 A 
ATOM     14  C   UNL     1       1.323   9.535  18.781  0.00  0.00    +0.000 A 
ATOM     15  C   UNL     1       0.817   9.547  20.080  0.00  0.00    +0.000 A 
ATOM     16  C   UNL     1       0.723   8.414  20.871  0.00  0.00    +0.000 A 
ATOM     17  C   UNL     1       1.404   7.319  20.430  0.00  0.00    +0.000 A 
ATOM     18  C   UNL     1       1.994   7.385  19.179  0.00  0.00    +0.000 A 
BRANCH  13  20
ATOM     19  C   UNL     1       3.903   7.573  17.109  0.00  0.00    +0.000 C 
ATOM     20  O   UNL     1       2.878   8.548  17.293  0.00  0.00    +0.000 OA
ENDBRANCH  13  20
BRANCH  16  21
ATOM     21  O   UNL     1      -0.039   8.452  22.012  0.00  0.00    +0.000 OA
ATOM     22  C   UNL     1       0.076   9.578  22.881  0.00  0.00    +0.000 C 
ENDBRANCH  16  21
ENDBRANCH   1  17
BRANCH   7  23
ATOM     23  O   UNL     1       7.746   5.522  16.970  0.00  0.00    +0.000 OA
ATOM     24  C   UNL     1       7.615   6.875  17.410  0.00  0.00    +0.000 C 
ENDBRANCH   7  23
BRANCH   8  25
ATOM     25  O   UNL     1       6.711   4.366  14.670  0.00  0.00    +0.000 OA
ATOM     26  C   UNL     1       6.262   3.858  13.443  0.00  0.00    +0.000 C 
ENDBRANCH   8  25
TORSDOF 5
ENDMDL
MODEL 2
REMARK VINA RESULT:      -7.1      7.620     10.485
REMARK  Name = 
REMARK  9 active torsions:
REMARK  status: ('A' for Active; 'I' for Inactive)
REMARK    1  A    between atoms: C_1  and  O_2
REMARK    2  A    between atoms: O_2  and  C_3
REMARK    3  A    between atoms: C_6  and  O_7
REMARK    4  A    between atoms: O_7  and  C_8
REMARK    5  A    between atoms: C_9  and  C_10
REMARK    6  A    between atoms: C_16  and  O_17
REMARK    7  A    between atoms: O_17  and  C_18
REMARK    8  A    between atoms: C_19  and  O_20
REMARK    9  A    between atoms: O_20  and  C_21
REMARK                            x       y       z     vdW  Elec       q    Type
REMARK                         _______ _______ _______ _____ _____    ______ ____
ROOT
ATOM      1  C   UNL     1      -5.041  10.338  17.168  0.00  0.00    +0.000 C 
ATOM      2  C   UNL     1      -3.738  10.467  17.306  0.00  0.00    +0.000 C 
ATOM      3  C   UNL     1      -3.153  11.027  18.400  0.00  0.00    +0.000 C 
ATOM      4  C   UNL     1      -1.554  10.916  18.349  0.00  0.00    +0.000 C 
ATOM      5  C   UNL     1      -1.075  11.736  19.415  0.00  0.00    +0.000 A 
ATOM      6  C   UNL     1      -0.573  11.084  20.672  0.00  0.00    +0.000 A 
ATOM      7  C   UNL     1      -0.346  11.997  21.765  0.00  0.00    +0.000 A 
ATOM      8  C   UNL     1      -0.172  13.313  21.381  0.00  0.00    +0.000 A 
ATOM      9  C   UNL     1      -0.926  13.475  19.575  0.00  0.00    +0.000 A 
ATOM     10  C   UNL     1      -1.623  12.437  18.031  0.00  0.00    +0.000 A 
ATOM     11  C   UNL     1      -2.476  10.842  16.620  0.00  0.00    +0.000 C 
ATOM     12  O   UNL     1      -2.830   9.649  15.851  0.00  0.00    +0.000 OA
ENDROOT
BRANCH   1  17
ATOM     13  C   UNL     1      -7.311  10.740  20.119  0.00  0.00    +0.000 A 
ATOM     14  C   UNL     1      -7.743  12.022  19.950  0.00  0.00    +0.000 A 
ATOM     15  C   UNL     1      -7.416  12.691  18.771  0.00  0.00    +0.000 A 
ATOM     16  C   UNL     1      -6.427  12.263  17.901  0.00  0.00    +0.000 A 
ATOM     17  C   UNL     1      -5.962  10.997  18.101  0.00  0.00    +0.000 A 
ATOM     18  C   UNL     1      -6.400  10.318  19.226  0.00  0.00    +0.000 A 
BRANCH  13  20
ATOM     19  C   UNL     1      -7.767   8.506  20.907  0.00  0.00    +0.000 C 
ATOM     20  O   UNL     1      -7.913   9.920  21.027  0.00  0.00    +0.000 OA
ENDBRANCH  13  20
BRANCH  16  21
ATOM     21  O   UNL     1      -5.974  13.116  16.926  0.00  0.00    +0.000 OA
ATOM     22  C   UNL     1      -6.793  14.218  16.539  0.00  0.00    +0.000 C 
ENDBRANCH  16  21
ENDBRANCH   1  17
BRANCH   7  23
ATOM     23  O   UNL     1      -0.381  11.420  23.008  0.00  0.00    +0.000 OA
ATOM     24  C   UNL     1      -0.643  10.019  23.096  0.00  0.00    +0.000 C 
ENDBRANCH   7  23
BRANCH   8  25
ATOM     25  O   UNL     1       0.423  14.041  22.577  0.00  0.00    +0.000 OA
ATOM     26  C   UNL     1       0.300  15.431  22.709  0.00  0.00    +0.000 C 
ENDBRANCH   8  25
TORSDOF 5
ENDMDL
MODEL 3
REMARK VINA RESULT:      -6.9      7.605     10.325
REMARK  Name = 
REMARK  9 active torsions:
REMARK  status: ('A' for Active; 'I' for Inactive)
REMARK    1  A    between atoms: C_1  and  O_2
REMARK    2  A    between atoms: O_2  and  C_3
REMARK    3  A    between atoms: C_6  and  O_7
REMARK    4  A    between atoms: O_7  and  C_8
REMARK    5  A    between atoms: C_9  and  C_10
REMARK    6  A    between atoms: C_16  and  O_17
REMARK    7  A    between atoms: O_17  and  C_18
REMARK    8  A    between atoms: C_19  and  O_20
REMARK    9  A    between atoms: O_20  and  C_21
REMARK                            x       y       z     vdW  Elec       q    Type
REMARK                         _______ _______ _______ _____ _____    ______ ____
ROOT
ATOM      1  C   UNL     1      -5.062  10.441  17.198  0.00  0.00    +0.000 C 
ATOM      2  C   UNL     1      -3.753  10.474  17.333  0.00  0.00    +0.000 C 
ATOM      3  C   UNL     1      -3.125  11.053  18.393  0.00  0.00    +0.000 C 
ATOM      4  C   UNL     1      -1.540  10.812  18.356  0.00  0.00    +0.000 C 
ATOM      5  C   UNL     1      -0.996  11.654  19.372  0.00  0.00    +0.000 A 
ATOM      6  C   UNL     1      -0.548  11.044  20.669  0.00  0.00    +0.000 A 
ATOM      7  C   UNL     1      -0.248  12.001  21.705  0.00  0.00    +0.000 A 
ATOM      8  C   UNL     1       0.030  13.273  21.241  0.00  0.00    +0.000 A 
ATOM      9  C   UNL     1      -0.709  13.382  19.425  0.00  0.00    +0.000 A 
ATOM     10  C   UNL     1      -1.487  12.311  17.945  0.00  0.00    +0.000 A 
ATOM     11  C   UNL     1      -2.466  10.704  16.631  0.00  0.00    +0.000 C 
ATOM     12  O   UNL     1      -2.914   9.498  15.936  0.00  0.00    +0.000 OA
ENDROOT
BRANCH   1  17
ATOM     13  C   UNL     1      -6.685  13.466  18.694  0.00  0.00    +0.000 A 
ATOM     14  C   UNL     1      -7.443  12.902  19.677  0.00  0.00    +0.000 A 
ATOM     15  C   UNL     1      -7.285  11.545  19.953  0.00  0.00    +0.000 A 
ATOM     16  C   UNL     1      -6.647  10.663  19.096  0.00  0.00    +0.000 A 
ATOM     17  C   UNL     1      -5.928  11.227  18.084  0.00  0.00    +0.000 A 
ATOM     18  C   UNL     1      -6.019  12.599  17.913  0.00  0.00    +0.000 A 
BRANCH  13  20
ATOM     19  C   UNL     1      -7.530  15.653  18.129  0.00  0.00    +0.000 C 
ATOM     20  O   UNL     1      -6.500  14.816  18.651  0.00  0.00    +0.000 OA
ENDBRANCH  13  20
BRANCH  16  21
ATOM     21  O   UNL     1      -6.782   9.312  19.298  0.00  0.00    +0.000 OA
ATOM     22  C   UNL     1      -7.555   8.854  20.406  0.00  0.00    +0.000 C 
ENDBRANCH  16  21
ENDBRANCH   1  17
BRANCH   7  23
ATOM     23  O   UNL     1      -0.328  11.507  22.981  0.00  0.00    +0.000 OA
ATOM     24  C   UNL     1      -0.596  10.114  23.151  0.00  0.00    +0.000 C 
ENDBRANCH   7  23
BRANCH   8  25
ATOM     25  O   UNL     1       0.682  14.024  22.393  0.00  0.00    +0.000 OA
ATOM     26  C   UNL     1       1.350  15.237  22.176  0.00  0.00    +0.000 C 
ENDBRANCH   8  25
TORSDOF 5
ENDMDL
MODEL 4
REMARK VINA RESULT:      -6.6      7.957     10.790
REMARK  Name = 
REMARK  9 active torsions:
REMARK  status: ('A' for Active; 'I' for Inactive)
REMARK    1  A    between atoms: C_1  and  O_2
REMARK    2  A    between atoms: O_2  and  C_3
REMARK    3  A    between atoms: C_6  and  O_7
REMARK    4  A    between atoms: O_7  and  C_8
REMARK    5  A    between atoms: C_9  and  C_10
REMARK    6  A    between atoms: C_16  and  O_17
REMARK    7  A    between atoms: O_17  and  C_18
REMARK    8  A    between atoms: C_19  and  O_20
REMARK    9  A    between atoms: O_20  and  C_21
REMARK                            x       y       z     vdW  Elec       q    Type
REMARK                         _______ _______ _______ _____ _____    ______ ____
ROOT
ATOM      1  C   UNL     1      -4.884  10.675  16.835  0.00  0.00    +0.000 C 
ATOM      2  C   UNL     1      -3.620  10.685  17.205  0.00  0.00    +0.000 C 
ATOM      3  C   UNL     1      -3.170  11.336  18.312  0.00  0.00    +0.000 C 
ATOM      4  C   UNL     1      -1.616  11.051  18.585  0.00  0.00    +0.000 C 
ATOM      5  C   UNL     1      -1.230  11.964  19.612  0.00  0.00    +0.000 A 
ATOM      6  C   UNL     1      -1.049  11.457  21.015  0.00  0.00    +0.000 A 
ATOM      7  C   UNL     1      -0.900  12.493  22.008  0.00  0.00    +0.000 A 
ATOM      8  C   UNL     1      -0.490  13.711  21.501  0.00  0.00    +0.000 A 
ATOM      9  C   UNL     1      -0.885  13.682  19.578  0.00  0.00    +0.000 A 
ATOM     10  C   UNL     1      -1.427  12.507  18.071  0.00  0.00    +0.000 A 
ATOM     11  C   UNL     1      -2.219  10.819  16.734  0.00  0.00    +0.000 C 
ATOM     12  O   UNL     1      -2.585   9.569  16.068  0.00  0.00    +0.000 OA
ENDROOT
BRANCH   1  17
ATOM     13  C   UNL     1      -6.788  13.813  17.571  0.00  0.00    +0.000 A 
ATOM     14  C   UNL     1      -7.593  13.404  18.593  0.00  0.00    +0.000 A 
ATOM     15  C   UNL     1      -7.383  12.141  19.147  0.00  0.00    +0.000 A 
ATOM     16  C   UNL     1      -6.630  11.155  18.533  0.00  0.00    +0.000 A 
ATOM     17  C   UNL     1      -5.861  11.558  17.481  0.00  0.00    +0.000 A 
ATOM     18  C   UNL     1      -6.014  12.858  17.030  0.00  0.00    +0.000 A 
BRANCH  13  20
ATOM     19  C   UNL     1      -6.550  16.094  18.320  0.00  0.00    +0.000 C 
ATOM     20  O   UNL     1      -6.675  15.138  17.268  0.00  0.00    +0.000 OA
ENDBRANCH  13  20
BRANCH  16  21
ATOM     21  O   UNL     1      -6.706   9.865  18.995  0.00  0.00    +0.000 OA
ATOM     22  C   UNL     1      -7.332   9.618  20.253  0.00  0.00    +0.000 C 
ENDBRANCH  16  21
ENDBRANCH   1  17
BRANCH   7  23
ATOM     23  O   UNL     1      -1.230  12.114  23.282  0.00  0.00    +0.000 OA
ATOM     24  C   UNL     1      -2.600  11.830  23.571  0.00  0.00    +0.000 C 
ENDBRANCH   7  23
BRANCH   8  25
ATOM     25  O   UNL     1      -0.026  14.542  22.688  0.00  0.00    +0.000 OA
ATOM     26  C   UNL     1      -0.499  15.847  22.884  0.00  0.00    +0.000 C 
ENDBRANCH   8  25
TORSDOF 5
ENDMDL
MODEL 5
REMARK VINA RESULT:      -6.6      7.005     10.153
REMARK  Name = 
REMARK  9 active torsions:
REMARK  status: ('A' for Active; 'I' for Inactive)
REMARK    1  A    between atoms: C_1  and  O_2
REMARK    2  A    between atoms: O_2  and  C_3
REMARK    3  A    between atoms: C_6  and  O_7
REMARK    4  A    between atoms: O_7  and  C_8
REMARK    5  A    between atoms: C_9  and  C_10
REMARK    6  A    between atoms: C_16  and  O_17
REMARK    7  A    between atoms: O_17  and  C_18
REMARK    8  A    between atoms: C_19  and  O_20
REMARK    9  A    between atoms: O_20  and  C_21
REMARK                            x       y       z     vdW  Elec       q    Type
REMARK                         _______ _______ _______ _____ _____    ______ ____
ROOT
ATOM      1  C   UNL     1      -5.284  11.262  17.199  0.00  0.00    +0.000 C 
ATOM      2  C   UNL     1      -3.997  10.993  17.131  0.00  0.00    +0.000 C 
ATOM      3  C   UNL     1      -3.106  11.353  18.096  0.00  0.00    +0.000 C 
ATOM      4  C   UNL     1      -1.642  10.767  17.809  0.00  0.00    +0.000 C 
ATOM      5  C   UNL     1      -0.778  11.405  18.750  0.00  0.00    +0.000 A 
ATOM      6  C   UNL     1      -0.300  10.635  19.947  0.00  0.00    +0.000 A 
ATOM      7  C   UNL     1       0.359  11.439  20.947  0.00  0.00    +0.000 A 
ATOM      8  C   UNL     1       0.852  12.641  20.477  0.00  0.00    +0.000 A 
ATOM      9  C   UNL     1      -0.097  13.019  18.800  0.00  0.00    +0.000 A 
ATOM     10  C   UNL     1      -1.306  12.238  17.432  0.00  0.00    +0.000 A 
ATOM     11  C   UNL     1      -2.807  10.971  16.245  0.00  0.00    +0.000 C 
ATOM     12  O   UNL     1      -3.616   9.938  15.598  0.00  0.00    +0.000 OA
ENDROOT
BRANCH   1  17
ATOM     13  C   UNL     1      -6.239  12.479  20.608  0.00  0.00    +0.000 A 
ATOM     14  C   UNL     1      -6.788  13.692  20.315  0.00  0.00    +0.000 A 
ATOM     15  C   UNL     1      -6.994  14.029  18.978  0.00  0.00    +0.000 A 
ATOM     16  C   UNL     1      -6.398  13.360  17.922  0.00  0.00    +0.000 A 
ATOM     17  C   UNL     1      -5.809  12.168  18.227  0.00  0.00    +0.000 A 
ATOM     18  C   UNL     1      -5.725  11.811  19.562  0.00  0.00    +0.000 A 
BRANCH  13  20
ATOM     19  C   UNL     1      -6.743  12.775  22.948  0.00  0.00    +0.000 C 
ATOM     20  O   UNL     1      -6.381  11.938  21.852  0.00  0.00    +0.000 OA
ENDBRANCH  13  20
BRANCH  16  21
ATOM     21  O   UNL     1      -6.421  13.921  16.670  0.00  0.00    +0.000 OA
ATOM     22  C   UNL     1      -7.247  15.062  16.441  0.00  0.00    +0.000 C 
ENDBRANCH  16  21
ENDBRANCH   1  17
BRANCH   7  23
ATOM     23  O   UNL     1       0.352  10.901  22.208  0.00  0.00    +0.000 OA
ATOM     24  C   UNL     1       0.304   9.479  22.336  0.00  0.00    +0.000 C 
ENDBRANCH   7  23
BRANCH   8  25
ATOM     25  O   UNL     1       1.818  13.158  21.532  0.00  0.00    +0.000 OA
ATOM     26  C   UNL     1       2.738  14.172  21.232  0.00  0.00    +0.000 C 
ENDBRANCH   8  25
TORSDOF 5
ENDMDL
MODEL 6
REMARK VINA RESULT:      -6.3      3.863      6.667
REMARK  Name = 
REMARK  9 active torsions:
REMARK  status: ('A' for Active; 'I' for Inactive)
REMARK    1  A    between atoms: C_1  and  O_2
REMARK    2  A    between atoms: O_2  and  C_3
REMARK    3  A    between atoms: C_6  and  O_7
REMARK    4  A    between atoms: O_7  and  C_8
REMARK    5  A    between atoms: C_9  and  C_10
REMARK    6  A    between atoms: C_16  and  O_17
REMARK    7  A    between atoms: O_17  and  C_18
REMARK    8  A    between atoms: C_19  and  O_20
REMARK    9  A    between atoms: O_20  and  C_21
REMARK                            x       y       z     vdW  Elec       q    Type
REMARK                         _______ _______ _______ _____ _____    ______ ____
ROOT
ATOM      1  C   UNL     1      -0.964  12.477  18.336  0.00  0.00    +0.000 C 
ATOM      2  C   UNL     1       0.127  11.942  18.844  0.00  0.00    +0.000 C 
ATOM      3  C   UNL     1       0.323  10.599  18.946  0.00  0.00    +0.000 C 
ATOM      4  C   UNL     1       1.797  10.246  19.470  0.00  0.00    +0.000 C 
ATOM      5  C   UNL     1       1.783   8.846  19.750  0.00  0.00    +0.000 A 
ATOM      6  C   UNL     1       2.447   7.899  18.791  0.00  0.00    +0.000 A 
ATOM      7  C   UNL     1       2.165   6.507  19.039  0.00  0.00    +0.000 A 
ATOM      8  C   UNL     1       1.745   6.232  20.326  0.00  0.00    +0.000 A 
ATOM      9  C   UNL     1       1.114   7.929  21.086  0.00  0.00    +0.000 A 
ATOM     10  C   UNL     1       1.064   9.894  20.796  0.00  0.00    +0.000 A 
ATOM     11  C   UNL     1       1.120  12.024  19.944  0.00  0.00    +0.000 C 
ATOM     12  O   UNL     1       1.396  13.291  19.267  0.00  0.00    +0.000 OA
ENDROOT
BRANCH   1  17
ATOM     13  C   UNL     1      -3.127  10.016  16.525  0.00  0.00    +0.000 A 
ATOM     14  C   UNL     1      -4.260  10.049  17.283  0.00  0.00    +0.000 A 
ATOM     15  C   UNL     1      -4.367  11.008  18.290  0.00  0.00    +0.000 A 
ATOM     16  C   UNL     1      -3.287  11.722  18.780  0.00  0.00    +0.000 A 
ATOM     17  C   UNL     1      -2.140  11.650  18.045  0.00  0.00    +0.000 A 
ATOM     18  C   UNL     1      -2.110  10.767  16.979  0.00  0.00    +0.000 A 
BRANCH  13  20
ATOM     19  C   UNL     1      -3.389  10.158  14.132  0.00  0.00    +0.000 C 
ATOM     20  O   UNL     1      -3.126   9.398  15.310  0.00  0.00    +0.000 OA
ENDBRANCH  13  20
BRANCH  16  21
ATOM     21  O   UNL     1      -3.421  12.429  19.949  0.00  0.00    +0.000 OA
ATOM     22  C   UNL     1      -4.701  12.957  20.291  0.00  0.00    +0.000 C 
ENDBRANCH  16  21
ENDBRANCH   1  17
BRANCH   7  23
ATOM     23  O   UNL     1       2.319   5.690  17.949  0.00  0.00    +0.000 OA
ATOM     24  C   UNL     1       3.643   5.321  17.562  0.00  0.00    +0.000 C 
ENDBRANCH   7  23
BRANCH   8  25
ATOM     25  O   UNL     1       1.867   4.727  20.512  0.00  0.00    +0.000 OA
ATOM     26  C   UNL     1       0.775   3.881  20.280  0.00  0.00    +0.000 C 
ENDBRANCH   8  25
TORSDOF 5
ENDMDL
MODEL 7
REMARK VINA RESULT:      -6.3      8.693     12.428
REMARK  Name = 
REMARK  9 active torsions:
REMARK  status: ('A' for Active; 'I' for Inactive)
REMARK    1  A    between atoms: C_1  and  O_2
REMARK    2  A    between atoms: O_2  and  C_3
REMARK    3  A    between atoms: C_6  and  O_7
REMARK    4  A    between atoms: O_7  and  C_8
REMARK    5  A    between atoms: C_9  and  C_10
REMARK    6  A    between atoms: C_16  and  O_17
REMARK    7  A    between atoms: O_17  and  C_18
REMARK    8  A    between atoms: C_19  and  O_20
REMARK    9  A    between atoms: O_20  and  C_21
REMARK                            x       y       z     vdW  Elec       q    Type
REMARK                         _______ _______ _______ _____ _____    ______ ____
ROOT
ATOM      1  C   UNL     1      -4.509  12.635  24.141  0.00  0.00    +0.000 C 
ATOM      2  C   UNL     1      -5.569  12.552  23.365  0.00  0.00    +0.000 C 
ATOM      3  C   UNL     1      -5.559  12.893  22.047  0.00  0.00    +0.000 C 
ATOM      4  C   UNL     1      -6.952  12.552  21.328  0.00  0.00    +0.000 C 
ATOM      5  C   UNL     1      -6.884  13.167  20.042  0.00  0.00    +0.000 A 
ATOM      6  C   UNL     1      -6.632  12.311  18.833  0.00  0.00    +0.000 A 
ATOM      7  C   UNL     1      -6.341  13.052  17.630  0.00  0.00    +0.000 A 
ATOM      8  C   UNL     1      -6.780  14.362  17.649  0.00  0.00    +0.000 A 
ATOM      9  C   UNL     1      -7.057  14.835  19.534  0.00  0.00    +0.000 A 
ATOM     10  C   UNL     1      -7.163  14.093  21.373  0.00  0.00    +0.000 A 
ATOM     11  C   UNL     1      -7.028  12.810  23.271  0.00  0.00    +0.000 C 
ATOM     12  O   UNL     1      -7.026  11.776  24.306  0.00  0.00    +0.000 OA
ENDROOT
BRANCH   1  17
ATOM     13  C   UNL     1      -2.248  15.466  23.198  0.00  0.00    +0.000 A 
ATOM     14  C   UNL     1      -1.132  14.793  22.796  0.00  0.00    +0.000 A 
ATOM     15  C   UNL     1      -1.191  13.405  22.677  0.00  0.00    +0.000 A 
ATOM     16  C   UNL     1      -2.197  12.635  23.236  0.00  0.00    +0.000 A 
ATOM     17  C   UNL     1      -3.293  13.314  23.681  0.00  0.00    +0.000 A 
ATOM     18  C   UNL     1      -3.241  14.698  23.676  0.00  0.00    +0.000 A 
BRANCH  13  20
ATOM     19  C   UNL     1      -1.224  17.573  22.625  0.00  0.00    +0.000 C 
ATOM     20  O   UNL     1      -2.378  16.800  22.952  0.00  0.00    +0.000 OA
ENDBRANCH  13  20
BRANCH  16  21
ATOM     21  O   UNL     1      -2.035  11.275  23.320  0.00  0.00    +0.000 OA
ATOM     22  C   UNL     1      -0.819  10.695  22.851  0.00  0.00    +0.000 C 
ENDBRANCH  16  21
ENDBRANCH   1  17
BRANCH   7  23
ATOM     23  O   UNL     1      -5.641  12.352  16.683  0.00  0.00    +0.000 OA
ATOM     24  C   UNL     1      -4.723  11.350  17.124  0.00  0.00    +0.000 C 
ENDBRANCH   7  23
BRANCH   8  25
ATOM     25  O   UNL     1      -6.740  14.856  16.210  0.00  0.00    +0.000 OA
ATOM     26  C   UNL     1      -7.688  15.772  15.736  0.00  0.00    +0.000 C 
ENDBRANCH   8  25
TORSDOF 5
ENDMDL
MODEL 8
REMARK VINA RESULT:      -6.2      6.782     11.624
REMARK  Name = 
REMARK  9 active torsions:
REMARK  status: ('A' for Active; 'I' for Inactive)
REMARK    1  A    between atoms: C_1  and  O_2
REMARK    2  A    between atoms: O_2  and  C_3
REMARK    3  A    between atoms: C_6  and  O_7
REMARK    4  A    between atoms: O_7  and  C_8
REMARK    5  A    between atoms: C_9  and  C_10
REMARK    6  A    between atoms: C_16  and  O_17
REMARK    7  A    between atoms: O_17  and  C_18
REMARK    8  A    between atoms: C_19  and  O_20
REMARK    9  A    between atoms: O_20  and  C_21
REMARK                            x       y       z     vdW  Elec       q    Type
REMARK                         _______ _______ _______ _____ _____    ______ ____
ROOT
ATOM      1  C   UNL     1      -1.753  11.080  17.287  0.00  0.00    +0.000 C 
ATOM      2  C   UNL     1      -3.048  11.318  17.243  0.00  0.00    +0.000 C 
ATOM      3  C   UNL     1      -3.744  11.863  18.279  0.00  0.00    +0.000 C 
ATOM      4  C   UNL     1      -5.268  12.165  17.883  0.00  0.00    +0.000 C 
ATOM      5  C   UNL     1      -5.925  12.504  19.105  0.00  0.00    +0.000 A 
ATOM      6  C   UNL     1      -6.245  13.943  19.391  0.00  0.00    +0.000 A 
ATOM      7  C   UNL     1      -6.680  14.199  20.742  0.00  0.00    +0.000 A 
ATOM      8  C   UNL     1      -7.170  13.087  21.401  0.00  0.00    +0.000 A 
ATOM      9  C   UNL     1      -6.491  11.517  20.438  0.00  0.00    +0.000 A 
ATOM     10  C   UNL     1      -5.573  10.930  18.778  0.00  0.00    +0.000 A 
ATOM     11  C   UNL     1      -4.367  10.777  16.831  0.00  0.00    +0.000 C 
ATOM     12  O   UNL     1      -3.739  10.924  15.518  0.00  0.00    +0.000 OA
ENDROOT
BRANCH   1  17
ATOM     13  C   UNL     1      -0.280  10.020  20.562  0.00  0.00    +0.000 A 
ATOM     14  C   UNL     1       0.287  11.184  20.989  0.00  0.00    +0.000 A 
ATOM     15  C   UNL     1       0.035  12.355  20.274  0.00  0.00    +0.000 A 
ATOM     16  C   UNL     1      -0.489  12.368  18.993  0.00  0.00    +0.000 A 
ATOM     17  C   UNL     1      -1.013  11.189  18.550  0.00  0.00    +0.000 A 
ATOM     18  C   UNL     1      -0.843  10.067  19.343  0.00  0.00    +0.000 A 
BRANCH  13  20
ATOM     19  C   UNL     1      -0.338   9.171  22.819  0.00  0.00    +0.000 C 
ATOM     20  O   UNL     1      -0.405   8.959  21.409  0.00  0.00    +0.000 OA
ENDBRANCH  13  20
BRANCH  16  21
ATOM     21  O   UNL     1      -0.440  13.525  18.257  0.00  0.00    +0.000 OA
ATOM     22  C   UNL     1       0.507  14.531  18.616  0.00  0.00    +0.000 C 
ENDBRANCH  16  21
ENDBRANCH   1  17
BRANCH   7  23
ATOM     23  O   UNL     1      -6.497  15.489  21.167  0.00  0.00    +0.000 OA
ATOM     24  C   UNL     1      -5.161  15.979  21.287  0.00  0.00    +0.000 C 
ENDBRANCH   7  23
BRANCH   8  25
ATOM     25  O   UNL     1      -7.917  13.600  22.624  0.00  0.00    +0.000 OA
ATOM     26  C   UNL     1      -7.502  13.257  23.918  0.00  0.00    +0.000 C 
ENDBRANCH   8  25
TORSDOF 5
ENDMDL
MODEL 9
REMARK VINA RESULT:      -6.2      8.334     11.741
REMARK  Name = 
REMARK  9 active torsions:
REMARK  status: ('A' for Active; 'I' for Inactive)
REMARK    1  A    between atoms: C_1  and  O_2
REMARK    2  A    between atoms: O_2  and  C_3
REMARK    3  A    between atoms: C_6  and  O_7
REMARK    4  A    between atoms: O_7  and  C_8
REMARK    5  A    between atoms: C_9  and  C_10
REMARK    6  A    between atoms: C_16  and  O_17
REMARK    7  A    between atoms: O_17  and  C_18
REMARK    8  A    between atoms: C_19  and  O_20
REMARK    9  A    between atoms: O_20  and  C_21
REMARK                            x       y       z     vdW  Elec       q    Type
REMARK                         _______ _______ _______ _____ _____    ______ ____
ROOT
ATOM      1  C   UNL     1      -4.206  11.057  17.302  0.00  0.00    +0.000 C 
ATOM      2  C   UNL     1      -3.186  11.247  18.112  0.00  0.00    +0.000 C 
ATOM      3  C   UNL     1      -3.284  11.914  19.295  0.00  0.00    +0.000 C 
ATOM      4  C   UNL     1      -1.916  11.862  20.129  0.00  0.00    +0.000 C 
ATOM      5  C   UNL     1      -2.085  12.781  21.208  0.00  0.00    +0.000 A 
ATOM      6  C   UNL     1      -2.355  12.251  22.588  0.00  0.00    +0.000 A 
ATOM      7  C   UNL     1      -2.749  13.256  23.544  0.00  0.00    +0.000 A 
ATOM      8  C   UNL     1      -2.380  14.543  23.202  0.00  0.00    +0.000 A 
ATOM      9  C   UNL     1      -2.028  14.531  21.270  0.00  0.00    +0.000 A 
ATOM     10  C   UNL     1      -1.785  13.349  19.693  0.00  0.00    +0.000 A 
ATOM     11  C   UNL     1      -1.750  11.614  18.191  0.00  0.00    +0.000 C 
ATOM     12  O   UNL     1      -1.642  10.351  17.461  0.00  0.00    +0.000 OA
ENDROOT
BRANCH   1  17
ATOM     13  C   UNL     1      -6.796  13.749  17.039  0.00  0.00    +0.000 A 
ATOM     14  C   UNL     1      -7.778  13.253  17.845  0.00  0.00    +0.000 A 
ATOM     15  C   UNL     1      -7.512  12.115  18.606  0.00  0.00    +0.000 A 
ATOM     16  C   UNL     1      -6.438  11.273  18.367  0.00  0.00    +0.000 A 
ATOM     17  C   UNL     1      -5.479  11.752  17.523  0.00  0.00    +0.000 A 
ATOM     18  C   UNL     1      -5.730  12.948  16.872  0.00  0.00    +0.000 A 
BRANCH  13  20
ATOM     19  C   UNL     1      -6.816  16.107  17.543  0.00  0.00    +0.000 C 
ATOM     20  O   UNL     1      -6.846  15.038  16.600  0.00  0.00    +0.000 OA
ENDBRANCH  13  20
BRANCH  16  21
ATOM     21  O   UNL     1      -6.406  10.038  18.964  0.00  0.00    +0.000 OA
ATOM     22  C   UNL     1      -7.273   9.783  20.068  0.00  0.00    +0.000 C 
ENDBRANCH  16  21
ENDBRANCH   1  17
BRANCH   7  23
ATOM     23  O   UNL     1      -3.460  12.778  24.614  0.00  0.00    +0.000 OA
ATOM     24  C   UNL     1      -4.866  12.582  24.458  0.00  0.00    +0.000 C 
ENDBRANCH   7  23
BRANCH   8  25
ATOM     25  O   UNL     1      -2.523  15.386  24.460  0.00  0.00    +0.000 OA
ATOM     26  C   UNL     1      -1.450  15.543  25.349  0.00  0.00    +0.000 C 
ENDBRANCH   8  25
TORSDOF 5
ENDMDL
