MODEL 1
REMARK VINA RESULT:      -8.1      0.000      0.000
REMARK  Name = 
REMARK  5 active torsions:
REMARK  status: ('A' for Active; 'I' for Inactive)
REMARK    1  A    between atoms: C_1  and  S_2
REMARK    2  A    between atoms: S_2  and  C_3
REMARK    3  A    between atoms: N_6  and  C_7
REMARK    4  A    between atoms: N_6  and  N_8
REMARK    5  A    between atoms: C_9  and  C_11
REMARK                            x       y       z     vdW  Elec       q    Type
REMARK                         _______ _______ _______ _____ _____    ______ ____
ROOT
ATOM      1  C   UNL     1       5.481   4.665  18.257  0.00  0.00    +0.000 A 
ATOM      2  N   UNL     1       4.800   5.795  18.063  0.00  0.00    +0.000 NA
ATOM      3  C   UNL     1       3.602   5.952  18.668  0.00  0.00    +0.000 A 
ATOM      4  N   UNL     1       2.883   7.142  18.354  0.00  0.00    +0.000 N 
ATOM      5  C   UNL     1       3.559   8.091  17.452  0.00  0.00    +0.000 C 
ATOM      6  C   UNL     1       3.081   4.925  19.500  0.00  0.00    +0.000 A 
ATOM      7  C   UNL     1       1.809   4.879  20.140  0.00  0.00    +0.000 A 
ATOM      8  C   UNL     1       1.436   3.808  20.957  0.00  0.00    +0.000 A 
ATOM      9  C   UNL     1       2.306   2.744  21.131  0.00  0.00    +0.000 A 
ATOM     10  C   UNL     1       3.531   2.753  20.473  0.00  0.00    +0.000 A 
ATOM     11  C   UNL     1       3.925   3.811  19.666  0.00  0.00    +0.000 A 
ATOM     12  N   UNL     1       5.101   3.677  19.062  0.00  0.00    +0.000 NA
ENDROOT
BRANCH   4  13
ATOM     13  N   UNL     1       2.166   7.784  19.398  0.00  0.00    +0.000 N 
ATOM     14  C   UNL     1       1.318   8.835  19.065  0.00  0.00    +0.000 C 
ATOM     15  O   UNL     1       1.144   9.260  17.926  0.00  0.00    +0.000 OA
ATOM     16  H   UNL     1       2.276   7.408  20.332  0.00  0.00    +0.000 HD
BRANCH  14  17
ATOM     17  C   UNL     1       0.558   9.470  20.177  0.00  0.00    +0.000 A 
ATOM     18  C   UNL     1       0.585   8.988  21.492  0.00  0.00    +0.000 A 
ATOM     19  C   UNL     1      -0.141   9.649  22.491  0.00  0.00    +0.000 A 
ATOM     20  C   UNL     1      -0.886  10.790  22.179  0.00  0.00    +0.000 A 
ATOM     21 CL   UNL     1      -1.778  11.592  23.413  0.00  0.00    +0.000 Cl
ATOM     22  C   UNL     1      -0.903  11.285  20.880  0.00  0.00    +0.000 A 
ATOM     23  C   UNL     1      -0.177  10.631  19.883  0.00  0.00    +0.000 A 
ENDBRANCH  14  17
ENDBRANCH   4  13
BRANCH   1  25
ATOM     24  C   UNL     1       6.297   4.098  15.711  0.00  0.00    +0.000 C 
ATOM     25  S   UNL     1       6.989   4.473  17.342  0.00  0.00    +0.000 S 
ENDBRANCH   1  25
TORSDOF 3
ENDMDL
MODEL 2
REMARK VINA RESULT:      -7.9      0.564      1.137
REMARK  Name = 
REMARK  5 active torsions:
REMARK  status: ('A' for Active; 'I' for Inactive)
REMARK    1  A    between atoms: C_1  and  S_2
REMARK    2  A    between atoms: S_2  and  C_3
REMARK    3  A    between atoms: N_6  and  C_7
REMARK    4  A    between atoms: N_6  and  N_8
REMARK    5  A    between atoms: C_9  and  C_11
REMARK                            x       y       z     vdW  Elec       q    Type
REMARK                         _______ _______ _______ _____ _____    ______ ____
ROOT
ATOM      1  C   UNL     1       5.462   4.638  18.330  0.00  0.00    +0.000 A 
ATOM      2  N   UNL     1       4.803   5.773  18.095  0.00  0.00    +0.000 NA
ATOM      3  C   UNL     1       3.585   5.954  18.652  0.00  0.00    +0.000 A 
ATOM      4  N   UNL     1       2.893   7.147  18.294  0.00  0.00    +0.000 N 
ATOM      5  C   UNL     1       3.614   8.074  17.405  0.00  0.00    +0.000 C 
ATOM      6  C   UNL     1       3.020   4.944  19.478  0.00  0.00    +0.000 A 
ATOM      7  C   UNL     1       1.725   4.923  20.071  0.00  0.00    +0.000 A 
ATOM      8  C   UNL     1       1.308   3.869  20.889  0.00  0.00    +0.000 A 
ATOM      9  C   UNL     1       2.158   2.797  21.110  0.00  0.00    +0.000 A 
ATOM     10  C   UNL     1       3.406   2.782  20.499  0.00  0.00    +0.000 A 
ATOM     11  C   UNL     1       3.844   3.824  19.692  0.00  0.00    +0.000 A 
ATOM     12  N   UNL     1       5.039   3.667  19.134  0.00  0.00    +0.000 NA
ENDROOT
BRANCH   4  13
ATOM     13  N   UNL     1       2.145   7.812  19.302  0.00  0.00    +0.000 N 
ATOM     14  C   UNL     1       1.397   8.927  18.939  0.00  0.00    +0.000 C 
ATOM     15  O   UNL     1       1.337   9.390  17.802  0.00  0.00    +0.000 OA
ATOM     16  H   UNL     1       2.160   7.408  20.231  0.00  0.00    +0.000 HD
BRANCH  14  17
ATOM     17  C   UNL     1       0.601   9.588  20.010  0.00  0.00    +0.000 A 
ATOM     18  C   UNL     1      -0.185  10.724  19.785  0.00  0.00    +0.000 A 
ATOM     19  C   UNL     1      -0.922  11.281  20.838  0.00  0.00    +0.000 A 
ATOM     20  C   UNL     1      -0.877  10.702  22.109  0.00  0.00    +0.000 A 
ATOM     21 CL   UNL     1      -1.783  11.397  23.397  0.00  0.00    +0.000 Cl
ATOM     22  C   UNL     1      -0.114   9.563  22.337  0.00  0.00    +0.000 A 
ATOM     23  C   UNL     1       0.619   9.003  21.288  0.00  0.00    +0.000 A 
ENDBRANCH  14  17
ENDBRANCH   4  13
BRANCH   1  25
ATOM     24  C   UNL     1       7.367   6.143  17.077  0.00  0.00    +0.000 C 
ATOM     25  S   UNL     1       7.000   4.415  17.475  0.00  0.00    +0.000 S 
ENDBRANCH   1  25
TORSDOF 3
ENDMDL
MODEL 3
REMARK VINA RESULT:      -7.5      1.454      1.499
REMARK  Name = 
REMARK  5 active torsions:
REMARK  status: ('A' for Active; 'I' for Inactive)
REMARK    1  A    between atoms: C_1  and  S_2
REMARK    2  A    between atoms: S_2  and  C_3
REMARK    3  A    between atoms: N_6  and  C_7
REMARK    4  A    between atoms: N_6  and  N_8
REMARK    5  A    between atoms: C_9  and  C_11
REMARK                            x       y       z     vdW  Elec       q    Type
REMARK                         _______ _______ _______ _____ _____    ______ ____
ROOT
ATOM      1  C   UNL     1       5.428   4.216  16.712  0.00  0.00    +0.000 A 
ATOM      2  N   UNL     1       5.008   5.473  16.858  0.00  0.00    +0.000 NA
ATOM      3  C   UNL     1       3.801   5.702  17.421  0.00  0.00    +0.000 A 
ATOM      4  N   UNL     1       3.370   7.059  17.469  0.00  0.00    +0.000 N 
ATOM      5  C   UNL     1       4.319   8.062  16.954  0.00  0.00    +0.000 C 
ATOM      6  C   UNL     1       2.996   4.614  17.852  0.00  0.00    +0.000 A 
ATOM      7  C   UNL     1       1.674   4.659  18.380  0.00  0.00    +0.000 A 
ATOM      8  C   UNL     1       1.006   3.502  18.792  0.00  0.00    +0.000 A 
ATOM      9  C   UNL     1       1.625   2.271  18.658  0.00  0.00    +0.000 A 
ATOM     10  C   UNL     1       2.897   2.206  18.099  0.00  0.00    +0.000 A 
ATOM     11  C   UNL     1       3.582   3.344  17.695  0.00  0.00    +0.000 A 
ATOM     12  N   UNL     1       4.771   3.142  17.138  0.00  0.00    +0.000 NA
ENDROOT
BRANCH   4  13
ATOM     13  N   UNL     1       2.674   7.497  18.628  0.00  0.00    +0.000 N 
ATOM     14  C   UNL     1       1.853   8.615  18.519  0.00  0.00    +0.000 C 
ATOM     15  O   UNL     1       1.686   9.264  17.490  0.00  0.00    +0.000 OA
ATOM     16  H   UNL     1       2.778   6.940  19.467  0.00  0.00    +0.000 HD
BRANCH  14  17
ATOM     17  C   UNL     1       1.115   9.035  19.743  0.00  0.00    +0.000 A 
ATOM     18  C   UNL     1       1.171   8.323  20.947  0.00  0.00    +0.000 A 
ATOM     19  C   UNL     1       0.464   8.789  22.064  0.00  0.00    +0.000 A 
ATOM     20  C   UNL     1      -0.291   9.962  21.978  0.00  0.00    +0.000 A 
ATOM     21 CL   UNL     1      -1.159  10.522  23.354  0.00  0.00    +0.000 Cl
ATOM     22  C   UNL     1      -0.336  10.683  20.791  0.00  0.00    +0.000 A 
ATOM     23  C   UNL     1       0.371  10.225  19.677  0.00  0.00    +0.000 A 
ENDBRANCH  14  17
ENDBRANCH   4  13
BRANCH   1  25
ATOM     24  C   UNL     1       6.377   4.105  14.152  0.00  0.00    +0.000 C 
ATOM     25  S   UNL     1       6.966   3.981  15.860  0.00  0.00    +0.000 S 
ENDBRANCH   1  25
TORSDOF 3
ENDMDL
MODEL 4
REMARK VINA RESULT:      -7.2      1.128      1.506
REMARK  Name = 
REMARK  5 active torsions:
REMARK  status: ('A' for Active; 'I' for Inactive)
REMARK    1  A    between atoms: C_1  and  S_2
REMARK    2  A    between atoms: S_2  and  C_3
REMARK    3  A    between atoms: N_6  and  C_7
REMARK    4  A    between atoms: N_6  and  N_8
REMARK    5  A    between atoms: C_9  and  C_11
REMARK                            x       y       z     vdW  Elec       q    Type
REMARK                         _______ _______ _______ _____ _____    ______ ____
ROOT
ATOM      1  C   UNL     1       5.420   4.319  17.119  0.00  0.00    +0.000 A 
ATOM      2  N   UNL     1       4.936   5.562  17.139  0.00  0.00    +0.000 NA
ATOM      3  C   UNL     1       3.724   5.787  17.692  0.00  0.00    +0.000 A 
ATOM      4  N   UNL     1       3.223   7.118  17.605  0.00  0.00    +0.000 N 
ATOM      5  C   UNL     1       4.114   8.108  16.974  0.00  0.00    +0.000 C 
ATOM      6  C   UNL     1       2.980   4.710  18.246  0.00  0.00    +0.000 A 
ATOM      7  C   UNL     1       1.662   4.744  18.785  0.00  0.00    +0.000 A 
ATOM      8  C   UNL     1       1.059   3.604  19.324  0.00  0.00    +0.000 A 
ATOM      9  C   UNL     1       1.741   2.398  19.311  0.00  0.00    +0.000 A 
ATOM     10  C   UNL     1       3.009   2.341  18.744  0.00  0.00    +0.000 A 
ATOM     11  C   UNL     1       3.630   3.463  18.213  0.00  0.00    +0.000 A 
ATOM     12  N   UNL     1       4.823   3.264  17.664  0.00  0.00    +0.000 NA
ENDROOT
BRANCH   4  13
ATOM     13  N   UNL     1       2.516   7.640  18.721  0.00  0.00    +0.000 N 
ATOM     14  C   UNL     1       1.743   8.781  18.536  0.00  0.00    +0.000 C 
ATOM     15  O   UNL     1       1.629   9.385  17.472  0.00  0.00    +0.000 OA
ATOM     16  H   UNL     1       2.575   7.120  19.588  0.00  0.00    +0.000 HD
BRANCH  14  17
ATOM     17  C   UNL     1       0.991   9.289  19.717  0.00  0.00    +0.000 A 
ATOM     18  C   UNL     1       0.163  10.417  19.665  0.00  0.00    +0.000 A 
ATOM     19  C   UNL     1      -0.529  10.825  20.812  0.00  0.00    +0.000 A 
ATOM     20  C   UNL     1      -0.398  10.108  22.005  0.00  0.00    +0.000 A 
ATOM     21 CL   UNL     1      -1.248  10.621  23.409  0.00  0.00    +0.000 Cl
ATOM     22  C   UNL     1       0.409   8.977  22.059  0.00  0.00    +0.000 A 
ATOM     23  C   UNL     1       1.097   8.564  20.916  0.00  0.00    +0.000 A 
ENDBRANCH  14  17
ENDBRANCH   4  13
BRANCH   1  25
ATOM     24  C   UNL     1       6.370   4.131  14.564  0.00  0.00    +0.000 C 
ATOM     25  S   UNL     1       6.961   4.074  16.275  0.00  0.00    +0.000 S 
ENDBRANCH   1  25
TORSDOF 3
ENDMDL
MODEL 5
REMARK VINA RESULT:      -7.1      4.500      8.365
REMARK  Name = 
REMARK  5 active torsions:
REMARK  status: ('A' for Active; 'I' for Inactive)
REMARK    1  A    between atoms: C_1  and  S_2
REMARK    2  A    between atoms: S_2  and  C_3
REMARK    3  A    between atoms: N_6  and  C_7
REMARK    4  A    between atoms: N_6  and  N_8
REMARK    5  A    between atoms: C_9  and  C_11
REMARK                            x       y       z     vdW  Elec       q    Type
REMARK                         _______ _______ _______ _____ _____    ______ ____
ROOT
ATOM      1  C   UNL     1      -1.003  12.305  21.471  0.00  0.00    +0.000 A 
ATOM      2  N   UNL     1      -0.209  11.252  21.669  0.00  0.00    +0.000 NA
ATOM      3  C   UNL     1      -0.074  10.336  20.685  0.00  0.00    +0.000 A 
ATOM      4  N   UNL     1       0.716   9.190  20.988  0.00  0.00    +0.000 N 
ATOM      5  C   UNL     1       1.343   9.166  22.321  0.00  0.00    +0.000 C 
ATOM      6  C   UNL     1      -0.768  10.500  19.456  0.00  0.00    +0.000 A 
ATOM      7  C   UNL     1      -0.815   9.602  18.351  0.00  0.00    +0.000 A 
ATOM      8  C   UNL     1      -1.523   9.907  17.185  0.00  0.00    +0.000 A 
ATOM      9  C   UNL     1      -2.226  11.098  17.103  0.00  0.00    +0.000 A 
ATOM     10  C   UNL     1      -2.228  11.962  18.192  0.00  0.00    +0.000 A 
ATOM     11  C   UNL     1      -1.523  11.683  19.355  0.00  0.00    +0.000 A 
ATOM     12  N   UNL     1      -1.642  12.571  20.336  0.00  0.00    +0.000 NA
ENDROOT
BRANCH   4  13
ATOM     13  N   UNL     1       1.559   8.671  19.969  0.00  0.00    +0.000 N 
ATOM     14  C   UNL     1       1.862   7.314  19.992  0.00  0.00    +0.000 C 
ATOM     15  O   UNL     1       1.459   6.521  20.839  0.00  0.00    +0.000 OA
ATOM     16  H   UNL     1       1.858   9.315  19.246  0.00  0.00    +0.000 HD
BRANCH  14  17
ATOM     17  C   UNL     1       2.725   6.794  18.896  0.00  0.00    +0.000 A 
ATOM     18  C   UNL     1       3.315   7.622  17.932  0.00  0.00    +0.000 A 
ATOM     19  C   UNL     1       4.131   7.064  16.940  0.00  0.00    +0.000 A 
ATOM     20  C   UNL     1       4.361   5.685  16.913  0.00  0.00    +0.000 A 
ATOM     21 CL   UNL     1       5.361   5.009  15.688  0.00  0.00    +0.000 Cl
ATOM     22  C   UNL     1       3.794   4.859  17.877  0.00  0.00    +0.000 A 
ATOM     23  C   UNL     1       2.984   5.413  18.870  0.00  0.00    +0.000 A 
ENDBRANCH  14  17
ENDBRANCH   4  13
BRANCH   1  25
ATOM     24  C   UNL     1      -0.012  14.674  22.407  0.00  0.00    +0.000 C 
ATOM     25  S   UNL     1      -1.229  13.406  22.844  0.00  0.00    +0.000 S 
ENDBRANCH   1  25
TORSDOF 3
ENDMDL
MODEL 6
REMARK VINA RESULT:      -7.1      4.842      8.162
REMARK  Name = 
REMARK  5 active torsions:
REMARK  status: ('A' for Active; 'I' for Inactive)
REMARK    1  A    between atoms: C_1  and  S_2
REMARK    2  A    between atoms: S_2  and  C_3
REMARK    3  A    between atoms: N_6  and  C_7
REMARK    4  A    between atoms: N_6  and  N_8
REMARK    5  A    between atoms: C_9  and  C_11
REMARK                            x       y       z     vdW  Elec       q    Type
REMARK                         _______ _______ _______ _____ _____    ______ ____
ROOT
ATOM      1  C   UNL     1       2.482   6.805  18.969  0.00  0.00    +0.000 A 
ATOM      2  N   UNL     1       3.718   6.837  18.469  0.00  0.00    +0.000 NA
ATOM      3  C   UNL     1       4.275   5.691  18.019  0.00  0.00    +0.000 A 
ATOM      4  N   UNL     1       5.628   5.772  17.579  0.00  0.00    +0.000 N 
ATOM      5  C   UNL     1       6.242   7.111  17.610  0.00  0.00    +0.000 C 
ATOM      6  C   UNL     1       3.548   4.471  18.077  0.00  0.00    +0.000 A 
ATOM      7  C   UNL     1       4.001   3.165  17.735  0.00  0.00    +0.000 A 
ATOM      8  C   UNL     1       3.161   2.050  17.817  0.00  0.00    +0.000 A 
ATOM      9  C   UNL     1       1.862   2.205  18.272  0.00  0.00    +0.000 A 
ATOM     10  C   UNL     1       1.421   3.466  18.655  0.00  0.00    +0.000 A 
ATOM     11  C   UNL     1       2.235   4.587  18.571  0.00  0.00    +0.000 A 
ATOM     12  N   UNL     1       1.707   5.725  19.009  0.00  0.00    +0.000 NA
ENDROOT
BRANCH   4  13
ATOM     13  N   UNL     1       6.005   5.014  16.439  0.00  0.00    +0.000 N 
ATOM     14  C   UNL     1       5.722   5.533  15.180  0.00  0.00    +0.000 C 
ATOM     15  O   UNL     1       5.158   6.605  14.975  0.00  0.00    +0.000 OA
ATOM     16  H   UNL     1       6.507   4.150  16.604  0.00  0.00    +0.000 HD
BRANCH  14  17
ATOM     17  C   UNL     1       6.154   4.730  14.003  0.00  0.00    +0.000 A 
ATOM     18  C   UNL     1       7.362   4.953  13.331  0.00  0.00    +0.000 A 
ATOM     19  C   UNL     1       7.712   4.144  12.241  0.00  0.00    +0.000 A 
ATOM     20  C   UNL     1       6.860   3.115  11.828  0.00  0.00    +0.000 A 
ATOM     21 CL   UNL     1       7.297   2.131  10.486  0.00  0.00    +0.000 Cl
ATOM     22  C   UNL     1       5.668   2.877  12.502  0.00  0.00    +0.000 A 
ATOM     23  C   UNL     1       5.318   3.678  13.591  0.00  0.00    +0.000 A 
ENDBRANCH  14  17
ENDBRANCH   4  13
BRANCH   1  25
ATOM     24  C   UNL     1       1.639   9.261  18.119  0.00  0.00    +0.000 C 
ATOM     25  S   UNL     1       1.855   8.318  19.649  0.00  0.00    +0.000 S 
ENDBRANCH   1  25
TORSDOF 3
ENDMDL
MODEL 7
REMARK VINA RESULT:      -7.1      4.542      6.636
REMARK  Name = 
REMARK  5 active torsions:
REMARK  status: ('A' for Active; 'I' for Inactive)
REMARK    1  A    between atoms: C_1  and  S_2
REMARK    2  A    between atoms: S_2  and  C_3
REMARK    3  A    between atoms: N_6  and  C_7
REMARK    4  A    between atoms: N_6  and  N_8
REMARK    5  A    between atoms: C_9  and  C_11
REMARK                            x       y       z     vdW  Elec       q    Type
REMARK                         _______ _______ _______ _____ _____    ______ ____
ROOT
ATOM      1  C   UNL     1       4.358   3.971  19.108  0.00  0.00    +0.000 A 
ATOM      2  N   UNL     1       5.382   4.413  18.377  0.00  0.00    +0.000 NA
ATOM      3  C   UNL     1       5.325   5.655  17.848  0.00  0.00    +0.000 A 
ATOM      4  N   UNL     1       6.408   6.038  17.005  0.00  0.00    +0.000 N 
ATOM      5  C   UNL     1       7.495   5.055  16.858  0.00  0.00    +0.000 C 
ATOM      6  C   UNL     1       4.187   6.476  18.074  0.00  0.00    +0.000 A 
ATOM      7  C   UNL     1       3.915   7.764  17.529  0.00  0.00    +0.000 A 
ATOM      8  C   UNL     1       2.757   8.473  17.861  0.00  0.00    +0.000 A 
ATOM      9  C   UNL     1       1.829   7.905  18.717  0.00  0.00    +0.000 A 
ATOM     10  C   UNL     1       2.058   6.629  19.218  0.00  0.00    +0.000 A 
ATOM     11  C   UNL     1       3.205   5.912  18.910  0.00  0.00    +0.000 A 
ATOM     12  N   UNL     1       3.283   4.687  19.420  0.00  0.00    +0.000 NA
ENDROOT
BRANCH   4  13
ATOM     13  N   UNL     1       6.877   7.376  17.088  0.00  0.00    +0.000 N 
ATOM     14  C   UNL     1       7.764   7.702  18.108  0.00  0.00    +0.000 C 
ATOM     15  O   UNL     1       8.173   6.914  18.958  0.00  0.00    +0.000 OA
ATOM     16  H   UNL     1       6.574   8.017  16.364  0.00  0.00    +0.000 HD
BRANCH  14  17
ATOM     17  C   UNL     1       8.260   9.105  18.152  0.00  0.00    +0.000 A 
ATOM     18  C   UNL     1       7.751  10.119  17.332  0.00  0.00    +0.000 A 
ATOM     19  C   UNL     1       8.255  11.422  17.443  0.00  0.00    +0.000 A 
ATOM     20  C   UNL     1       9.258  11.711  18.372  0.00  0.00    +0.000 A 
ATOM     21 CL   UNL     1       9.873  13.313  18.496  0.00  0.00    +0.000 Cl
ATOM     22  C   UNL     1       9.756  10.713  19.202  0.00  0.00    +0.000 A 
ATOM     23  C   UNL     1       9.253   9.414  19.098  0.00  0.00    +0.000 A 
ENDBRANCH  14  17
ENDBRANCH   4  13
BRANCH   1  25
ATOM     24  C   UNL     1       3.387   1.508  18.430  0.00  0.00    +0.000 C 
ATOM     25  S   UNL     1       4.446   2.292  19.673  0.00  0.00    +0.000 S 
ENDBRANCH   1  25
TORSDOF 3
ENDMDL
MODEL 8
REMARK VINA RESULT:      -7.0      4.543      8.422
REMARK  Name = 
REMARK  5 active torsions:
REMARK  status: ('A' for Active; 'I' for Inactive)
REMARK    1  A    between atoms: C_1  and  S_2
REMARK    2  A    between atoms: S_2  and  C_3
REMARK    3  A    between atoms: N_6  and  C_7
REMARK    4  A    between atoms: N_6  and  N_8
REMARK    5  A    between atoms: C_9  and  C_11
REMARK                            x       y       z     vdW  Elec       q    Type
REMARK                         _______ _______ _______ _____ _____    ______ ____
ROOT
ATOM      1  C   UNL     1      -1.265  12.343  21.749  0.00  0.00    +0.000 A 
ATOM      2  N   UNL     1      -0.448  11.313  21.976  0.00  0.00    +0.000 NA
ATOM      3  C   UNL     1      -0.224  10.421  20.985  0.00  0.00    +0.000 A 
ATOM      4  N   UNL     1       0.586   9.297  21.314  0.00  0.00    +0.000 N 
ATOM      5  C   UNL     1       1.136   9.268  22.681  0.00  0.00    +0.000 C 
ATOM      6  C   UNL     1      -0.851  10.586  19.720  0.00  0.00    +0.000 A 
ATOM      7  C   UNL     1      -0.803   9.708  18.600  0.00  0.00    +0.000 A 
ATOM      8  C   UNL     1      -1.452  10.012  17.399  0.00  0.00    +0.000 A 
ATOM      9  C   UNL     1      -2.189  11.180  17.297  0.00  0.00    +0.000 A 
ATOM     10  C   UNL     1      -2.285  12.022  18.399  0.00  0.00    +0.000 A 
ATOM     11  C   UNL     1      -1.639  11.745  19.596  0.00  0.00    +0.000 A 
ATOM     12  N   UNL     1      -1.846  12.609  20.584  0.00  0.00    +0.000 NA
ENDROOT
BRANCH   4  13
ATOM     13  N   UNL     1       1.504   8.827  20.337  0.00  0.00    +0.000 N 
ATOM     14  C   UNL     1       1.756   7.461  20.272  0.00  0.00    +0.000 C 
ATOM     15  O   UNL     1       1.245   6.619  21.008  0.00  0.00    +0.000 OA
ATOM     16  H   UNL     1       1.895   9.514  19.703  0.00  0.00    +0.000 HD
BRANCH  14  17
ATOM     17  C   UNL     1       2.702   6.995  19.221  0.00  0.00    +0.000 A 
ATOM     18  C   UNL     1       3.427   5.801  19.323  0.00  0.00    +0.000 A 
ATOM     19  C   UNL     1       4.285   5.417  18.284  0.00  0.00    +0.000 A 
ATOM     20  C   UNL     1       4.413   6.219  17.146  0.00  0.00    +0.000 A 
ATOM     21 CL   UNL     1       5.474   5.741  15.879  0.00  0.00    +0.000 Cl
ATOM     22  C   UNL     1       3.683   7.396  17.030  0.00  0.00    +0.000 A 
ATOM     23  C   UNL     1       2.823   7.780  18.061  0.00  0.00    +0.000 A 
ENDBRANCH  14  17
ENDBRANCH   4  13
BRANCH   1  25
ATOM     24  C   UNL     1      -2.996  14.343  22.434  0.00  0.00    +0.000 C 
ATOM     25  S   UNL     1      -1.608  13.408  23.126  0.00  0.00    +0.000 S 
ENDBRANCH   1  25
TORSDOF 3
ENDMDL
MODEL 9
REMARK VINA RESULT:      -6.8      4.363      7.601
REMARK  Name = 
REMARK  5 active torsions:
REMARK  status: ('A' for Active; 'I' for Inactive)
REMARK    1  A    between atoms: C_1  and  S_2
REMARK    2  A    between atoms: S_2  and  C_3
REMARK    3  A    between atoms: N_6  and  C_7
REMARK    4  A    between atoms: N_6  and  N_8
REMARK    5  A    between atoms: C_9  and  C_11
REMARK                            x       y       z     vdW  Elec       q    Type
REMARK                         _______ _______ _______ _____ _____    ______ ____
ROOT
ATOM      1  C   UNL     1       1.557   6.751  20.550  0.00  0.00    +0.000 A 
ATOM      2  N   UNL     1       2.262   7.216  19.518  0.00  0.00    +0.000 NA
ATOM      3  C   UNL     1       3.179   6.414  18.933  0.00  0.00    +0.000 A 
ATOM      4  N   UNL     1       3.961   6.996  17.894  0.00  0.00    +0.000 N 
ATOM      5  C   UNL     1       3.636   8.388  17.537  0.00  0.00    +0.000 C 
ATOM      6  C   UNL     1       3.383   5.093  19.414  0.00  0.00    +0.000 A 
ATOM      7  C   UNL     1       4.356   4.146  18.984  0.00  0.00    +0.000 A 
ATOM      8  C   UNL     1       4.426   2.862  19.532  0.00  0.00    +0.000 A 
ATOM      9  C   UNL     1       3.550   2.502  20.543  0.00  0.00    +0.000 A 
ATOM     10  C   UNL     1       2.627   3.432  21.006  0.00  0.00    +0.000 A 
ATOM     11  C   UNL     1       2.533   4.708  20.468  0.00  0.00    +0.000 A 
ATOM     12  N   UNL     1       1.638   5.513  21.028  0.00  0.00    +0.000 NA
ENDROOT
BRANCH   4  13
ATOM     13  N   UNL     1       4.274   6.192  16.765  0.00  0.00    +0.000 N 
ATOM     14  C   UNL     1       5.585   6.194  16.299  0.00  0.00    +0.000 C 
ATOM     15  O   UNL     1       6.501   6.850  16.788  0.00  0.00    +0.000 OA
ATOM     16  H   UNL     1       3.530   5.619  16.385  0.00  0.00    +0.000 HD
BRANCH  14  17
ATOM     17  C   UNL     1       5.890   5.321  15.132  0.00  0.00    +0.000 A 
ATOM     18  C   UNL     1       5.008   4.340  14.663  0.00  0.00    +0.000 A 
ATOM     19  C   UNL     1       5.355   3.568  13.546  0.00  0.00    +0.000 A 
ATOM     20  C   UNL     1       6.575   3.779  12.898  0.00  0.00    +0.000 A 
ATOM     21 CL   UNL     1       6.993   2.822  11.531  0.00  0.00    +0.000 Cl
ATOM     22  C   UNL     1       7.448   4.764  13.347  0.00  0.00    +0.000 A 
ATOM     23  C   UNL     1       7.103   5.538  14.456  0.00  0.00    +0.000 A 
ENDBRANCH  14  17
ENDBRANCH   4  13
BRANCH   1  25
ATOM     24  C   UNL     1       1.046   9.435  20.602  0.00  0.00    +0.000 C 
ATOM     25  S   UNL     1       0.456   7.892  21.345  0.00  0.00    +0.000 S 
ENDBRANCH   1  25
TORSDOF 3
ENDMDL
