MODEL 1
REMARK VINA RESULT:      -8.4      0.000      0.000
REMARK  Name = 
REMARK  5 active torsions:
REMARK  status: ('A' for Active; 'I' for Inactive)
REMARK    1  A    between atoms: C_2  and  C_3
REMARK    2  A    between atoms: C_3  and  N_4
REMARK    3  A    between atoms: N_4  and  C_5
REMARK    4  A    between atoms: N_15  and  N_16
REMARK    5  A    between atoms: C_17  and  C_18
REMARK                            x       y       z     vdW  Elec       q    Type
REMARK                         _______ _______ _______ _____ _____    ______ ____
ROOT
ATOM      1  C   UNL     1       6.821   4.552  17.827  0.00  0.00    +0.000 C 
ENDROOT
BRANCH   1   3
ATOM      2  O   UNL     1       7.991   5.383  19.776  0.00  0.00    +0.000 OA
ATOM      3  C   UNL     1       7.558   5.613  18.649  0.00  0.00    +0.000 C 
ATOM      4  N   UNL     1       7.691   6.829  17.985  0.00  0.00    +0.000 N 
ATOM      5  H   UNL     1       7.313   6.957  17.052  0.00  0.00    +0.000 HD
BRANCH   4   6
ATOM      6  N   UNL     1       8.394   7.841  18.576  0.00  0.00    +0.000 NA
ATOM      7  C   UNL     1       8.254   9.016  18.051  0.00  0.00    +0.000 C 
BRANCH   7   8
ATOM      8  C   UNL     1       8.965  10.136  18.601  0.00  0.00    +0.000 A 
ATOM      9  C   UNL     1       9.311  11.332  17.995  0.00  0.00    +0.000 A 
ATOM     10  C   UNL     1      10.009  12.114  18.944  0.00  0.00    +0.000 A 
ATOM     11  C   UNL     1      10.075  11.384  20.109  0.00  0.00    +0.000 A 
ATOM     12  N   UNL     1       9.436  10.191  19.893  0.00  0.00    +0.000 N 
ATOM     13  H   UNL     1       9.320   9.444  20.568  0.00  0.00    +0.000 HD
ENDBRANCH   7   8
ENDBRANCH   4   6
ENDBRANCH   1   3
BRANCH   1  14
ATOM     14  N   UNL     1       5.757   3.894  18.601  0.00  0.00    +0.000 N 
ATOM     15  H   UNL     1       6.089   3.484  19.467  0.00  0.00    +0.000 HD
BRANCH  14  16
ATOM     16  C   UNL     1       4.513   4.553  18.732  0.00  0.00    +0.000 A 
ATOM     17  C   UNL     1       4.220   5.673  17.932  0.00  0.00    +0.000 A 
ATOM     18  C   UNL     1       2.997   6.331  18.004  0.00  0.00    +0.000 A 
ATOM     19  C   UNL     1       2.014   5.867  18.866  0.00  0.00    +0.000 A 
ATOM     20  C   UNL     1       2.231   4.726  19.643  0.00  0.00    +0.000 A 
ATOM     21  C   UNL     1       1.199   4.269  20.479  0.00  0.00    +0.000 A 
ATOM     22  C   UNL     1       1.357   3.126  21.257  0.00  0.00    +0.000 A 
ATOM     23  C   UNL     1       2.550   2.422  21.200  0.00  0.00    +0.000 A 
ATOM     24  C   UNL     1       3.589   2.866  20.373  0.00  0.00    +0.000 A 
ATOM     25  C   UNL     1       3.474   4.034  19.576  0.00  0.00    +0.000 A 
ENDBRANCH  14  16
ENDBRANCH   1  14
TORSDOF 5
ENDMDL
MODEL 2
REMARK VINA RESULT:      -8.0      1.741      1.896
REMARK  Name = 
REMARK  5 active torsions:
REMARK  status: ('A' for Active; 'I' for Inactive)
REMARK    1  A    between atoms: C_2  and  C_3
REMARK    2  A    between atoms: C_3  and  N_4
REMARK    3  A    between atoms: N_4  and  C_5
REMARK    4  A    between atoms: N_15  and  N_16
REMARK    5  A    between atoms: C_17  and  C_18
REMARK                            x       y       z     vdW  Elec       q    Type
REMARK                         _______ _______ _______ _____ _____    ______ ____
ROOT
ATOM      1  C   UNL     1       6.636   6.501  16.519  0.00  0.00    +0.000 C 
ENDROOT
BRANCH   1   3
ATOM      2  O   UNL     1       7.882   6.357  18.589  0.00  0.00    +0.000 OA
ATOM      3  C   UNL     1       7.492   7.060  17.659  0.00  0.00    +0.000 C 
ATOM      4  N   UNL     1       7.781   8.414  17.517  0.00  0.00    +0.000 N 
ATOM      5  H   UNL     1       7.432   8.941  16.724  0.00  0.00    +0.000 HD
BRANCH   4   6
ATOM      6  N   UNL     1       8.600   9.022  18.427  0.00  0.00    +0.000 NA
ATOM      7  C   UNL     1       8.881  10.265  18.200  0.00  0.00    +0.000 C 
BRANCH   7   8
ATOM      8  C   UNL     1       9.744  10.980  19.099  0.00  0.00    +0.000 A 
ATOM      9  C   UNL     1      11.020  11.470  18.878  0.00  0.00    +0.000 A 
ATOM     10  C   UNL     1      11.457  12.097  20.068  0.00  0.00    +0.000 A 
ATOM     11  C   UNL     1      10.442  11.979  20.991  0.00  0.00    +0.000 A 
ATOM     12  N   UNL     1       9.408  11.306  20.394  0.00  0.00    +0.000 N 
ATOM     13  H   UNL     1       8.521  11.069  20.823  0.00  0.00    +0.000 HD
ENDBRANCH   7   8
ENDBRANCH   4   6
ENDBRANCH   1   3
BRANCH   1  14
ATOM     14  N   UNL     1       5.832   5.345  16.946  0.00  0.00    +0.000 N 
ATOM     15  H   UNL     1       6.354   4.681  17.506  0.00  0.00    +0.000 HD
BRANCH  14  16
ATOM     16  C   UNL     1       4.522   5.577  17.425  0.00  0.00    +0.000 A 
ATOM     17  C   UNL     1       4.033   6.892  17.537  0.00  0.00    +0.000 A 
ATOM     18  C   UNL     1       2.740   7.164  17.972  0.00  0.00    +0.000 A 
ATOM     19  C   UNL     1       1.883   6.117  18.283  0.00  0.00    +0.000 A 
ATOM     20  C   UNL     1       2.298   4.791  18.136  0.00  0.00    +0.000 A 
ATOM     21  C   UNL     1       1.390   3.760  18.431  0.00  0.00    +0.000 A 
ATOM     22  C   UNL     1       1.747   2.424  18.281  0.00  0.00    +0.000 A 
ATOM     23  C   UNL     1       3.018   2.104  17.827  0.00  0.00    +0.000 A 
ATOM     24  C   UNL     1       3.935   3.120  17.531  0.00  0.00    +0.000 A 
ATOM     25  C   UNL     1       3.616   4.494  17.685  0.00  0.00    +0.000 A 
ENDBRANCH  14  16
ENDBRANCH   1  14
TORSDOF 5
ENDMDL
MODEL 3
REMARK VINA RESULT:      -8.0      3.466      5.956
REMARK  Name = 
REMARK  5 active torsions:
REMARK  status: ('A' for Active; 'I' for Inactive)
REMARK    1  A    between atoms: C_2  and  C_3
REMARK    2  A    between atoms: C_3  and  N_4
REMARK    3  A    between atoms: N_4  and  C_5
REMARK    4  A    between atoms: N_15  and  N_16
REMARK    5  A    between atoms: C_17  and  C_18
REMARK                            x       y       z     vdW  Elec       q    Type
REMARK                         _______ _______ _______ _____ _____    ______ ____
ROOT
ATOM      1  C   UNL     1       7.173   6.141  18.149  0.00  0.00    +0.000 C 
ENDROOT
BRANCH   1   3
ATOM      2  O   UNL     1       7.941   4.253  16.844  0.00  0.00    +0.000 OA
ATOM      3  C   UNL     1       7.326   5.317  16.867  0.00  0.00    +0.000 C 
ATOM      4  N   UNL     1       6.694   5.889  15.767  0.00  0.00    +0.000 N 
ATOM      5  H   UNL     1       6.199   6.770  15.851  0.00  0.00    +0.000 HD
BRANCH   4   6
ATOM      6  N   UNL     1       6.689   5.219  14.575  0.00  0.00    +0.000 NA
ATOM      7  C   UNL     1       5.689   4.424  14.373  0.00  0.00    +0.000 C 
BRANCH   7   8
ATOM      8  C   UNL     1       5.608   3.670  13.152  0.00  0.00    +0.000 A 
ATOM      9  C   UNL     1       4.548   3.549  12.270  0.00  0.00    +0.000 A 
ATOM     10  C   UNL     1       4.953   2.694  11.219  0.00  0.00    +0.000 A 
ATOM     11  C   UNL     1       6.250   2.311  11.477  0.00  0.00    +0.000 A 
ATOM     12  N   UNL     1       6.639   2.911  12.646  0.00  0.00    +0.000 N 
ATOM     13  H   UNL     1       7.545   2.820  13.093  0.00  0.00    +0.000 HD
ENDBRANCH   7   8
ENDBRANCH   4   6
ENDBRANCH   1   3
BRANCH   1  14
ATOM     14  N   UNL     1       6.206   5.541  19.081  0.00  0.00    +0.000 N 
ATOM     15  H   UNL     1       6.389   5.772  20.050  0.00  0.00    +0.000 HD
BRANCH  14  16
ATOM     16  C   UNL     1       4.834   5.579  18.743  0.00  0.00    +0.000 A 
ATOM     17  C   UNL     1       4.249   6.779  18.298  0.00  0.00    +0.000 A 
ATOM     18  C   UNL     1       2.911   6.853  17.923  0.00  0.00    +0.000 A 
ATOM     19  C   UNL     1       2.121   5.714  17.959  0.00  0.00    +0.000 A 
ATOM     20  C   UNL     1       2.664   4.483  18.340  0.00  0.00    +0.000 A 
ATOM     21  C   UNL     1       1.839   3.347  18.331  0.00  0.00    +0.000 A 
ATOM     22  C   UNL     1       2.336   2.095  18.682  0.00  0.00    +0.000 A 
ATOM     23  C   UNL     1       3.670   1.967  19.038  0.00  0.00    +0.000 A 
ATOM     24  C   UNL     1       4.505   3.091  19.053  0.00  0.00    +0.000 A 
ATOM     25  C   UNL     1       4.033   4.387  18.718  0.00  0.00    +0.000 A 
ENDBRANCH  14  16
ENDBRANCH   1  14
TORSDOF 5
ENDMDL
MODEL 4
REMARK VINA RESULT:      -7.9      3.336      5.419
REMARK  Name = 
REMARK  5 active torsions:
REMARK  status: ('A' for Active; 'I' for Inactive)
REMARK    1  A    between atoms: C_2  and  C_3
REMARK    2  A    between atoms: C_3  and  N_4
REMARK    3  A    between atoms: N_4  and  C_5
REMARK    4  A    between atoms: N_15  and  N_16
REMARK    5  A    between atoms: C_17  and  C_18
REMARK                            x       y       z     vdW  Elec       q    Type
REMARK                         _______ _______ _______ _____ _____    ______ ____
ROOT
ATOM      1  C   UNL     1       7.251   5.872  18.955  0.00  0.00    +0.000 C 
ENDROOT
BRANCH   1   3
ATOM      2  O   UNL     1       8.141   4.195  17.454  0.00  0.00    +0.000 OA
ATOM      3  C   UNL     1       7.590   5.287  17.582  0.00  0.00    +0.000 C 
ATOM      4  N   UNL     1       7.200   6.103  16.524  0.00  0.00    +0.000 N 
ATOM      5  H   UNL     1       6.746   6.994  16.694  0.00  0.00    +0.000 HD
BRANCH   4   6
ATOM      6  N   UNL     1       7.377   5.666  15.241  0.00  0.00    +0.000 NA
ATOM      7  C   UNL     1       6.565   4.742  14.837  0.00  0.00    +0.000 C 
BRANCH   7   8
ATOM      8  C   UNL     1       6.685   4.215  13.506  0.00  0.00    +0.000 A 
ATOM      9  C   UNL     1       7.456   4.675  12.452  0.00  0.00    +0.000 A 
ATOM     10  C   UNL     1       7.232   3.822  11.346  0.00  0.00    +0.000 A 
ATOM     11  C   UNL     1       6.331   2.860  11.745  0.00  0.00    +0.000 A 
ATOM     12  N   UNL     1       6.011   3.103  13.054  0.00  0.00    +0.000 N 
ATOM     13  H   UNL     1       5.371   2.561  13.625  0.00  0.00    +0.000 HD
ENDBRANCH   7   8
ENDBRANCH   4   6
ENDBRANCH   1   3
BRANCH   1  14
ATOM     14  N   UNL     1       6.157   5.142  19.613  0.00  0.00    +0.000 N 
ATOM     15  H   UNL     1       6.208   5.173  20.625  0.00  0.00    +0.000 HD
BRANCH  14  16
ATOM     16  C   UNL     1       4.845   5.300  19.111  0.00  0.00    +0.000 A 
ATOM     17  C   UNL     1       4.361   6.583  18.792  0.00  0.00    +0.000 A 
ATOM     18  C   UNL     1       3.089   6.781  18.264  0.00  0.00    +0.000 A 
ATOM     19  C   UNL     1       2.268   5.691  18.015  0.00  0.00    +0.000 A 
ATOM     20  C   UNL     1       2.718   4.391  18.263  0.00  0.00    +0.000 A 
ATOM     21  C   UNL     1       1.869   3.312  17.967  0.00  0.00    +0.000 A 
ATOM     22  C   UNL     1       2.277   1.998  18.174  0.00  0.00    +0.000 A 
ATOM     23  C   UNL     1       3.546   1.749  18.675  0.00  0.00    +0.000 A 
ATOM     24  C   UNL     1       4.404   2.815  18.976  0.00  0.00    +0.000 A 
ATOM     25  C   UNL     1       4.021   4.169  18.794  0.00  0.00    +0.000 A 
ENDBRANCH  14  16
ENDBRANCH   1  14
TORSDOF 5
ENDMDL
MODEL 5
REMARK VINA RESULT:      -7.9      1.488      1.639
REMARK  Name = 
REMARK  5 active torsions:
REMARK  status: ('A' for Active; 'I' for Inactive)
REMARK    1  A    between atoms: C_2  and  C_3
REMARK    2  A    between atoms: C_3  and  N_4
REMARK    3  A    between atoms: N_4  and  C_5
REMARK    4  A    between atoms: N_15  and  N_16
REMARK    5  A    between atoms: C_17  and  C_18
REMARK                            x       y       z     vdW  Elec       q    Type
REMARK                         _______ _______ _______ _____ _____    ______ ____
ROOT
ATOM      1  C   UNL     1       6.282   4.467  16.648  0.00  0.00    +0.000 C 
ENDROOT
BRANCH   1   3
ATOM      2  O   UNL     1       7.771   5.218  18.403  0.00  0.00    +0.000 OA
ATOM      3  C   UNL     1       7.211   5.471  17.338  0.00  0.00    +0.000 C 
ATOM      4  N   UNL     1       7.356   6.662  16.632  0.00  0.00    +0.000 N 
ATOM      5  H   UNL     1       6.868   6.810  15.756  0.00  0.00    +0.000 HD
BRANCH   4   6
ATOM      6  N   UNL     1       8.216   7.616  17.099  0.00  0.00    +0.000 NA
ATOM      7  C   UNL     1       7.682   8.585  17.770  0.00  0.00    +0.000 C 
BRANCH   7   8
ATOM      8  C   UNL     1       8.510   9.639  18.288  0.00  0.00    +0.000 A 
ATOM      9  C   UNL     1       8.816  10.866  17.723  0.00  0.00    +0.000 A 
ATOM     10  C   UNL     1       9.672  11.553  18.615  0.00  0.00    +0.000 A 
ATOM     11  C   UNL     1       9.872  10.736  19.705  0.00  0.00    +0.000 A 
ATOM     12  N   UNL     1       9.160   9.583  19.500  0.00  0.00    +0.000 N 
ATOM     13  H   UNL     1       9.109   8.791  20.132  0.00  0.00    +0.000 HD
ENDBRANCH   7   8
ENDBRANCH   4   6
ENDBRANCH   1   3
BRANCH   1  14
ATOM     14  N   UNL     1       5.023   5.090  16.211  0.00  0.00    +0.000 N 
ATOM     15  H   UNL     1       4.633   4.660  15.380  0.00  0.00    +0.000 HD
BRANCH  14  16
ATOM     16  C   UNL     1       4.053   5.406  17.189  0.00  0.00    +0.000 A 
ATOM     17  C   UNL     1       3.849   6.744  17.575  0.00  0.00    +0.000 A 
ATOM     18  C   UNL     1       2.883   7.103  18.510  0.00  0.00    +0.000 A 
ATOM     19  C   UNL     1       2.069   6.129  19.068  0.00  0.00    +0.000 A 
ATOM     20  C   UNL     1       2.191   4.791  18.680  0.00  0.00    +0.000 A 
ATOM     21  C   UNL     1       1.326   3.840  19.246  0.00  0.00    +0.000 A 
ATOM     22  C   UNL     1       1.392   2.500  18.877  0.00  0.00    +0.000 A 
ATOM     23  C   UNL     1       2.323   2.098  17.931  0.00  0.00    +0.000 A 
ATOM     24  C   UNL     1       3.193   3.035  17.360  0.00  0.00    +0.000 A 
ATOM     25  C   UNL     1       3.168   4.407  17.719  0.00  0.00    +0.000 A 
ENDBRANCH  14  16
ENDBRANCH   1  14
TORSDOF 5
ENDMDL
MODEL 6
REMARK VINA RESULT:      -7.9      1.934      2.652
REMARK  Name = 
REMARK  5 active torsions:
REMARK  status: ('A' for Active; 'I' for Inactive)
REMARK    1  A    between atoms: C_2  and  C_3
REMARK    2  A    between atoms: C_3  and  N_4
REMARK    3  A    between atoms: N_4  and  C_5
REMARK    4  A    between atoms: N_15  and  N_16
REMARK    5  A    between atoms: C_17  and  C_18
REMARK                            x       y       z     vdW  Elec       q    Type
REMARK                         _______ _______ _______ _____ _____    ______ ____
ROOT
ATOM      1  C   UNL     1       5.195   4.369  16.037  0.00  0.00    +0.000 C 
ENDROOT
BRANCH   1   3
ATOM      2  O   UNL     1       5.163   6.682  15.327  0.00  0.00    +0.000 OA
ATOM      3  C   UNL     1       5.711   5.810  15.997  0.00  0.00    +0.000 C 
ATOM      4  N   UNL     1       6.833   6.015  16.795  0.00  0.00    +0.000 N 
ATOM      5  H   UNL     1       7.239   5.254  17.328  0.00  0.00    +0.000 HD
BRANCH   4   6
ATOM      6  N   UNL     1       7.352   7.274  16.909  0.00  0.00    +0.000 NA
ATOM      7  C   UNL     1       7.815   7.597  18.073  0.00  0.00    +0.000 C 
BRANCH   7   8
ATOM      8  C   UNL     1       8.369   8.905  18.287  0.00  0.00    +0.000 A 
ATOM      9  C   UNL     1       8.246  10.043  17.507  0.00  0.00    +0.000 A 
ATOM     10  C   UNL     1       8.976  11.080  18.133  0.00  0.00    +0.000 A 
ATOM     11  C   UNL     1       9.529  10.558  19.281  0.00  0.00    +0.000 A 
ATOM     12  N   UNL     1       9.152   9.244  19.367  0.00  0.00    +0.000 N 
ATOM     13  H   UNL     1       9.404   8.597  20.106  0.00  0.00    +0.000 HD
ENDBRANCH   7   8
ENDBRANCH   4   6
ENDBRANCH   1   3
BRANCH   1  14
ATOM     14  N   UNL     1       5.243   3.802  17.394  0.00  0.00    +0.000 N 
ATOM     15  H   UNL     1       5.834   4.329  18.026  0.00  0.00    +0.000 HD
BRANCH  14  16
ATOM     16  C   UNL     1       4.034   3.368  17.985  0.00  0.00    +0.000 A 
ATOM     17  C   UNL     1       3.618   2.031  17.843  0.00  0.00    +0.000 A 
ATOM     18  C   UNL     1       2.453   1.553  18.435  0.00  0.00    +0.000 A 
ATOM     19  C   UNL     1       1.680   2.400  19.215  0.00  0.00    +0.000 A 
ATOM     20  C   UNL     1       2.074   3.723  19.435  0.00  0.00    +0.000 A 
ATOM     21  C   UNL     1       1.280   4.539  20.257  0.00  0.00    +0.000 A 
ATOM     22  C   UNL     1       1.639   5.856  20.525  0.00  0.00    +0.000 A 
ATOM     23  C   UNL     1       2.805   6.369  19.978  0.00  0.00    +0.000 A 
ATOM     24  C   UNL     1       3.607   5.568  19.154  0.00  0.00    +0.000 A 
ATOM     25  C   UNL     1       3.268   4.226  18.844  0.00  0.00    +0.000 A 
ENDBRANCH  14  16
ENDBRANCH   1  14
TORSDOF 5
ENDMDL
MODEL 7
REMARK VINA RESULT:      -7.7      0.976      1.045
REMARK  Name = 
REMARK  5 active torsions:
REMARK  status: ('A' for Active; 'I' for Inactive)
REMARK    1  A    between atoms: C_2  and  C_3
REMARK    2  A    between atoms: C_3  and  N_4
REMARK    3  A    between atoms: N_4  and  C_5
REMARK    4  A    between atoms: N_15  and  N_16
REMARK    5  A    between atoms: C_17  and  C_18
REMARK                            x       y       z     vdW  Elec       q    Type
REMARK                         _______ _______ _______ _____ _____    ______ ____
ROOT
ATOM      1  C   UNL     1       6.330   5.279  16.362  0.00  0.00    +0.000 C 
ENDROOT
BRANCH   1   3
ATOM      2  O   UNL     1       7.779   5.386  18.298  0.00  0.00    +0.000 OA
ATOM      3  C   UNL     1       7.199   5.994  17.401  0.00  0.00    +0.000 C 
ATOM      4  N   UNL     1       7.266   7.371  17.209  0.00  0.00    +0.000 N 
ATOM      5  H   UNL     1       6.765   7.815  16.447  0.00  0.00    +0.000 HD
BRANCH   4   6
ATOM      6  N   UNL     1       8.068   8.122  18.021  0.00  0.00    +0.000 NA
ATOM      7  C   UNL     1       8.204   9.367  17.695  0.00  0.00    +0.000 C 
BRANCH   7   8
ATOM      8  C   UNL     1       9.039  10.228  18.486  0.00  0.00    +0.000 A 
ATOM      9  C   UNL     1       9.766  11.340  18.094  0.00  0.00    +0.000 A 
ATOM     10  C   UNL     1      10.431  11.848  19.234  0.00  0.00    +0.000 A 
ATOM     11  C   UNL     1      10.098  11.040  20.298  0.00  0.00    +0.000 A 
ATOM     12  N   UNL     1       9.252  10.066  19.837  0.00  0.00    +0.000 N 
ATOM     13  H   UNL     1       8.836   9.324  20.389  0.00  0.00    +0.000 HD
ENDBRANCH   7   8
ENDBRANCH   4   6
ENDBRANCH   1   3
BRANCH   1  14
ATOM     14  N   UNL     1       5.215   4.548  16.984  0.00  0.00    +0.000 N 
ATOM     15  H   UNL     1       5.500   3.675  17.412  0.00  0.00    +0.000 HD
BRANCH  14  16
ATOM     16  C   UNL     1       4.281   5.275  17.757  0.00  0.00    +0.000 A 
ATOM     17  C   UNL     1       3.886   6.566  17.357  0.00  0.00    +0.000 A 
ATOM     18  C   UNL     1       2.945   7.303  18.070  0.00  0.00    +0.000 A 
ATOM     19  C   UNL     1       2.349   6.754  19.195  0.00  0.00    +0.000 A 
ATOM     20  C   UNL     1       2.662   5.456  19.606  0.00  0.00    +0.000 A 
ATOM     21  C   UNL     1       2.013   4.925  20.732  0.00  0.00    +0.000 A 
ATOM     22  C   UNL     1       2.274   3.630  21.169  0.00  0.00    +0.000 A 
ATOM     23  C   UNL     1       3.186   2.848  20.476  0.00  0.00    +0.000 A 
ATOM     24  C   UNL     1       3.843   3.363  19.352  0.00  0.00    +0.000 A 
ATOM     25  C   UNL     1       3.617   4.683  18.884  0.00  0.00    +0.000 A 
ENDBRANCH  14  16
ENDBRANCH   1  14
TORSDOF 5
ENDMDL
MODEL 8
REMARK VINA RESULT:      -7.7      1.682      2.200
REMARK  Name = 
REMARK  5 active torsions:
REMARK  status: ('A' for Active; 'I' for Inactive)
REMARK    1  A    between atoms: C_2  and  C_3
REMARK    2  A    between atoms: C_3  and  N_4
REMARK    3  A    between atoms: N_4  and  C_5
REMARK    4  A    between atoms: N_15  and  N_16
REMARK    5  A    between atoms: C_17  and  C_18
REMARK                            x       y       z     vdW  Elec       q    Type
REMARK                         _______ _______ _______ _____ _____    ______ ____
ROOT
ATOM      1  C   UNL     1       5.972   6.674  16.851  0.00  0.00    +0.000 C 
ENDROOT
BRANCH   1   3
ATOM      2  O   UNL     1       7.836   6.419  18.375  0.00  0.00    +0.000 OA
ATOM      3  C   UNL     1       7.195   7.162  17.633  0.00  0.00    +0.000 C 
ATOM      4  N   UNL     1       7.497   8.501  17.403  0.00  0.00    +0.000 N 
ATOM      5  H   UNL     1       6.931   9.062  16.777  0.00  0.00    +0.000 HD
BRANCH   4   6
ATOM      6  N   UNL     1       8.610   9.045  17.982  0.00  0.00    +0.000 NA
ATOM      7  C   UNL     1       8.566  10.316  18.217  0.00  0.00    +0.000 C 
BRANCH   7   8
ATOM      8  C   UNL     1       9.696  10.975  18.812  0.00  0.00    +0.000 A 
ATOM      9  C   UNL     1       9.952  11.231  20.148  0.00  0.00    +0.000 A 
ATOM     10  C   UNL     1      11.192  11.907  20.231  0.00  0.00    +0.000 A 
ATOM     11  C   UNL     1      11.669  12.049  18.947  0.00  0.00    +0.000 A 
ATOM     12  N   UNL     1      10.760  11.478  18.096  0.00  0.00    +0.000 N 
ATOM     13  H   UNL     1      10.836  11.425  17.087  0.00  0.00    +0.000 HD
ENDBRANCH   7   8
ENDBRANCH   4   6
ENDBRANCH   1   3
BRANCH   1  14
ATOM     14  N   UNL     1       4.788   6.530  17.712  0.00  0.00    +0.000 N 
ATOM     15  H   UNL     1       4.191   7.350  17.710  0.00  0.00    +0.000 HD
BRANCH  14  16
ATOM     16  C   UNL     1       4.070   5.313  17.671  0.00  0.00    +0.000 A 
ATOM     17  C   UNL     1       4.406   4.326  16.726  0.00  0.00    +0.000 A 
ATOM     18  C   UNL     1       3.749   3.101  16.672  0.00  0.00    +0.000 A 
ATOM     19  C   UNL     1       2.746   2.816  17.588  0.00  0.00    +0.000 A 
ATOM     20  C   UNL     1       2.409   3.738  18.583  0.00  0.00    +0.000 A 
ATOM     21  C   UNL     1       1.411   3.399  19.511  0.00  0.00    +0.000 A 
ATOM     22  C   UNL     1       1.054   4.272  20.534  0.00  0.00    +0.000 A 
ATOM     23  C   UNL     1       1.699   5.495  20.643  0.00  0.00    +0.000 A 
ATOM     24  C   UNL     1       2.695   5.848  19.724  0.00  0.00    +0.000 A 
ATOM     25  C   UNL     1       3.078   4.993  18.658  0.00  0.00    +0.000 A 
ENDBRANCH  14  16
ENDBRANCH   1  14
TORSDOF 5
ENDMDL
MODEL 9
REMARK VINA RESULT:      -7.7      1.638      1.968
REMARK  Name = 
REMARK  5 active torsions:
REMARK  status: ('A' for Active; 'I' for Inactive)
REMARK    1  A    between atoms: C_2  and  C_3
REMARK    2  A    between atoms: C_3  and  N_4
REMARK    3  A    between atoms: N_4  and  C_5
REMARK    4  A    between atoms: N_15  and  N_16
REMARK    5  A    between atoms: C_17  and  C_18
REMARK                            x       y       z     vdW  Elec       q    Type
REMARK                         _______ _______ _______ _____ _____    ______ ____
ROOT
ATOM      1  C   UNL     1       6.511   5.344  16.454  0.00  0.00    +0.000 C 
ENDROOT
BRANCH   1   3
ATOM      2  O   UNL     1       7.573   5.698  18.600  0.00  0.00    +0.000 OA
ATOM      3  C   UNL     1       7.239   6.173  17.516  0.00  0.00    +0.000 C 
ATOM      4  N   UNL     1       7.486   7.483  17.118  0.00  0.00    +0.000 N 
ATOM      5  H   UNL     1       7.187   7.816  16.208  0.00  0.00    +0.000 HD
BRANCH   4   6
ATOM      6  N   UNL     1       8.195   8.311  17.943  0.00  0.00    +0.000 NA
ATOM      7  C   UNL     1       8.209   9.564  17.619  0.00  0.00    +0.000 C 
BRANCH   7   8
ATOM      8  C   UNL     1       8.940  10.504  18.422  0.00  0.00    +0.000 A 
ATOM      9  C   UNL     1       9.445  10.350  19.702  0.00  0.00    +0.000 A 
ATOM     10  C   UNL     1      10.083  11.559  20.065  0.00  0.00    +0.000 A 
ATOM     11  C   UNL     1       9.957  12.426  19.002  0.00  0.00    +0.000 A 
ATOM     12  N   UNL     1       9.269  11.776  18.011  0.00  0.00    +0.000 N 
ATOM     13  H   UNL     1       9.023  12.158  17.105  0.00  0.00    +0.000 HD
ENDBRANCH   7   8
ENDBRANCH   4   6
ENDBRANCH   1   3
BRANCH   1  14
ATOM     14  N   UNL     1       5.221   5.943  16.075  0.00  0.00    +0.000 N 
ATOM     15  H   UNL     1       4.869   5.603  15.188  0.00  0.00    +0.000 HD
BRANCH  14  16
ATOM     16  C   UNL     1       4.221   6.069  17.066  0.00  0.00    +0.000 A 
ATOM     17  C   UNL     1       3.852   7.342  17.540  0.00  0.00    +0.000 A 
ATOM     18  C   UNL     1       2.850   7.514  18.490  0.00  0.00    +0.000 A 
ATOM     19  C   UNL     1       2.164   6.410  18.975  0.00  0.00    +0.000 A 
ATOM     20  C   UNL     1       2.451   5.128  18.499  0.00  0.00    +0.000 A 
ATOM     21  C   UNL     1       1.712   4.041  18.992  0.00  0.00    +0.000 A 
ATOM     22  C   UNL     1       1.943   2.747  18.534  0.00  0.00    +0.000 A 
ATOM     23  C   UNL     1       2.915   2.529  17.570  0.00  0.00    +0.000 A 
ATOM     24  C   UNL     1       3.662   3.603  17.069  0.00  0.00    +0.000 A 
ATOM     25  C   UNL     1       3.467   4.934  17.520  0.00  0.00    +0.000 A 
ENDBRANCH  14  16
ENDBRANCH   1  14
TORSDOF 5
ENDMDL
