MODEL 1
REMARK VINA RESULT:      -7.8      0.000      0.000
REMARK  Name = 
REMARK  7 active torsions:
REMARK  status: ('A' for Active; 'I' for Inactive)
REMARK    1  A    between atoms: C_1  and  O_2
REMARK    2  A    between atoms: O_2  and  C_3
REMARK    3  A    between atoms: C_3  and  C_5
REMARK    4  A    between atoms: C_5  and  C_6
REMARK    5  A    between atoms: C_5  and  C_10
REMARK    6  A    between atoms: C_6  and  O_8
REMARK    7  A    between atoms: O_8  and  C_9
REMARK                            x       y       z     vdW  Elec       q    Type
REMARK                         _______ _______ _______ _____ _____    ______ ____
ROOT
ATOM      1  C   UNL     1       4.833   5.202  17.805  0.00  0.00    +0.000 A 
ATOM      2  C   UNL     1       4.985   3.937  18.518  0.00  0.00    +0.000 A 
ATOM      3  C   UNL     1       4.188   3.531  19.631  0.00  0.00    +0.000 A 
ATOM      4 BR   UNL     1       4.469   1.898  20.507  0.00  0.00    +0.000 Br
ATOM      5  C   UNL     1       3.229   4.480  20.026  0.00  0.00    +0.000 A 
ATOM      6  N   UNL     1       2.320   4.532  21.027  0.00  0.00    +0.000 NA
ATOM      7  O   UNL     1       1.681   5.781  20.937  0.00  0.00    +0.000 OA
ATOM      8  C   UNL     1       2.190   6.456  19.881  0.00  0.00    +0.000 A 
ATOM      9  C   UNL     1       3.127   5.684  19.285  0.00  0.00    +0.000 A 
ATOM     10  C   UNL     1       3.839   6.138  18.194  0.00  0.00    +0.000 A 
ATOM     11  C   UNL     1       3.518   7.495  17.664  0.00  0.00    +0.000 C 
ATOM     12  O   UNL     1       4.094   7.937  16.680  0.00  0.00    +0.000 OA
ATOM     13  C   UNL     1       2.461   8.312  18.366  0.00  0.00    +0.000 A 
ATOM     14  C   UNL     1       2.153   9.592  17.901  0.00  0.00    +0.000 A 
ATOM     15  C   UNL     1       1.195  10.352  18.573  0.00  0.00    +0.000 A 
ATOM     16  C   UNL     1       0.549   9.838  19.702  0.00  0.00    +0.000 A 
ATOM     17  C   UNL     1       0.845   8.554  20.168  0.00  0.00    +0.000 A 
ATOM     18  C   UNL     1       1.797   7.787  19.501  0.00  0.00    +0.000 A 
ENDROOT
BRANCH   1  19
ATOM     19  C   UNL     1       5.879   5.608  16.750  0.00  0.00    +0.000 C 
BRANCH  19  20
ATOM     20  C   UNL     1       7.280   5.384  17.289  0.00  0.00    +0.000 C 
ATOM     21  O   UNL     1       7.976   4.405  17.037  0.00  0.00    +0.000 OA
BRANCH  20  23
ATOM     22  C   UNL     1       7.597   7.686  17.540  0.00  0.00    +0.000 C 
ATOM     23  O   UNL     1       7.649   6.388  18.135  0.00  0.00    +0.000 OA
ENDBRANCH  20  23
ENDBRANCH  19  20
BRANCH  19  24
ATOM     24  C   UNL     1       5.693   4.951  15.404  0.00  0.00    +0.000 C 
ATOM     25  O   UNL     1       4.943   4.011  15.172  0.00  0.00    +0.000 OA
BRANCH  24  26
ATOM     26  O   UNL     1       6.457   5.581  14.462  0.00  0.00    +0.000 OA
ATOM     27  C   UNL     1       7.106   4.700  13.544  0.00  0.00    +0.000 C 
ENDBRANCH  24  26
ENDBRANCH  19  24
ENDBRANCH   1  19
TORSDOF 5
ENDMDL
MODEL 2
REMARK VINA RESULT:      -7.4      0.775      1.013
REMARK  Name = 
REMARK  7 active torsions:
REMARK  status: ('A' for Active; 'I' for Inactive)
REMARK    1  A    between atoms: C_1  and  O_2
REMARK    2  A    between atoms: O_2  and  C_3
REMARK    3  A    between atoms: C_3  and  C_5
REMARK    4  A    between atoms: C_5  and  C_6
REMARK    5  A    between atoms: C_5  and  C_10
REMARK    6  A    between atoms: C_6  and  O_8
REMARK    7  A    between atoms: O_8  and  C_9
REMARK                            x       y       z     vdW  Elec       q    Type
REMARK                         _______ _______ _______ _____ _____    ______ ____
ROOT
ATOM      1  C   UNL     1       4.388   5.609  17.697  0.00  0.00    +0.000 A 
ATOM      2  C   UNL     1       4.650   4.303  18.295  0.00  0.00    +0.000 A 
ATOM      3  C   UNL     1       3.995   3.796  19.458  0.00  0.00    +0.000 A 
ATOM      4 BR   UNL     1       4.412   2.116  20.177  0.00  0.00    +0.000 Br
ATOM      5  C   UNL     1       3.065   4.685  20.025  0.00  0.00    +0.000 A 
ATOM      6  N   UNL     1       2.274   4.639  21.123  0.00  0.00    +0.000 NA
ATOM      7  O   UNL     1       1.600   5.870  21.194  0.00  0.00    +0.000 OA
ATOM      8  C   UNL     1       1.969   6.633  20.140  0.00  0.00    +0.000 A 
ATOM      9  C   UNL     1       2.851   5.933  19.389  0.00  0.00    +0.000 A 
ATOM     10  C   UNL     1       3.423   6.484  18.261  0.00  0.00    +0.000 A 
ATOM     11  C   UNL     1       3.012   7.864  17.870  0.00  0.00    +0.000 C 
ATOM     12  O   UNL     1       3.462   8.391  16.862  0.00  0.00    +0.000 OA
ATOM     13  C   UNL     1       2.023   8.597  18.742  0.00  0.00    +0.000 A 
ATOM     14  C   UNL     1       1.634   9.895  18.408  0.00  0.00    +0.000 A 
ATOM     15  C   UNL     1       0.741  10.576  19.236  0.00  0.00    +0.000 A 
ATOM     16  C   UNL     1       0.239   9.965  20.390  0.00  0.00    +0.000 A 
ATOM     17  C   UNL     1       0.616   8.662  20.726  0.00  0.00    +0.000 A 
ATOM     18  C   UNL     1       1.505   7.974  19.903  0.00  0.00    +0.000 A 
ENDROOT
BRANCH   1  19
ATOM     19  C   UNL     1       5.298   6.120  16.564  0.00  0.00    +0.000 C 
BRANCH  19  20
ATOM     20  C   UNL     1       6.587   6.677  17.138  0.00  0.00    +0.000 C 
ATOM     21  O   UNL     1       6.911   7.860  17.108  0.00  0.00    +0.000 OA
BRANCH  20  23
ATOM     22  C   UNL     1       7.865   5.963  18.961  0.00  0.00    +0.000 C 
ATOM     23  O   UNL     1       7.368   5.683  17.651  0.00  0.00    +0.000 OA
ENDBRANCH  20  23
ENDBRANCH  19  20
BRANCH  19  24
ATOM     24  C   UNL     1       5.568   5.106  15.478  0.00  0.00    +0.000 C 
ATOM     25  O   UNL     1       5.027   4.012  15.378  0.00  0.00    +0.000 OA
BRANCH  24  26
ATOM     26  O   UNL     1       6.486   5.598  14.593  0.00  0.00    +0.000 OA
ATOM     27  C   UNL     1       7.060   4.614  13.730  0.00  0.00    +0.000 C 
ENDBRANCH  24  26
ENDBRANCH  19  24
ENDBRANCH   1  19
TORSDOF 5
ENDMDL
MODEL 3
REMARK VINA RESULT:      -6.8      2.720      5.012
REMARK  Name = 
REMARK  7 active torsions:
REMARK  status: ('A' for Active; 'I' for Inactive)
REMARK    1  A    between atoms: C_1  and  O_2
REMARK    2  A    between atoms: O_2  and  C_3
REMARK    3  A    between atoms: C_3  and  C_5
REMARK    4  A    between atoms: C_5  and  C_6
REMARK    5  A    between atoms: C_5  and  C_10
REMARK    6  A    between atoms: C_6  and  O_8
REMARK    7  A    between atoms: O_8  and  C_9
REMARK                            x       y       z     vdW  Elec       q    Type
REMARK                         _______ _______ _______ _____ _____    ______ ____
ROOT
ATOM      1  C   UNL     1       3.767   4.083  18.610  0.00  0.00    +0.000 A 
ATOM      2  C   UNL     1       4.687   3.672  17.554  0.00  0.00    +0.000 A 
ATOM      3  C   UNL     1       5.210   4.540  16.549  0.00  0.00    +0.000 A 
ATOM      4 BR   UNL     1       6.368   3.922  15.210  0.00  0.00    +0.000 Br
ATOM      5  C   UNL     1       4.739   5.862  16.633  0.00  0.00    +0.000 A 
ATOM      6  N   UNL     1       4.929   6.973  15.883  0.00  0.00    +0.000 NA
ATOM      7  O   UNL     1       4.136   7.988  16.445  0.00  0.00    +0.000 OA
ATOM      8  C   UNL     1       3.495   7.492  17.528  0.00  0.00    +0.000 A 
ATOM      9  C   UNL     1       3.855   6.198  17.688  0.00  0.00    +0.000 A 
ATOM     10  C   UNL     1       3.325   5.428  18.703  0.00  0.00    +0.000 A 
ATOM     11  C   UNL     1       2.368   6.077  19.646  0.00  0.00    +0.000 C 
ATOM     12  O   UNL     1       1.890   5.453  20.584  0.00  0.00    +0.000 OA
ATOM     13  C   UNL     1       2.004   7.525  19.423  0.00  0.00    +0.000 A 
ATOM     14  C   UNL     1       1.099   8.151  20.281  0.00  0.00    +0.000 A 
ATOM     15  C   UNL     1       0.746   9.481  20.051  0.00  0.00    +0.000 A 
ATOM     16  C   UNL     1       1.294  10.182  18.971  0.00  0.00    +0.000 A 
ATOM     17  C   UNL     1       2.208   9.564  18.113  0.00  0.00    +0.000 A 
ATOM     18  C   UNL     1       2.569   8.237  18.338  0.00  0.00    +0.000 A 
ENDROOT
BRANCH   1  19
ATOM     19  C   UNL     1       3.123   3.014  19.513  0.00  0.00    +0.000 C 
BRANCH  19  20
ATOM     20  C   UNL     1       2.632   1.848  18.675  0.00  0.00    +0.000 C 
ATOM     21  O   UNL     1       3.184   0.754  18.610  0.00  0.00    +0.000 OA
BRANCH  20  23
ATOM     22  C   UNL     1       0.428   2.622  18.767  0.00  0.00    +0.000 C 
ATOM     23  O   UNL     1       1.523   2.188  17.958  0.00  0.00    +0.000 OA
ENDBRANCH  20  23
ENDBRANCH  19  20
BRANCH  19  24
ATOM     24  C   UNL     1       4.000   2.548  20.650  0.00  0.00    +0.000 C 
ATOM     25  O   UNL     1       5.175   2.217  20.548  0.00  0.00    +0.000 OA
BRANCH  24  26
ATOM     26  O   UNL     1       3.305   2.579  21.825  0.00  0.00    +0.000 OA
ATOM     27  C   UNL     1       1.886   2.496  21.674  0.00  0.00    +0.000 C 
ENDBRANCH  24  26
ENDBRANCH  19  24
ENDBRANCH   1  19
TORSDOF 5
ENDMDL
MODEL 4
REMARK VINA RESULT:      -6.7      2.713      4.909
REMARK  Name = 
REMARK  7 active torsions:
REMARK  status: ('A' for Active; 'I' for Inactive)
REMARK    1  A    between atoms: C_1  and  O_2
REMARK    2  A    between atoms: O_2  and  C_3
REMARK    3  A    between atoms: C_3  and  C_5
REMARK    4  A    between atoms: C_5  and  C_6
REMARK    5  A    between atoms: C_5  and  C_10
REMARK    6  A    between atoms: C_6  and  O_8
REMARK    7  A    between atoms: O_8  and  C_9
REMARK                            x       y       z     vdW  Elec       q    Type
REMARK                         _______ _______ _______ _____ _____    ______ ____
ROOT
ATOM      1  C   UNL     1       3.881   4.145  18.638  0.00  0.00    +0.000 A 
ATOM      2  C   UNL     1       4.748   3.706  17.549  0.00  0.00    +0.000 A 
ATOM      3  C   UNL     1       5.196   4.540  16.480  0.00  0.00    +0.000 A 
ATOM      4 BR   UNL     1       6.289   3.886  15.104  0.00  0.00    +0.000 Br
ATOM      5  C   UNL     1       4.704   5.856  16.536  0.00  0.00    +0.000 A 
ATOM      6  N   UNL     1       4.830   6.937  15.731  0.00  0.00    +0.000 NA
ATOM      7  O   UNL     1       4.049   7.961  16.295  0.00  0.00    +0.000 OA
ATOM      8  C   UNL     1       3.480   7.500  17.433  0.00  0.00    +0.000 A 
ATOM      9  C   UNL     1       3.875   6.220  17.625  0.00  0.00    +0.000 A 
ATOM     10  C   UNL     1       3.418   5.486  18.700  0.00  0.00    +0.000 A 
ATOM     11  C   UNL     1       2.503   6.157  19.668  0.00  0.00    +0.000 C 
ATOM     12  O   UNL     1       2.091   5.565  20.656  0.00  0.00    +0.000 OA
ATOM     13  C   UNL     1       2.098   7.587  19.406  0.00  0.00    +0.000 A 
ATOM     14  C   UNL     1       1.230   8.234  20.288  0.00  0.00    +0.000 A 
ATOM     15  C   UNL     1       0.838   9.546  20.023  0.00  0.00    +0.000 A 
ATOM     16  C   UNL     1       1.310  10.209  18.886  0.00  0.00    +0.000 A 
ATOM     17  C   UNL     1       2.187   9.572  18.003  0.00  0.00    +0.000 A 
ATOM     18  C   UNL     1       2.586   8.263  18.262  0.00  0.00    +0.000 A 
ENDROOT
BRANCH   1  19
ATOM     19  C   UNL     1       3.310   3.105  19.619  0.00  0.00    +0.000 C 
BRANCH  19  20
ATOM     20  C   UNL     1       1.910   2.701  19.197  0.00  0.00    +0.000 C 
ATOM     21  O   UNL     1       1.603   2.319  18.071  0.00  0.00    +0.000 OA
BRANCH  20  23
ATOM     22  C   UNL     1       1.534   2.482  21.493  0.00  0.00    +0.000 C 
ATOM     23  O   UNL     1       1.020   2.866  20.217  0.00  0.00    +0.000 OA
ENDBRANCH  20  23
ENDBRANCH  19  20
BRANCH  19  24
ATOM     24  C   UNL     1       4.193   1.899  19.832  0.00  0.00    +0.000 C 
ATOM     25  O   UNL     1       4.215   0.902  19.120  0.00  0.00    +0.000 OA
BRANCH  24  26
ATOM     26  O   UNL     1       4.998   2.090  20.919  0.00  0.00    +0.000 OA
ATOM     27  C   UNL     1       5.504   0.885  21.497  0.00  0.00    +0.000 C 
ENDBRANCH  24  26
ENDBRANCH  19  24
ENDBRANCH   1  19
TORSDOF 5
ENDMDL
MODEL 5
REMARK VINA RESULT:      -6.4      7.843     10.154
REMARK  Name = 
REMARK  7 active torsions:
REMARK  status: ('A' for Active; 'I' for Inactive)
REMARK    1  A    between atoms: C_1  and  O_2
REMARK    2  A    between atoms: O_2  and  C_3
REMARK    3  A    between atoms: C_3  and  C_5
REMARK    4  A    between atoms: C_5  and  C_6
REMARK    5  A    between atoms: C_5  and  C_10
REMARK    6  A    between atoms: C_6  and  O_8
REMARK    7  A    between atoms: O_8  and  C_9
REMARK                            x       y       z     vdW  Elec       q    Type
REMARK                         _______ _______ _______ _____ _____    ______ ____
ROOT
ATOM      1  C   UNL     1      -1.918  12.131  19.196  0.00  0.00    +0.000 A 
ATOM      2  C   UNL     1      -1.921  11.625  17.827  0.00  0.00    +0.000 A 
ATOM      3  C   UNL     1      -3.096  11.300  17.083  0.00  0.00    +0.000 A 
ATOM      4 BR   UNL     1      -3.008  10.629  15.335  0.00  0.00    +0.000 Br
ATOM      5  C   UNL     1      -4.294  11.482  17.796  0.00  0.00    +0.000 A 
ATOM      6  N   UNL     1      -5.598  11.262  17.508  0.00  0.00    +0.000 NA
ATOM      7  O   UNL     1      -6.333  11.589  18.660  0.00  0.00    +0.000 OA
ATOM      8  C   UNL     1      -5.478  12.017  19.617  0.00  0.00    +0.000 A 
ATOM      9  C   UNL     1      -4.221  11.985  19.119  0.00  0.00    +0.000 A 
ATOM     10  C   UNL     1      -3.136  12.340  19.894  0.00  0.00    +0.000 A 
ATOM     11  C   UNL     1      -3.393  12.798  21.290  0.00  0.00    +0.000 C 
ATOM     12  O   UNL     1      -2.473  13.156  22.013  0.00  0.00    +0.000 OA
ATOM     13  C   UNL     1      -4.816  12.817  21.793  0.00  0.00    +0.000 A 
ATOM     14  C   UNL     1      -5.083  13.226  23.101  0.00  0.00    +0.000 A 
ATOM     15  C   UNL     1      -6.397  13.213  23.567  0.00  0.00    +0.000 A 
ATOM     16  C   UNL     1      -7.440  12.795  22.733  0.00  0.00    +0.000 A 
ATOM     17  C   UNL     1      -7.182  12.393  21.420  0.00  0.00    +0.000 A 
ATOM     18  C   UNL     1      -5.872  12.407  20.945  0.00  0.00    +0.000 A 
ENDROOT
BRANCH   1  19
ATOM     19  C   UNL     1      -0.584  12.256  19.955  0.00  0.00    +0.000 C 
BRANCH  19  20
ATOM     20  C   UNL     1      -0.245  10.944  20.638  0.00  0.00    +0.000 C 
ATOM     21  O   UNL     1      -0.387   9.836  20.130  0.00  0.00    +0.000 OA
BRANCH  20  23
ATOM     22  C   UNL     1      -0.502  10.368  22.889  0.00  0.00    +0.000 C 
ATOM     23  O   UNL     1       0.190  11.150  21.914  0.00  0.00    +0.000 OA
ENDBRANCH  20  23
ENDBRANCH  19  20
BRANCH  19  24
ATOM     24  C   UNL     1       0.567  12.755  19.114  0.00  0.00    +0.000 C 
ATOM     25  O   UNL     1       1.559  12.103  18.813  0.00  0.00    +0.000 OA
BRANCH  24  26
ATOM     26  O   UNL     1       0.329  14.035  18.702  0.00  0.00    +0.000 OA
ATOM     27  C   UNL     1       1.080  15.029  19.401  0.00  0.00    +0.000 C 
ENDBRANCH  24  26
ENDBRANCH  19  24
ENDBRANCH   1  19
TORSDOF 5
ENDMDL
MODEL 6
REMARK VINA RESULT:      -6.3      2.721      4.953
REMARK  Name = 
REMARK  7 active torsions:
REMARK  status: ('A' for Active; 'I' for Inactive)
REMARK    1  A    between atoms: C_1  and  O_2
REMARK    2  A    between atoms: O_2  and  C_3
REMARK    3  A    between atoms: C_3  and  C_5
REMARK    4  A    between atoms: C_5  and  C_6
REMARK    5  A    between atoms: C_5  and  C_10
REMARK    6  A    between atoms: C_6  and  O_8
REMARK    7  A    between atoms: O_8  and  C_9
REMARK                            x       y       z     vdW  Elec       q    Type
REMARK                         _______ _______ _______ _____ _____    ______ ____
ROOT
ATOM      1  C   UNL     1       4.070   3.989  19.209  0.00  0.00    +0.000 A 
ATOM      2  C   UNL     1       4.889   3.616  18.060  0.00  0.00    +0.000 A 
ATOM      3  C   UNL     1       5.153   4.463  16.942  0.00  0.00    +0.000 A 
ATOM      4 BR   UNL     1       6.198   3.894  15.493  0.00  0.00    +0.000 Br
ATOM      5  C   UNL     1       4.524   5.718  17.012  0.00  0.00    +0.000 A 
ATOM      6  N   UNL     1       4.463   6.783  16.179  0.00  0.00    +0.000 NA
ATOM      7  O   UNL     1       3.620   7.731  16.786  0.00  0.00    +0.000 OA
ATOM      8  C   UNL     1       3.201   7.243  17.976  0.00  0.00    +0.000 A 
ATOM      9  C   UNL     1       3.750   6.021  18.160  0.00  0.00    +0.000 A 
ATOM     10  C   UNL     1       3.466   5.271  19.283  0.00  0.00    +0.000 A 
ATOM     11  C   UNL     1       2.563   5.866  20.311  0.00  0.00    +0.000 C 
ATOM     12  O   UNL     1       2.301   5.261  21.342  0.00  0.00    +0.000 OA
ATOM     13  C   UNL     1       1.981   7.235  20.056  0.00  0.00    +0.000 A 
ATOM     14  C   UNL     1       1.120   7.807  20.994  0.00  0.00    +0.000 A 
ATOM     15  C   UNL     1       0.564   9.061  20.737  0.00  0.00    +0.000 A 
ATOM     16  C   UNL     1       0.866   9.739  19.551  0.00  0.00    +0.000 A 
ATOM     17  C   UNL     1       1.734   9.177  18.611  0.00  0.00    +0.000 A 
ATOM     18  C   UNL     1       2.296   7.927  18.862  0.00  0.00    +0.000 A 
ENDROOT
BRANCH   1  19
ATOM     19  C   UNL     1       3.699   2.920  20.255  0.00  0.00    +0.000 C 
BRANCH  19  20
ATOM     20  C   UNL     1       2.247   2.511  20.093  0.00  0.00    +0.000 C 
ATOM     21  O   UNL     1       1.469   2.317  21.022  0.00  0.00    +0.000 OA
BRANCH  20  23
ATOM     22  C   UNL     1       0.646   2.859  18.426  0.00  0.00    +0.000 C 
ATOM     23  O   UNL     1       1.928   2.335  18.779  0.00  0.00    +0.000 OA
ENDBRANCH  20  23
ENDBRANCH  19  20
BRANCH  19  24
ATOM     24  C   UNL     1       4.614   1.719  20.269  0.00  0.00    +0.000 C 
ATOM     25  O   UNL     1       4.709   0.890  19.372  0.00  0.00    +0.000 OA
BRANCH  24  26
ATOM     26  O   UNL     1       5.355   1.705  21.416  0.00  0.00    +0.000 OA
ATOM     27  C   UNL     1       5.840   0.413  21.789  0.00  0.00    +0.000 C 
ENDBRANCH  24  26
ENDBRANCH  19  24
ENDBRANCH   1  19
TORSDOF 5
ENDMDL
MODEL 7
REMARK VINA RESULT:      -6.3      7.376      9.946
REMARK  Name = 
REMARK  7 active torsions:
REMARK  status: ('A' for Active; 'I' for Inactive)
REMARK    1  A    between atoms: C_1  and  O_2
REMARK    2  A    between atoms: O_2  and  C_3
REMARK    3  A    between atoms: C_3  and  C_5
REMARK    4  A    between atoms: C_5  and  C_6
REMARK    5  A    between atoms: C_5  and  C_10
REMARK    6  A    between atoms: C_6  and  O_8
REMARK    7  A    between atoms: O_8  and  C_9
REMARK                            x       y       z     vdW  Elec       q    Type
REMARK                         _______ _______ _______ _____ _____    ______ ____
ROOT
ATOM      1  C   UNL     1      -1.077  12.004  20.332  0.00  0.00    +0.000 A 
ATOM      2  C   UNL     1      -0.014  11.185  19.758  0.00  0.00    +0.000 A 
ATOM      3  C   UNL     1      -0.145  10.397  18.575  0.00  0.00    +0.000 A 
ATOM      4 BR   UNL     1       1.267   9.352  17.921  0.00  0.00    +0.000 Br
ATOM      5  C   UNL     1      -1.424  10.445  17.993  0.00  0.00    +0.000 A 
ATOM      6  N   UNL     1      -1.989   9.837  16.924  0.00  0.00    +0.000 NA
ATOM      7  O   UNL     1      -3.333  10.247  16.882  0.00  0.00    +0.000 OA
ATOM      8  C   UNL     1      -3.559  11.104  17.904  0.00  0.00    +0.000 A 
ATOM      9  C   UNL     1      -2.408  11.267  18.595  0.00  0.00    +0.000 A 
ATOM     10  C   UNL     1      -2.355  12.068  19.717  0.00  0.00    +0.000 A 
ATOM     11  C   UNL     1      -3.599  12.783  20.125  0.00  0.00    +0.000 C 
ATOM     12  O   UNL     1      -3.604  13.532  21.093  0.00  0.00    +0.000 OA
ATOM     13  C   UNL     1      -4.855  12.568  19.316  0.00  0.00    +0.000 A 
ATOM     14  C   UNL     1      -6.036  13.213  19.686  0.00  0.00    +0.000 A 
ATOM     15  C   UNL     1      -7.199  12.986  18.949  0.00  0.00    +0.000 A 
ATOM     16  C   UNL     1      -7.182  12.121  17.849  0.00  0.00    +0.000 A 
ATOM     17  C   UNL     1      -6.001  11.480  17.467  0.00  0.00    +0.000 A 
ATOM     18  C   UNL     1      -4.834  11.704  18.195  0.00  0.00    +0.000 A 
ENDROOT
BRANCH   1  19
ATOM     19  C   UNL     1      -0.875  12.650  21.716  0.00  0.00    +0.000 C 
BRANCH  19  20
ATOM     20  C   UNL     1      -1.121  11.629  22.811  0.00  0.00    +0.000 C 
ATOM     21  O   UNL     1      -2.181  11.497  23.416  0.00  0.00    +0.000 OA
BRANCH  20  23
ATOM     22  C   UNL     1      -0.217   9.496  23.125  0.00  0.00    +0.000 C 
ATOM     23  O   UNL     1       0.005  10.907  23.075  0.00  0.00    +0.000 OA
ENDBRANCH  20  23
ENDBRANCH  19  20
BRANCH  19  24
ATOM     24  C   UNL     1       0.457  13.339  21.892  0.00  0.00    +0.000 C 
ATOM     25  O   UNL     1       1.485  13.059  21.288  0.00  0.00    +0.000 OA
BRANCH  24  26
ATOM     26  O   UNL     1       0.347  14.351  22.803  0.00  0.00    +0.000 OA
ATOM     27  C   UNL     1      -0.689  15.293  22.516  0.00  0.00    +0.000 C 
ENDBRANCH  24  26
ENDBRANCH  19  24
ENDBRANCH   1  19
TORSDOF 5
ENDMDL
MODEL 8
REMARK VINA RESULT:      -6.1      6.652     10.026
REMARK  Name = 
REMARK  7 active torsions:
REMARK  status: ('A' for Active; 'I' for Inactive)
REMARK    1  A    between atoms: C_1  and  O_2
REMARK    2  A    between atoms: O_2  and  C_3
REMARK    3  A    between atoms: C_3  and  C_5
REMARK    4  A    between atoms: C_5  and  C_6
REMARK    5  A    between atoms: C_5  and  C_10
REMARK    6  A    between atoms: C_6  and  O_8
REMARK    7  A    between atoms: O_8  and  C_9
REMARK                            x       y       z     vdW  Elec       q    Type
REMARK                         _______ _______ _______ _____ _____    ______ ____
ROOT
ATOM      1  C   UNL     1      -1.908  11.944  19.076  0.00  0.00    +0.000 A 
ATOM      2  C   UNL     1      -1.962  11.457  17.701  0.00  0.00    +0.000 A 
ATOM      3  C   UNL     1      -3.164  11.222  16.969  0.00  0.00    +0.000 A 
ATOM      4 BR   UNL     1      -3.143  10.569  15.212  0.00  0.00    +0.000 Br
ATOM      5  C   UNL     1      -4.339  11.476  17.699  0.00  0.00    +0.000 A 
ATOM      6  N   UNL     1      -5.658  11.349  17.425  0.00  0.00    +0.000 NA
ATOM      7  O   UNL     1      -6.356  11.711  18.590  0.00  0.00    +0.000 OA
ATOM      8  C   UNL     1      -5.463  12.068  19.541  0.00  0.00    +0.000 A 
ATOM      9  C   UNL     1      -4.216  11.957  19.027  0.00  0.00    +0.000 A 
ATOM     10  C   UNL     1      -3.101  12.228  19.792  0.00  0.00    +0.000 A 
ATOM     11  C   UNL     1      -3.310  12.685  21.196  0.00  0.00    +0.000 C 
ATOM     12  O   UNL     1      -2.359  12.969  21.912  0.00  0.00    +0.000 OA
ATOM     13  C   UNL     1      -4.722  12.794  21.718  0.00  0.00    +0.000 A 
ATOM     14  C   UNL     1      -4.944  13.203  23.034  0.00  0.00    +0.000 A 
ATOM     15  C   UNL     1      -6.251  13.274  23.516  0.00  0.00    +0.000 A 
ATOM     16  C   UNL     1      -7.329  12.938  22.690  0.00  0.00    +0.000 A 
ATOM     17  C   UNL     1      -7.115  12.536  21.369  0.00  0.00    +0.000 A 
ATOM     18  C   UNL     1      -5.813  12.467  20.878  0.00  0.00    +0.000 A 
ENDROOT
BRANCH   1  19
ATOM     19  C   UNL     1      -0.559  11.969  19.820  0.00  0.00    +0.000 C 
BRANCH  19  20
ATOM     20  C   UNL     1       0.181  10.662  19.605  0.00  0.00    +0.000 C 
ATOM     21  O   UNL     1      -0.039   9.625  20.225  0.00  0.00    +0.000 OA
BRANCH  20  23
ATOM     22  C   UNL     1       1.484   9.580  17.994  0.00  0.00    +0.000 C 
ATOM     23  O   UNL     1       1.161  10.798  18.666  0.00  0.00    +0.000 OA
ENDBRANCH  20  23
ENDBRANCH  19  20
BRANCH  19  24
ATOM     24  C   UNL     1       0.311  13.158  19.491  0.00  0.00    +0.000 C 
ATOM     25  O   UNL     1       0.161  13.902  18.530  0.00  0.00    +0.000 OA
BRANCH  24  26
ATOM     26  O   UNL     1       1.279  13.311  20.444  0.00  0.00    +0.000 OA
ATOM     27  C   UNL     1       0.925  14.197  21.507  0.00  0.00    +0.000 C 
ENDBRANCH  24  26
ENDBRANCH  19  24
ENDBRANCH   1  19
TORSDOF 5
ENDMDL
