MODEL 1
REMARK VINA RESULT:      -7.6      0.000      0.000
REMARK  Name = 
REMARK  2 active torsions:
REMARK  status: ('A' for Active; 'I' for Inactive)
REMARK    1  A    between atoms: C_1  and  C_2
REMARK    2  A    between atoms: C_12  and  C_14
REMARK                            x       y       z     vdW  Elec       q    Type
REMARK                         _______ _______ _______ _____ _____    ______ ____
ROOT
ATOM      1  C   UNL     1       1.793   8.660  20.370  0.00  0.00    +0.000 C 
ATOM      2  C   UNL     1       1.933   7.266  19.839  0.00  0.00    +0.000 A 
ATOM      3  C   UNL     1       2.469   7.028  18.577  0.00  0.00    +0.000 A 
ATOM      4  C   UNL     1       2.655   5.719  18.122  0.00  0.00    +0.000 A 
ATOM      5  C   UNL     1       2.388   4.620  18.943  0.00  0.00    +0.000 A 
ATOM      6  C   UNL     1       1.691   4.856  20.146  0.00  0.00    +0.000 A 
ATOM      7  C   UNL     1       1.486   6.175  20.591  0.00  0.00    +0.000 A 
ATOM      8  C   UNL     1       1.101   3.732  20.956  0.00  0.00    +0.000 C 
ATOM      9  C   UNL     1       1.752   2.394  20.674  0.00  0.00    +0.000 C 
ATOM     10  C   UNL     1       1.965   2.221  19.181  0.00  0.00    +0.000 C 
ATOM     11  N   UNL     1       2.809   3.288  18.624  0.00  0.00    +0.000 N 
ATOM     12  C   UNL     1       3.898   2.877  17.823  0.00  0.00    +0.000 C 
ATOM     13  O   UNL     1       4.056   1.694  17.503  0.00  0.00    +0.000 OA
ENDROOT
BRANCH  12  14
ATOM     14  C   UNL     1       4.941   3.802  17.317  0.00  0.00    +0.000 A 
ATOM     15  C   UNL     1       4.896   4.129  15.963  0.00  0.00    +0.000 A 
ATOM     16  N   UNL     1       5.670   5.081  15.381  0.00  0.00    +0.000 NA
ATOM     17  C   UNL     1       6.527   5.737  16.193  0.00  0.00    +0.000 A 
ATOM     18  C   UNL     1       6.696   5.427  17.535  0.00  0.00    +0.000 A 
ATOM     19 BR   UNL     1       7.833   6.470  18.622  0.00  0.00    +0.000 Br
ATOM     20  C   UNL     1       5.939   4.398  18.091  0.00  0.00    +0.000 A 
ENDBRANCH  12  14
TORSDOF 1
ENDMDL
MODEL 2
REMARK VINA RESULT:      -7.6      1.352      1.587
REMARK  Name = 
REMARK  2 active torsions:
REMARK  status: ('A' for Active; 'I' for Inactive)
REMARK    1  A    between atoms: C_1  and  C_2
REMARK    2  A    between atoms: C_12  and  C_14
REMARK                            x       y       z     vdW  Elec       q    Type
REMARK                         _______ _______ _______ _____ _____    ______ ____
ROOT
ATOM      1  C   UNL     1       1.791   8.622  20.474  0.00  0.00    +0.000 C 
ATOM      2  C   UNL     1       1.917   7.228  19.940  0.00  0.00    +0.000 A 
ATOM      3  C   UNL     1       2.460   6.986  18.682  0.00  0.00    +0.000 A 
ATOM      4  C   UNL     1       2.633   5.675  18.225  0.00  0.00    +0.000 A 
ATOM      5  C   UNL     1       2.346   4.578  19.042  0.00  0.00    +0.000 A 
ATOM      6  C   UNL     1       1.642   4.820  20.241  0.00  0.00    +0.000 A 
ATOM      7  C   UNL     1       1.450   6.140  20.686  0.00  0.00    +0.000 A 
ATOM      8  C   UNL     1       1.031   3.702  21.043  0.00  0.00    +0.000 C 
ATOM      9  C   UNL     1       1.667   2.356  20.763  0.00  0.00    +0.000 C 
ATOM     10  C   UNL     1       1.890   2.184  19.271  0.00  0.00    +0.000 C 
ATOM     11  N   UNL     1       2.752   3.241  18.724  0.00  0.00    +0.000 N 
ATOM     12  C   UNL     1       3.841   2.818  17.930  0.00  0.00    +0.000 C 
ATOM     13  O   UNL     1       3.987   1.634  17.609  0.00  0.00    +0.000 OA
ENDROOT
BRANCH  12  14
ATOM     14  C   UNL     1       4.901   3.731  17.435  0.00  0.00    +0.000 A 
ATOM     15  C   UNL     1       5.721   4.328  18.391  0.00  0.00    +0.000 A 
ATOM     16  N   UNL     1       6.831   5.053  18.099  0.00  0.00    +0.000 NA
ATOM     17  C   UNL     1       7.135   5.185  16.788  0.00  0.00    +0.000 A 
ATOM     18  C   UNL     1       6.337   4.691  15.767  0.00  0.00    +0.000 A 
ATOM     19 BR   UNL     1       6.896   4.822  13.969  0.00  0.00    +0.000 Br
ATOM     20  C   UNL     1       5.165   4.012  16.093  0.00  0.00    +0.000 A 
ENDBRANCH  12  14
TORSDOF 1
ENDMDL
MODEL 3
REMARK VINA RESULT:      -7.3      1.797      2.155
REMARK  Name = 
REMARK  2 active torsions:
REMARK  status: ('A' for Active; 'I' for Inactive)
REMARK    1  A    between atoms: C_1  and  C_2
REMARK    2  A    between atoms: C_12  and  C_14
REMARK                            x       y       z     vdW  Elec       q    Type
REMARK                         _______ _______ _______ _____ _____    ______ ____
ROOT
ATOM      1  C   UNL     1       2.201   9.755  18.272  0.00  0.00    +0.000 C 
ATOM      2  C   UNL     1       2.311   8.268  18.412  0.00  0.00    +0.000 A 
ATOM      3  C   UNL     1       2.754   7.477  17.356  0.00  0.00    +0.000 A 
ATOM      4  C   UNL     1       2.916   6.098  17.522  0.00  0.00    +0.000 A 
ATOM      5  C   UNL     1       2.719   5.489  18.765  0.00  0.00    +0.000 A 
ATOM      6  C   UNL     1       2.112   6.256  19.781  0.00  0.00    +0.000 A 
ATOM      7  C   UNL     1       1.930   7.639  19.602  0.00  0.00    +0.000 A 
ATOM      8  C   UNL     1       1.593   5.627  21.047  0.00  0.00    +0.000 C 
ATOM      9  C   UNL     1       2.231   4.287  21.348  0.00  0.00    +0.000 C 
ATOM     10  C   UNL     1       2.334   3.461  20.079  0.00  0.00    +0.000 C 
ATOM     11  N   UNL     1       3.125   4.144  19.047  0.00  0.00    +0.000 N 
ATOM     12  C   UNL     1       4.154   3.390  18.440  0.00  0.00    +0.000 C 
ATOM     13  O   UNL     1       4.297   2.185  18.672  0.00  0.00    +0.000 OA
ENDROOT
BRANCH  12  14
ATOM     14  C   UNL     1       5.150   3.964  17.502  0.00  0.00    +0.000 A 
ATOM     15  C   UNL     1       6.266   4.583  18.063  0.00  0.00    +0.000 A 
ATOM     16  N   UNL     1       7.341   5.010  17.352  0.00  0.00    +0.000 NA
ATOM     17  C   UNL     1       7.297   4.806  16.016  0.00  0.00    +0.000 A 
ATOM     18  C   UNL     1       6.198   4.268  15.362  0.00  0.00    +0.000 A 
ATOM     19 BR   UNL     1       6.267   3.914  13.510  0.00  0.00    +0.000 Br
ATOM     20  C   UNL     1       5.079   3.904  16.109  0.00  0.00    +0.000 A 
ENDBRANCH  12  14
TORSDOF 1
ENDMDL
MODEL 4
REMARK VINA RESULT:      -7.2      1.467      1.820
REMARK  Name = 
REMARK  2 active torsions:
REMARK  status: ('A' for Active; 'I' for Inactive)
REMARK    1  A    between atoms: C_1  and  C_2
REMARK    2  A    between atoms: C_12  and  C_14
REMARK                            x       y       z     vdW  Elec       q    Type
REMARK                         _______ _______ _______ _____ _____    ______ ____
ROOT
ATOM      1  C   UNL     1       1.911   9.875  18.031  0.00  0.00    +0.000 C 
ATOM      2  C   UNL     1       2.260   8.438  18.270  0.00  0.00    +0.000 A 
ATOM      3  C   UNL     1       3.020   7.720  17.352  0.00  0.00    +0.000 A 
ATOM      4  C   UNL     1       3.395   6.400  17.620  0.00  0.00    +0.000 A 
ATOM      5  C   UNL     1       3.091   5.793  18.842  0.00  0.00    +0.000 A 
ATOM      6  C   UNL     1       2.183   6.456  19.694  0.00  0.00    +0.000 A 
ATOM      7  C   UNL     1       1.791   7.776  19.410  0.00  0.00    +0.000 A 
ATOM      8  C   UNL     1       1.566   5.770  20.885  0.00  0.00    +0.000 C 
ATOM      9  C   UNL     1       2.371   4.580  21.365  0.00  0.00    +0.000 C 
ATOM     10  C   UNL     1       2.847   3.759  20.181  0.00  0.00    +0.000 C 
ATOM     11  N   UNL     1       3.675   4.554  19.264  0.00  0.00    +0.000 N 
ATOM     12  C   UNL     1       4.915   3.992  18.886  0.00  0.00    +0.000 C 
ATOM     13  O   UNL     1       5.228   2.841  19.206  0.00  0.00    +0.000 OA
ENDROOT
BRANCH  12  14
ATOM     14  C   UNL     1       5.943   4.721  18.103  0.00  0.00    +0.000 A 
ATOM     15  C   UNL     1       6.251   4.219  16.840  0.00  0.00    +0.000 A 
ATOM     16  N   UNL     1       7.042   4.856  15.937  0.00  0.00    +0.000 NA
ATOM     17  C   UNL     1       7.546   6.050  16.318  0.00  0.00    +0.000 A 
ATOM     18  C   UNL     1       7.357   6.591  17.582  0.00  0.00    +0.000 A 
ATOM     19 BR   UNL     1       8.003   8.316  17.990  0.00  0.00    +0.000 Br
ATOM     20  C   UNL     1       6.599   5.883  18.513  0.00  0.00    +0.000 A 
ENDBRANCH  12  14
TORSDOF 1
ENDMDL
MODEL 5
REMARK VINA RESULT:      -6.7      2.047      5.319
REMARK  Name = 
REMARK  2 active torsions:
REMARK  status: ('A' for Active; 'I' for Inactive)
REMARK    1  A    between atoms: C_1  and  C_2
REMARK    2  A    between atoms: C_12  and  C_14
REMARK                            x       y       z     vdW  Elec       q    Type
REMARK                         _______ _______ _______ _____ _____    ______ ____
ROOT
ATOM      1  C   UNL     1       8.398   7.690  18.764  0.00  0.00    +0.000 C 
ATOM      2  C   UNL     1       7.519   6.597  18.236  0.00  0.00    +0.000 A 
ATOM      3  C   UNL     1       6.754   5.812  19.093  0.00  0.00    +0.000 A 
ATOM      4  C   UNL     1       5.888   4.840  18.581  0.00  0.00    +0.000 A 
ATOM      5  C   UNL     1       5.705   4.685  17.204  0.00  0.00    +0.000 A 
ATOM      6  C   UNL     1       6.599   5.357  16.344  0.00  0.00    +0.000 A 
ATOM      7  C   UNL     1       7.484   6.317  16.866  0.00  0.00    +0.000 A 
ATOM      8  C   UNL     1       6.679   5.037  14.875  0.00  0.00    +0.000 C 
ATOM      9  C   UNL     1       5.425   4.374  14.344  0.00  0.00    +0.000 C 
ATOM     10  C   UNL     1       4.935   3.322  15.322  0.00  0.00    +0.000 C 
ATOM     11  N   UNL     1       4.646   3.899  16.642  0.00  0.00    +0.000 N 
ATOM     12  C   UNL     1       3.390   3.583  17.206  0.00  0.00    +0.000 C 
ATOM     13  O   UNL     1       2.630   2.766  16.678  0.00  0.00    +0.000 OA
ENDROOT
BRANCH  12  14
ATOM     14  C   UNL     1       2.867   4.204  18.448  0.00  0.00    +0.000 A 
ATOM     15  C   UNL     1       2.881   3.422  19.602  0.00  0.00    +0.000 A 
ATOM     16  N   UNL     1       2.594   3.889  20.845  0.00  0.00    +0.000 NA
ATOM     17  C   UNL     1       2.281   5.200  20.936  0.00  0.00    +0.000 A 
ATOM     18  C   UNL     1       2.167   6.036  19.834  0.00  0.00    +0.000 A 
ATOM     19 BR   UNL     1       1.836   7.880  20.063  0.00  0.00    +0.000 Br
ATOM     20  C   UNL     1       2.398   5.514  18.563  0.00  0.00    +0.000 A 
ENDBRANCH  12  14
TORSDOF 1
ENDMDL
MODEL 6
REMARK VINA RESULT:      -6.6      1.029      1.147
REMARK  Name = 
REMARK  2 active torsions:
REMARK  status: ('A' for Active; 'I' for Inactive)
REMARK    1  A    between atoms: C_1  and  C_2
REMARK    2  A    between atoms: C_12  and  C_14
REMARK                            x       y       z     vdW  Elec       q    Type
REMARK                         _______ _______ _______ _____ _____    ______ ____
ROOT
ATOM      1  C   UNL     1       1.442   7.635  21.309  0.00  0.00    +0.000 C 
ATOM      2  C   UNL     1       1.769   6.574  20.303  0.00  0.00    +0.000 A 
ATOM      3  C   UNL     1       2.425   6.885  19.116  0.00  0.00    +0.000 A 
ATOM      4  C   UNL     1       2.783   5.875  18.217  0.00  0.00    +0.000 A 
ATOM      5  C   UNL     1       2.569   4.527  18.518  0.00  0.00    +0.000 A 
ATOM      6  C   UNL     1       1.759   4.226  19.633  0.00  0.00    +0.000 A 
ATOM      7  C   UNL     1       1.381   5.248  20.522  0.00  0.00    +0.000 A 
ATOM      8  C   UNL     1       1.228   2.838  19.877  0.00  0.00    +0.000 C 
ATOM      9  C   UNL     1       2.036   1.764  19.178  0.00  0.00    +0.000 C 
ATOM     10  C   UNL     1       2.384   2.205  17.768  0.00  0.00    +0.000 C 
ATOM     11  N   UNL     1       3.152   3.457  17.763  0.00  0.00    +0.000 N 
ATOM     12  C   UNL     1       4.337   3.467  16.995  0.00  0.00    +0.000 C 
ATOM     13  O   UNL     1       4.644   2.518  16.266  0.00  0.00    +0.000 OA
ENDROOT
BRANCH  12  14
ATOM     14  C   UNL     1       5.315   4.583  17.005  0.00  0.00    +0.000 A 
ATOM     15  C   UNL     1       5.162   5.567  16.029  0.00  0.00    +0.000 A 
ATOM     16  N   UNL     1       5.864   6.730  16.001  0.00  0.00    +0.000 NA
ATOM     17  C   UNL     1       6.759   6.915  16.997  0.00  0.00    +0.000 A 
ATOM     18  C   UNL     1       7.032   5.959  17.964  0.00  0.00    +0.000 A 
ATOM     19 BR   UNL     1       8.215   6.347  19.383  0.00  0.00    +0.000 Br
ATOM     20  C   UNL     1       6.348   4.746  17.929  0.00  0.00    +0.000 A 
ENDBRANCH  12  14
TORSDOF 1
ENDMDL
MODEL 7
REMARK VINA RESULT:      -6.2      2.363      5.448
REMARK  Name = 
REMARK  2 active torsions:
REMARK  status: ('A' for Active; 'I' for Inactive)
REMARK    1  A    between atoms: C_1  and  C_2
REMARK    2  A    between atoms: C_12  and  C_14
REMARK                            x       y       z     vdW  Elec       q    Type
REMARK                         _______ _______ _______ _____ _____    ______ ____
ROOT
ATOM      1  C   UNL     1       8.409   7.978  18.623  0.00  0.00    +0.000 C 
ATOM      2  C   UNL     1       7.633   6.801  18.115  0.00  0.00    +0.000 A 
ATOM      3  C   UNL     1       6.975   5.941  18.989  0.00  0.00    +0.000 A 
ATOM      4  C   UNL     1       6.200   4.887  18.497  0.00  0.00    +0.000 A 
ATOM      5  C   UNL     1       5.996   4.715  17.125  0.00  0.00    +0.000 A 
ATOM      6  C   UNL     1       6.793   5.475  16.244  0.00  0.00    +0.000 A 
ATOM      7  C   UNL     1       7.590   6.521  16.745  0.00  0.00    +0.000 A 
ATOM      8  C   UNL     1       6.867   5.167  14.772  0.00  0.00    +0.000 C 
ATOM      9  C   UNL     1       5.673   4.380  14.271  0.00  0.00    +0.000 C 
ATOM     10  C   UNL     1       5.319   3.283  15.258  0.00  0.00    +0.000 C 
ATOM     11  N   UNL     1       5.009   3.826  16.588  0.00  0.00    +0.000 N 
ATOM     12  C   UNL     1       3.806   3.383  17.184  0.00  0.00    +0.000 C 
ATOM     13  O   UNL     1       3.120   2.492  16.673  0.00  0.00    +0.000 OA
ENDROOT
BRANCH  12  14
ATOM     14  C   UNL     1       3.257   3.946  18.442  0.00  0.00    +0.000 A 
ATOM     15  C   UNL     1       2.905   5.294  18.432  0.00  0.00    +0.000 A 
ATOM     16  N   UNL     1       2.241   5.918  19.440  0.00  0.00    +0.000 NA
ATOM     17  C   UNL     1       1.914   5.155  20.506  0.00  0.00    +0.000 A 
ATOM     18  C   UNL     1       2.289   3.825  20.637  0.00  0.00    +0.000 A 
ATOM     19 BR   UNL     1       1.692   2.804  22.107  0.00  0.00    +0.000 Br
ATOM     20  C   UNL     1       3.031   3.229  19.619  0.00  0.00    +0.000 A 
ENDBRANCH  12  14
TORSDOF 1
ENDMDL
MODEL 8
REMARK VINA RESULT:      -6.1      1.783      2.354
REMARK  Name = 
REMARK  2 active torsions:
REMARK  status: ('A' for Active; 'I' for Inactive)
REMARK    1  A    between atoms: C_1  and  C_2
REMARK    2  A    between atoms: C_12  and  C_14
REMARK                            x       y       z     vdW  Elec       q    Type
REMARK                         _______ _______ _______ _____ _____    ______ ____
ROOT
ATOM      1  C   UNL     1       1.082   7.331  21.468  0.00  0.00    +0.000 C 
ATOM      2  C   UNL     1       1.700   6.572  20.333  0.00  0.00    +0.000 A 
ATOM      3  C   UNL     1       2.735   7.120  19.581  0.00  0.00    +0.000 A 
ATOM      4  C   UNL     1       3.347   6.375  18.568  0.00  0.00    +0.000 A 
ATOM      5  C   UNL     1       2.999   5.041  18.337  0.00  0.00    +0.000 A 
ATOM      6  C   UNL     1       1.845   4.546  18.979  0.00  0.00    +0.000 A 
ATOM      7  C   UNL     1       1.218   5.307  19.981  0.00  0.00    +0.000 A 
ATOM      8  C   UNL     1       1.218   3.235  18.584  0.00  0.00    +0.000 C 
ATOM      9  C   UNL     1       2.181   2.308  17.872  0.00  0.00    +0.000 C 
ATOM     10  C   UNL     1       3.007   3.087  16.864  0.00  0.00    +0.000 C 
ATOM     11  N   UNL     1       3.770   4.167  17.504  0.00  0.00    +0.000 N 
ATOM     12  C   UNL     1       5.148   4.233  17.196  0.00  0.00    +0.000 C 
ATOM     13  O   UNL     1       5.655   3.504  16.339  0.00  0.00    +0.000 OA
ENDROOT
BRANCH  12  14
ATOM     14  C   UNL     1       6.098   5.151  17.872  0.00  0.00    +0.000 A 
ATOM     15  C   UNL     1       6.827   4.633  18.942  0.00  0.00    +0.000 A 
ATOM     16  N   UNL     1       7.847   5.285  19.557  0.00  0.00    +0.000 NA
ATOM     17  C   UNL     1       8.152   6.511  19.078  0.00  0.00    +0.000 A 
ATOM     18  C   UNL     1       7.433   7.137  18.070  0.00  0.00    +0.000 A 
ATOM     19 BR   UNL     1       7.998   8.803  17.386  0.00  0.00    +0.000 Br
ATOM     20  C   UNL     1       6.346   6.475  17.504  0.00  0.00    +0.000 A 
ENDBRANCH  12  14
TORSDOF 1
ENDMDL
MODEL 9
REMARK VINA RESULT:      -6.0      3.270      5.664
REMARK  Name = 
REMARK  2 active torsions:
REMARK  status: ('A' for Active; 'I' for Inactive)
REMARK    1  A    between atoms: C_1  and  C_2
REMARK    2  A    between atoms: C_12  and  C_14
REMARK                            x       y       z     vdW  Elec       q    Type
REMARK                         _______ _______ _______ _____ _____    ______ ____
ROOT
ATOM      1  C   UNL     1       1.442   2.430  21.880  0.00  0.00    +0.000 C 
ATOM      2  C   UNL     1       1.919   3.314  20.768  0.00  0.00    +0.000 A 
ATOM      3  C   UNL     1       1.075   4.254  20.185  0.00  0.00    +0.000 A 
ATOM      4  C   UNL     1       1.553   5.118  19.194  0.00  0.00    +0.000 A 
ATOM      5  C   UNL     1       2.901   5.119  18.821  0.00  0.00    +0.000 A 
ATOM      6  C   UNL     1       3.710   4.061  19.286  0.00  0.00    +0.000 A 
ATOM      7  C   UNL     1       3.218   3.180  20.266  0.00  0.00    +0.000 A 
ATOM      8  C   UNL     1       5.081   3.803  18.720  0.00  0.00    +0.000 C 
ATOM      9  C   UNL     1       5.686   5.021  18.053  0.00  0.00    +0.000 C 
ATOM     10  C   UNL     1       4.640   5.729  17.211  0.00  0.00    +0.000 C 
ATOM     11  N   UNL     1       3.486   6.151  18.017  0.00  0.00    +0.000 N 
ATOM     12  C   UNL     1       3.076   7.496  17.876  0.00  0.00    +0.000 C 
ATOM     13  O   UNL     1       3.579   8.239  17.027  0.00  0.00    +0.000 OA
ENDROOT
BRANCH  12  14
ATOM     14  C   UNL     1       2.041   8.133  18.726  0.00  0.00    +0.000 A 
ATOM     15  C   UNL     1       2.070   7.837  20.088  0.00  0.00    +0.000 A 
ATOM     16  N   UNL     1       1.303   8.460  21.020  0.00  0.00    +0.000 NA
ATOM     17  C   UNL     1       0.471   9.423  20.567  0.00  0.00    +0.000 A 
ATOM     18  C   UNL     1       0.319   9.731  19.223  0.00  0.00    +0.000 A 
ATOM     19 BR   UNL     1      -0.781  11.169  18.690  0.00  0.00    +0.000 Br
ATOM     20  C   UNL     1       1.067   9.029  18.280  0.00  0.00    +0.000 A 
ENDBRANCH  12  14
TORSDOF 1
ENDMDL
