MODEL 1
REMARK VINA RESULT:      -7.4      0.000      0.000
REMARK  Name = 
REMARK  10 active torsions:
REMARK  status: ('A' for Active; 'I' for Inactive)
REMARK    1  A    between atoms: C_1  and  C_2
REMARK    2  A    between atoms: C_7  and  C_8
REMARK    3  A    between atoms: C_8  and  N_9
REMARK    4  A    between atoms: N_12  and  C_13
REMARK    5  A    between atoms: C_13  and  C_14
REMARK    6  A    between atoms: C_13  and  C_15
REMARK    7  A    between atoms: C_15  and  C_16
REMARK    8  A    between atoms: C_17  and  C_18
REMARK    9  A    between atoms: N_20  and  C_21
REMARK   10  A    between atoms: C_22  and  C_23
REMARK                            x       y       z     vdW  Elec       q    Type
REMARK                         _______ _______ _______ _____ _____    ______ ____
ROOT
ATOM      1  N   UNL     1       8.637   9.034  18.429  0.00  0.00    +0.000 N 
ATOM      2  C   UNL     1       7.696   8.162  17.954  0.00  0.00    +0.000 C 
ATOM      3  O   UNL     1       6.840   8.466  17.139  0.00  0.00    +0.000 OA
ATOM      4  N   UNL     1       7.861   6.910  18.490  0.00  0.00    +0.000 N 
ATOM      5  H   UNL     1       9.497   8.648  18.799  0.00  0.00    +0.000 HD
ATOM      6  H   UNL     1       8.388   6.858  19.348  0.00  0.00    +0.000 HD
ENDROOT
BRANCH   4   7
ATOM      7  C   UNL     1       7.017   5.778  18.109  0.00  0.00    +0.000 C 
ATOM      8  C   UNL     1       7.914   4.577  17.776  0.00  0.00    +0.000 C 
BRANCH   7   9
ATOM      9  C   UNL     1       6.025   5.367  19.222  0.00  0.00    +0.000 C 
BRANCH   9  10
ATOM     10  C   UNL     1       4.658   4.962  18.748  0.00  0.00    +0.000 A 
ATOM     11  C   UNL     1       3.699   5.749  18.046  0.00  0.00    +0.000 A 
ATOM     12  C   UNL     1       3.796   7.148  17.560  0.00  0.00    +0.000 C 
ATOM     13  N   UNL     1       2.567   5.076  17.828  0.00  0.00    +0.000 NA
ATOM     14  N   UNL     1       2.779   3.873  18.378  0.00  0.00    +0.000 N 
ATOM     15  C   UNL     1       1.726   2.886  18.310  0.00  0.00    +0.000 C 
ATOM     16  C   UNL     1       4.015   3.749  18.959  0.00  0.00    +0.000 A 
ATOM     17  C   UNL     1       4.474   2.524  19.664  0.00  0.00    +0.000 C 
ENDBRANCH   9  10
ENDBRANCH   7   9
ENDBRANCH   4   7
BRANCH   1  18
ATOM     18  C   UNL     1       8.800  10.368  17.878  0.00  0.00    +0.000 C 
BRANCH  18  25
ATOM     19  C   UNL     1       9.089  10.837  20.850  0.00  0.00    +0.000 C 
ATOM     20  C   UNL     1      10.126  11.286  19.864  0.00  0.00    +0.000 A 
ATOM     21  C   UNL     1      11.271  11.952  20.322  0.00  0.00    +0.000 A 
ATOM     22  C   UNL     1      12.247  12.371  19.424  0.00  0.00    +0.000 A 
ATOM     23  C   UNL     1      12.053  12.109  18.083  0.00  0.00    +0.000 A 
ATOM     24  N   UNL     1      10.966  11.477  17.594  0.00  0.00    +0.000 NA
ATOM     25  C   UNL     1      10.012  11.062  18.483  0.00  0.00    +0.000 A 
ENDBRANCH  18  25
ENDBRANCH   1  18
TORSDOF 5
ENDMDL
MODEL 2
REMARK VINA RESULT:      -7.3      3.756      7.312
REMARK  Name = 
REMARK  10 active torsions:
REMARK  status: ('A' for Active; 'I' for Inactive)
REMARK    1  A    between atoms: C_1  and  C_2
REMARK    2  A    between atoms: C_7  and  C_8
REMARK    3  A    between atoms: C_8  and  N_9
REMARK    4  A    between atoms: N_12  and  C_13
REMARK    5  A    between atoms: C_13  and  C_14
REMARK    6  A    between atoms: C_13  and  C_15
REMARK    7  A    between atoms: C_15  and  C_16
REMARK    8  A    between atoms: C_17  and  C_18
REMARK    9  A    between atoms: N_20  and  C_21
REMARK   10  A    between atoms: C_22  and  C_23
REMARK                            x       y       z     vdW  Elec       q    Type
REMARK                         _______ _______ _______ _____ _____    ______ ____
ROOT
ATOM      1  N   UNL     1       2.501   6.933  20.228  0.00  0.00    +0.000 N 
ATOM      2  C   UNL     1       2.668   5.604  19.951  0.00  0.00    +0.000 C 
ATOM      3  O   UNL     1       1.974   4.719  20.427  0.00  0.00    +0.000 OA
ATOM      4  N   UNL     1       3.688   5.406  19.056  0.00  0.00    +0.000 N 
ATOM      5  H   UNL     1       2.846   7.605  19.554  0.00  0.00    +0.000 HD
ATOM      6  H   UNL     1       4.360   6.154  18.973  0.00  0.00    +0.000 HD
ENDROOT
BRANCH   4   7
ATOM      7  C   UNL     1       4.042   4.079  18.552  0.00  0.00    +0.000 C 
ATOM      8  C   UNL     1       3.066   3.696  17.430  0.00  0.00    +0.000 C 
BRANCH   7   9
ATOM      9  C   UNL     1       5.486   4.011  18.004  0.00  0.00    +0.000 C 
BRANCH   9  10
ATOM     10  C   UNL     1       6.132   5.338  17.726  0.00  0.00    +0.000 A 
ATOM     11  C   UNL     1       5.982   6.170  16.578  0.00  0.00    +0.000 A 
ATOM     12  C   UNL     1       5.130   5.981  15.377  0.00  0.00    +0.000 C 
ATOM     13  N   UNL     1       6.749   7.260  16.649  0.00  0.00    +0.000 NA
ATOM     14  N   UNL     1       7.391   7.144  17.820  0.00  0.00    +0.000 N 
ATOM     15  C   UNL     1       8.315   8.185  18.208  0.00  0.00    +0.000 C 
ATOM     16  C   UNL     1       7.071   6.001  18.507  0.00  0.00    +0.000 A 
ATOM     17  C   UNL     1       7.676   5.630  19.812  0.00  0.00    +0.000 C 
ENDBRANCH   9  10
ENDBRANCH   7   9
ENDBRANCH   4   7
BRANCH   1  18
ATOM     18  C   UNL     1       1.369   7.424  20.995  0.00  0.00    +0.000 C 
BRANCH  18  25
ATOM     19  C   UNL     1      -0.073   9.371  22.803  0.00  0.00    +0.000 C 
ATOM     20  C   UNL     1       0.286   9.709  21.386  0.00  0.00    +0.000 A 
ATOM     21  C   UNL     1      -0.057  10.965  20.868  0.00  0.00    +0.000 A 
ATOM     22  C   UNL     1       0.272  11.299  19.559  0.00  0.00    +0.000 A 
ATOM     23  C   UNL     1       0.943  10.364  18.798  0.00  0.00    +0.000 A 
ATOM     24  N   UNL     1       1.290   9.142  19.250  0.00  0.00    +0.000 NA
ATOM     25  C   UNL     1       0.968   8.821  20.540  0.00  0.00    +0.000 A 
ENDBRANCH  18  25
ENDBRANCH   1  18
TORSDOF 5
ENDMDL
MODEL 3
REMARK VINA RESULT:      -7.2      1.134      1.546
REMARK  Name = 
REMARK  10 active torsions:
REMARK  status: ('A' for Active; 'I' for Inactive)
REMARK    1  A    between atoms: C_1  and  C_2
REMARK    2  A    between atoms: C_7  and  C_8
REMARK    3  A    between atoms: C_8  and  N_9
REMARK    4  A    between atoms: N_12  and  C_13
REMARK    5  A    between atoms: C_13  and  C_14
REMARK    6  A    between atoms: C_13  and  C_15
REMARK    7  A    between atoms: C_15  and  C_16
REMARK    8  A    between atoms: C_17  and  C_18
REMARK    9  A    between atoms: N_20  and  C_21
REMARK   10  A    between atoms: C_22  and  C_23
REMARK                            x       y       z     vdW  Elec       q    Type
REMARK                         _______ _______ _______ _____ _____    ______ ____
ROOT
ATOM      1  N   UNL     1       8.625   8.939  18.402  0.00  0.00    +0.000 N 
ATOM      2  C   UNL     1       7.713   8.061  17.887  0.00  0.00    +0.000 C 
ATOM      3  O   UNL     1       6.973   8.321  16.951  0.00  0.00    +0.000 OA
ATOM      4  N   UNL     1       7.761   6.854  18.537  0.00  0.00    +0.000 N 
ATOM      5  H   UNL     1       9.418   8.560  18.903  0.00  0.00    +0.000 HD
ATOM      6  H   UNL     1       8.180   6.858  19.454  0.00  0.00    +0.000 HD
ENDROOT
BRANCH   4   7
ATOM      7  C   UNL     1       6.923   5.720  18.148  0.00  0.00    +0.000 C 
ATOM      8  C   UNL     1       7.827   4.538  17.768  0.00  0.00    +0.000 C 
BRANCH   7   9
ATOM      9  C   UNL     1       5.959   5.272  19.272  0.00  0.00    +0.000 C 
BRANCH   9  10
ATOM     10  C   UNL     1       4.584   4.874  18.818  0.00  0.00    +0.000 A 
ATOM     11  C   UNL     1       3.626   5.659  18.113  0.00  0.00    +0.000 A 
ATOM     12  C   UNL     1       3.731   7.049  17.603  0.00  0.00    +0.000 C 
ATOM     13  N   UNL     1       2.484   4.995  17.918  0.00  0.00    +0.000 NA
ATOM     14  N   UNL     1       2.690   3.798  18.486  0.00  0.00    +0.000 N 
ATOM     15  C   UNL     1       1.626   2.821  18.445  0.00  0.00    +0.000 C 
ATOM     16  C   UNL     1       3.930   3.671  19.056  0.00  0.00    +0.000 A 
ATOM     17  C   UNL     1       4.383   2.453  19.777  0.00  0.00    +0.000 C 
ENDBRANCH   9  10
ENDBRANCH   7   9
ENDBRANCH   4   7
BRANCH   1  18
ATOM     18  C   UNL     1       8.907  10.217  17.769  0.00  0.00    +0.000 C 
BRANCH  18  25
ATOM     19  C   UNL     1       8.142  13.125  17.460  0.00  0.00    +0.000 C 
ATOM     20  C   UNL     1       8.913  12.621  18.644  0.00  0.00    +0.000 A 
ATOM     21  C   UNL     1       9.303  13.519  19.646  0.00  0.00    +0.000 A 
ATOM     22  C   UNL     1      10.013  13.071  20.755  0.00  0.00    +0.000 A 
ATOM     23  C   UNL     1      10.315  11.726  20.834  0.00  0.00    +0.000 A 
ATOM     24  N   UNL     1       9.966  10.825  19.894  0.00  0.00    +0.000 NA
ATOM     25  C   UNL     1       9.263  11.272  18.808  0.00  0.00    +0.000 A 
ENDBRANCH  18  25
ENDBRANCH   1  18
TORSDOF 5
ENDMDL
MODEL 4
REMARK VINA RESULT:      -7.2      6.073      9.692
REMARK  Name = 
REMARK  10 active torsions:
REMARK  status: ('A' for Active; 'I' for Inactive)
REMARK    1  A    between atoms: C_1  and  C_2
REMARK    2  A    between atoms: C_7  and  C_8
REMARK    3  A    between atoms: C_8  and  N_9
REMARK    4  A    between atoms: N_12  and  C_13
REMARK    5  A    between atoms: C_13  and  C_14
REMARK    6  A    between atoms: C_13  and  C_15
REMARK    7  A    between atoms: C_15  and  C_16
REMARK    8  A    between atoms: C_17  and  C_18
REMARK    9  A    between atoms: N_20  and  C_21
REMARK   10  A    between atoms: C_22  and  C_23
REMARK                            x       y       z     vdW  Elec       q    Type
REMARK                         _______ _______ _______ _____ _____    ______ ____
ROOT
ATOM      1  N   UNL     1       2.450   7.281  18.893  0.00  0.00    +0.000 N 
ATOM      2  C   UNL     1       2.027   8.493  18.423  0.00  0.00    +0.000 C 
ATOM      3  O   UNL     1       2.360   8.956  17.344  0.00  0.00    +0.000 OA
ATOM      4  N   UNL     1       1.166   9.096  19.304  0.00  0.00    +0.000 N 
ATOM      5  H   UNL     1       1.878   6.815  19.586  0.00  0.00    +0.000 HD
ATOM      6  H   UNL     1       1.204   8.771  20.258  0.00  0.00    +0.000 HD
ENDROOT
BRANCH   4   7
ATOM      7  C   UNL     1       0.525  10.380  19.020  0.00  0.00    +0.000 C 
ATOM      8  C   UNL     1      -0.989  10.165  18.884  0.00  0.00    +0.000 C 
BRANCH   7   9
ATOM      9  C   UNL     1       0.784  11.436  20.120  0.00  0.00    +0.000 C 
BRANCH   9  10
ATOM     10  C   UNL     1      -0.137  11.367  21.305  0.00  0.00    +0.000 A 
ATOM     11  C   UNL     1      -0.121  10.433  22.382  0.00  0.00    +0.000 A 
ATOM     12  C   UNL     1       0.815   9.313  22.650  0.00  0.00    +0.000 C 
ATOM     13  N   UNL     1      -1.123  10.643  23.239  0.00  0.00    +0.000 NA
ATOM     14  N   UNL     1      -1.784  11.694  22.732  0.00  0.00    +0.000 N 
ATOM     15  C   UNL     1      -2.944  12.187  23.438  0.00  0.00    +0.000 C 
ATOM     16  C   UNL     1      -1.245  12.165  21.562  0.00  0.00    +0.000 A 
ATOM     17  C   UNL     1      -1.818  13.298  20.791  0.00  0.00    +0.000 C 
ENDBRANCH   9  10
ENDBRANCH   7   9
ENDBRANCH   4   7
BRANCH   1  18
ATOM     18  C   UNL     1       3.214   6.359  18.070  0.00  0.00    +0.000 C 
BRANCH  18  25
ATOM     19  C   UNL     1       4.397   4.025  16.555  0.00  0.00    +0.000 C 
ATOM     20  C   UNL     1       3.267   3.859  17.528  0.00  0.00    +0.000 A 
ATOM     21  C   UNL     1       2.729   2.584  17.748  0.00  0.00    +0.000 A 
ATOM     22  C   UNL     1       1.685   2.408  18.651  0.00  0.00    +0.000 A 
ATOM     23  C   UNL     1       1.206   3.518  19.316  0.00  0.00    +0.000 A 
ATOM     24  N   UNL     1       1.688   4.765  19.135  0.00  0.00    +0.000 NA
ATOM     25  C   UNL     1       2.718   4.930  18.249  0.00  0.00    +0.000 A 
ENDBRANCH  18  25
ENDBRANCH   1  18
TORSDOF 5
ENDMDL
MODEL 5
REMARK VINA RESULT:      -7.2      1.049      2.377
REMARK  Name = 
REMARK  10 active torsions:
REMARK  status: ('A' for Active; 'I' for Inactive)
REMARK    1  A    between atoms: C_1  and  C_2
REMARK    2  A    between atoms: C_7  and  C_8
REMARK    3  A    between atoms: C_8  and  N_9
REMARK    4  A    between atoms: N_12  and  C_13
REMARK    5  A    between atoms: C_13  and  C_14
REMARK    6  A    between atoms: C_13  and  C_15
REMARK    7  A    between atoms: C_15  and  C_16
REMARK    8  A    between atoms: C_17  and  C_18
REMARK    9  A    between atoms: N_20  and  C_21
REMARK   10  A    between atoms: C_22  and  C_23
REMARK                            x       y       z     vdW  Elec       q    Type
REMARK                         _______ _______ _______ _____ _____    ______ ____
ROOT
ATOM      1  N   UNL     1       8.718   8.710  18.652  0.00  0.00    +0.000 N 
ATOM      2  C   UNL     1       7.796   7.884  18.071  0.00  0.00    +0.000 C 
ATOM      3  O   UNL     1       7.120   8.196  17.104  0.00  0.00    +0.000 OA
ATOM      4  N   UNL     1       7.755   6.664  18.698  0.00  0.00    +0.000 N 
ATOM      5  H   UNL     1       9.466   8.285  19.186  0.00  0.00    +0.000 HD
ATOM      6  H   UNL     1       8.124   6.632  19.635  0.00  0.00    +0.000 HD
ENDROOT
BRANCH   4   7
ATOM      7  C   UNL     1       6.889   5.577  18.240  0.00  0.00    +0.000 C 
ATOM      8  C   UNL     1       7.746   4.524  17.524  0.00  0.00    +0.000 C 
BRANCH   7   9
ATOM      9  C   UNL     1       6.121   4.896  19.397  0.00  0.00    +0.000 C 
BRANCH   9  10
ATOM     10  C   UNL     1       4.732   4.432  19.061  0.00  0.00    +0.000 A 
ATOM     11  C   UNL     1       4.113   3.190  19.386  0.00  0.00    +0.000 A 
ATOM     12  C   UNL     1       4.643   2.045  20.168  0.00  0.00    +0.000 C 
ATOM     13  N   UNL     1       2.881   3.099  18.881  0.00  0.00    +0.000 NA
ATOM     14  N   UNL     1       2.697   4.260  18.235  0.00  0.00    +0.000 N 
ATOM     15  C   UNL     1       1.436   4.486  17.567  0.00  0.00    +0.000 C 
ATOM     16  C   UNL     1       3.781   5.097  18.296  0.00  0.00    +0.000 A 
ATOM     17  C   UNL     1       3.834   6.424  17.630  0.00  0.00    +0.000 C 
ENDBRANCH   9  10
ENDBRANCH   7   9
ENDBRANCH   4   7
BRANCH   1  18
ATOM     18  C   UNL     1       9.091   9.985  18.063  0.00  0.00    +0.000 C 
BRANCH  18  25
ATOM     19  C   UNL     1      11.420  11.849  17.573  0.00  0.00    +0.000 C 
ATOM     20  C   UNL     1      10.700  11.794  18.889  0.00  0.00    +0.000 A 
ATOM     21  C   UNL     1      11.114  12.627  19.936  0.00  0.00    +0.000 A 
ATOM     22  C   UNL     1      10.456  12.596  21.161  0.00  0.00    +0.000 A 
ATOM     23  C   UNL     1       9.393  11.729  21.307  0.00  0.00    +0.000 A 
ATOM     24  N   UNL     1       8.960  10.905  20.330  0.00  0.00    +0.000 NA
ATOM     25  C   UNL     1       9.609  10.945  19.125  0.00  0.00    +0.000 A 
ENDBRANCH  18  25
ENDBRANCH   1  18
TORSDOF 5
ENDMDL
MODEL 6
REMARK VINA RESULT:      -7.1      6.410     10.051
REMARK  Name = 
REMARK  10 active torsions:
REMARK  status: ('A' for Active; 'I' for Inactive)
REMARK    1  A    between atoms: C_1  and  C_2
REMARK    2  A    between atoms: C_7  and  C_8
REMARK    3  A    between atoms: C_8  and  N_9
REMARK    4  A    between atoms: N_12  and  C_13
REMARK    5  A    between atoms: C_13  and  C_14
REMARK    6  A    between atoms: C_13  and  C_15
REMARK    7  A    between atoms: C_15  and  C_16
REMARK    8  A    between atoms: C_17  and  C_18
REMARK    9  A    between atoms: N_20  and  C_21
REMARK   10  A    between atoms: C_22  and  C_23
REMARK                            x       y       z     vdW  Elec       q    Type
REMARK                         _______ _______ _______ _____ _____    ______ ____
ROOT
ATOM      1  N   UNL     1       2.235   7.244  19.678  0.00  0.00    +0.000 N 
ATOM      2  C   UNL     1       1.825   8.395  19.064  0.00  0.00    +0.000 C 
ATOM      3  O   UNL     1       1.997   8.630  17.878  0.00  0.00    +0.000 OA
ATOM      4  N   UNL     1       1.178   9.225  19.943  0.00  0.00    +0.000 N 
ATOM      5  H   UNL     1       1.761   6.965  20.527  0.00  0.00    +0.000 HD
ATOM      6  H   UNL     1       1.359   9.067  20.922  0.00  0.00    +0.000 HD
ENDROOT
BRANCH   4   7
ATOM      7  C   UNL     1       0.593  10.501  19.529  0.00  0.00    +0.000 C 
ATOM      8  C   UNL     1      -0.889  10.284  19.192  0.00  0.00    +0.000 C 
BRANCH   7   9
ATOM      9  C   UNL     1       0.703  11.593  20.619  0.00  0.00    +0.000 C 
BRANCH   9  10
ATOM     10  C   UNL     1      -0.445  11.654  21.586  0.00  0.00    +0.000 A 
ATOM     11  C   UNL     1      -0.729  10.779  22.675  0.00  0.00    +0.000 A 
ATOM     12  C   UNL     1       0.036   9.609  23.174  0.00  0.00    +0.000 C 
ATOM     13  N   UNL     1      -1.866  11.107  23.294  0.00  0.00    +0.000 NA
ATOM     14  N   UNL     1      -2.318  12.175  22.622  0.00  0.00    +0.000 N 
ATOM     15  C   UNL     1      -3.555  12.788  23.050  0.00  0.00    +0.000 C 
ATOM     16  C   UNL     1      -1.513  12.543  21.575  0.00  0.00    +0.000 A 
ATOM     17  C   UNL     1      -1.818  13.673  20.661  0.00  0.00    +0.000 C 
ENDBRANCH   9  10
ENDBRANCH   7   9
ENDBRANCH   4   7
BRANCH   1  18
ATOM     18  C   UNL     1       2.774   6.121  18.930  0.00  0.00    +0.000 C 
BRANCH  18  25
ATOM     19  C   UNL     1       2.199   3.615  17.340  0.00  0.00    +0.000 C 
ATOM     20  C   UNL     1       2.125   3.648  18.838  0.00  0.00    +0.000 A 
ATOM     21  C   UNL     1       1.774   2.486  19.537  0.00  0.00    +0.000 A 
ATOM     22  C   UNL     1       1.706   2.494  20.927  0.00  0.00    +0.000 A 
ATOM     23  C   UNL     1       1.996   3.672  21.585  0.00  0.00    +0.000 A 
ATOM     24  N   UNL     1       2.334   4.816  20.956  0.00  0.00    +0.000 NA
ATOM     25  C   UNL     1       2.404   4.800  19.590  0.00  0.00    +0.000 A 
ENDBRANCH  18  25
ENDBRANCH   1  18
TORSDOF 5
ENDMDL
MODEL 7
REMARK VINA RESULT:      -7.1      4.713      7.432
REMARK  Name = 
REMARK  10 active torsions:
REMARK  status: ('A' for Active; 'I' for Inactive)
REMARK    1  A    between atoms: C_1  and  C_2
REMARK    2  A    between atoms: C_7  and  C_8
REMARK    3  A    between atoms: C_8  and  N_9
REMARK    4  A    between atoms: N_12  and  C_13
REMARK    5  A    between atoms: C_13  and  C_14
REMARK    6  A    between atoms: C_13  and  C_15
REMARK    7  A    between atoms: C_15  and  C_16
REMARK    8  A    between atoms: C_17  and  C_18
REMARK    9  A    between atoms: N_20  and  C_21
REMARK   10  A    between atoms: C_22  and  C_23
REMARK                            x       y       z     vdW  Elec       q    Type
REMARK                         _______ _______ _______ _____ _____    ______ ____
ROOT
ATOM      1  N   UNL     1       2.161   7.220  17.832  0.00  0.00    +0.000 N 
ATOM      2  C   UNL     1       3.384   6.614  17.759  0.00  0.00    +0.000 C 
ATOM      3  O   UNL     1       4.443   7.222  17.744  0.00  0.00    +0.000 OA
ATOM      4  N   UNL     1       3.263   5.248  17.733  0.00  0.00    +0.000 N 
ATOM      5  H   UNL     1       1.385   6.680  18.195  0.00  0.00    +0.000 HD
ATOM      6  H   UNL     1       2.365   4.885  17.452  0.00  0.00    +0.000 HD
ENDROOT
BRANCH   4   7
ATOM      7  C   UNL     1       4.424   4.358  17.707  0.00  0.00    +0.000 C 
ATOM      8  C   UNL     1       4.232   3.256  18.758  0.00  0.00    +0.000 C 
BRANCH   7   9
ATOM      9  C   UNL     1       4.645   3.699  16.326  0.00  0.00    +0.000 C 
BRANCH   9  10
ATOM     10  C   UNL     1       5.793   4.249  15.527  0.00  0.00    +0.000 A 
ATOM     11  C   UNL     1       6.925   4.977  15.996  0.00  0.00    +0.000 A 
ATOM     12  C   UNL     1       7.302   5.352  17.382  0.00  0.00    +0.000 C 
ATOM     13  N   UNL     1       7.724   5.354  14.995  0.00  0.00    +0.000 NA
ATOM     14  N   UNL     1       7.125   4.885  13.891  0.00  0.00    +0.000 N 
ATOM     15  C   UNL     1       7.749   5.125  12.611  0.00  0.00    +0.000 C 
ATOM     16  C   UNL     1       5.952   4.223  14.147  0.00  0.00    +0.000 A 
ATOM     17  C   UNL     1       5.088   3.642  13.087  0.00  0.00    +0.000 C 
ENDBRANCH   9  10
ENDBRANCH   7   9
ENDBRANCH   4   7
BRANCH   1  18
ATOM     18  C   UNL     1       2.020   8.647  18.063  0.00  0.00    +0.000 C 
BRANCH  18  25
ATOM     19  C   UNL     1      -0.308  10.561  18.306  0.00  0.00    +0.000 C 
ATOM     20  C   UNL     1       0.246   9.820  19.487  0.00  0.00    +0.000 A 
ATOM     21  C   UNL     1      -0.322  10.015  20.752  0.00  0.00    +0.000 A 
ATOM     22  C   UNL     1       0.173   9.333  21.858  0.00  0.00    +0.000 A 
ATOM     23  C   UNL     1       1.229   8.465  21.668  0.00  0.00    +0.000 A 
ATOM     24  N   UNL     1       1.812   8.247  20.471  0.00  0.00    +0.000 NA
ATOM     25  C   UNL     1       1.316   8.917  19.386  0.00  0.00    +0.000 A 
ENDBRANCH  18  25
ENDBRANCH   1  18
TORSDOF 5
ENDMDL
MODEL 8
REMARK VINA RESULT:      -7.0      5.084      7.854
REMARK  Name = 
REMARK  10 active torsions:
REMARK  status: ('A' for Active; 'I' for Inactive)
REMARK    1  A    between atoms: C_1  and  C_2
REMARK    2  A    between atoms: C_7  and  C_8
REMARK    3  A    between atoms: C_8  and  N_9
REMARK    4  A    between atoms: N_12  and  C_13
REMARK    5  A    between atoms: C_13  and  C_14
REMARK    6  A    between atoms: C_13  and  C_15
REMARK    7  A    between atoms: C_15  and  C_16
REMARK    8  A    between atoms: C_17  and  C_18
REMARK    9  A    between atoms: N_20  and  C_21
REMARK   10  A    between atoms: C_22  and  C_23
REMARK                            x       y       z     vdW  Elec       q    Type
REMARK                         _______ _______ _______ _____ _____    ______ ____
ROOT
ATOM      1  N   UNL     1       3.336   6.064  19.983  0.00  0.00    +0.000 N 
ATOM      2  C   UNL     1       2.301   6.893  19.651  0.00  0.00    +0.000 C 
ATOM      3  O   UNL     1       1.921   7.080  18.506  0.00  0.00    +0.000 OA
ATOM      4  N   UNL     1       1.735   7.455  20.768  0.00  0.00    +0.000 N 
ATOM      5  H   UNL     1       3.359   5.686  20.922  0.00  0.00    +0.000 HD
ATOM      6  H   UNL     1       2.305   7.465  21.599  0.00  0.00    +0.000 HD
ENDROOT
BRANCH   4   7
ATOM      7  C   UNL     1       0.574   8.342  20.696  0.00  0.00    +0.000 C 
ATOM      8  C   UNL     1      -0.040   8.475  22.096  0.00  0.00    +0.000 C 
BRANCH   7   9
ATOM      9  C   UNL     1       0.929   9.752  20.169  0.00  0.00    +0.000 C 
BRANCH   9  10
ATOM     10  C   UNL     1      -0.244  10.650  19.897  0.00  0.00    +0.000 A 
ATOM     11  C   UNL     1      -1.089  10.675  18.749  0.00  0.00    +0.000 A 
ATOM     12  C   UNL     1      -1.072   9.812  17.542  0.00  0.00    +0.000 C 
ATOM     13  N   UNL     1      -2.006  11.643  18.825  0.00  0.00    +0.000 NA
ATOM     14  N   UNL     1      -1.765  12.242  20.001  0.00  0.00    +0.000 N 
ATOM     15  C   UNL     1      -2.602  13.351  20.396  0.00  0.00    +0.000 C 
ATOM     16  C   UNL     1      -0.709  11.697  20.684  0.00  0.00    +0.000 A 
ATOM     17  C   UNL     1      -0.225  12.207  21.993  0.00  0.00    +0.000 C 
ENDBRANCH   9  10
ENDBRANCH   7   9
ENDBRANCH   4   7
BRANCH   1  18
ATOM     18  C   UNL     1       3.978   5.202  19.005  0.00  0.00    +0.000 C 
BRANCH  18  25
ATOM     19  C   UNL     1       4.729   6.714  16.498  0.00  0.00    +0.000 C 
ATOM     20  C   UNL     1       5.738   6.352  17.547  0.00  0.00    +0.000 A 
ATOM     21  C   UNL     1       7.079   6.717  17.370  0.00  0.00    +0.000 A 
ATOM     22  C   UNL     1       8.028   6.396  18.334  0.00  0.00    +0.000 A 
ATOM     23  C   UNL     1       7.608   5.717  19.460  0.00  0.00    +0.000 A 
ATOM     24  N   UNL     1       6.331   5.340  19.673  0.00  0.00    +0.000 NA
ATOM     25  C   UNL     1       5.401   5.663  18.723  0.00  0.00    +0.000 A 
ENDBRANCH  18  25
ENDBRANCH   1  18
TORSDOF 5
ENDMDL
MODEL 9
REMARK VINA RESULT:      -7.0      5.409      8.263
REMARK  Name = 
REMARK  10 active torsions:
REMARK  status: ('A' for Active; 'I' for Inactive)
REMARK    1  A    between atoms: C_1  and  C_2
REMARK    2  A    between atoms: C_7  and  C_8
REMARK    3  A    between atoms: C_8  and  N_9
REMARK    4  A    between atoms: N_12  and  C_13
REMARK    5  A    between atoms: C_13  and  C_14
REMARK    6  A    between atoms: C_13  and  C_15
REMARK    7  A    between atoms: C_15  and  C_16
REMARK    8  A    between atoms: C_17  and  C_18
REMARK    9  A    between atoms: N_20  and  C_21
REMARK   10  A    between atoms: C_22  and  C_23
REMARK                            x       y       z     vdW  Elec       q    Type
REMARK                         _______ _______ _______ _____ _____    ______ ____
ROOT
ATOM      1  N   UNL     1       2.567   7.061  18.853  0.00  0.00    +0.000 N 
ATOM      2  C   UNL     1       2.148   8.268  18.366  0.00  0.00    +0.000 C 
ATOM      3  O   UNL     1       2.317   8.629  17.212  0.00  0.00    +0.000 OA
ATOM      4  N   UNL     1       1.497   8.995  19.329  0.00  0.00    +0.000 N 
ATOM      5  H   UNL     1       2.096   6.689  19.669  0.00  0.00    +0.000 HD
ATOM      6  H   UNL     1       1.680   8.734  20.286  0.00  0.00    +0.000 HD
ENDROOT
BRANCH   4   7
ATOM      7  C   UNL     1       0.902  10.304  19.055  0.00  0.00    +0.000 C 
ATOM      8  C   UNL     1      -0.610  10.133  18.853  0.00  0.00    +0.000 C 
BRANCH   7   9
ATOM      9  C   UNL     1       1.143  11.322  20.194  0.00  0.00    +0.000 C 
BRANCH   9  10
ATOM     10  C   UNL     1       0.159  11.263  21.328  0.00  0.00    +0.000 A 
ATOM     11  C   UNL     1       0.092  10.314  22.389  0.00  0.00    +0.000 A 
ATOM     12  C   UNL     1       0.981   9.164  22.688  0.00  0.00    +0.000 C 
ATOM     13  N   UNL     1      -0.948  10.541  23.195  0.00  0.00    +0.000 NA
ATOM     14  N   UNL     1      -1.552  11.617  22.670  0.00  0.00    +0.000 N 
ATOM     15  C   UNL     1      -2.734  12.133  23.322  0.00  0.00    +0.000 C 
ATOM     16  C   UNL     1      -0.939  12.088  21.538  0.00  0.00    +0.000 A 
ATOM     17  C   UNL     1      -1.438  13.248  20.755  0.00  0.00    +0.000 C 
ENDBRANCH   9  10
ENDBRANCH   7   9
ENDBRANCH   4   7
BRANCH   1  18
ATOM     18  C   UNL     1       3.113   6.028  17.989  0.00  0.00    +0.000 C 
BRANCH  18  25
ATOM     19  C   UNL     1       4.943   6.845  15.727  0.00  0.00    +0.000 C 
ATOM     20  C   UNL     1       5.468   6.339  17.038  0.00  0.00    +0.000 A 
ATOM     21  C   UNL     1       6.851   6.230  17.232  0.00  0.00    +0.000 A 
ATOM     22  C   UNL     1       7.356   5.769  18.443  0.00  0.00    +0.000 A 
ATOM     23  C   UNL     1       6.460   5.427  19.435  0.00  0.00    +0.000 A 
ATOM     24  N   UNL     1       5.121   5.509  19.293  0.00  0.00    +0.000 NA
ATOM     25  C   UNL     1       4.630   5.969  18.102  0.00  0.00    +0.000 A 
ENDBRANCH  18  25
ENDBRANCH   1  18
TORSDOF 5
ENDMDL
