MODEL 1
REMARK VINA RESULT:      -6.7      0.000      0.000
REMARK  Name = 
REMARK  3 active torsions:
REMARK  status: ('A' for Active; 'I' for Inactive)
REMARK    1  A    between atoms: C_2  and  OXT_3
REMARK    2  A    between atoms: C_2  and  CA_4
REMARK    3  A    between atoms: C_6  and  O_7
REMARK                            x       y       z     vdW  Elec       q    Type
REMARK                         _______ _______ _______ _____ _____    ______ ____
ROOT
ATOM      1  CA  UNL     1       2.471   4.037  20.457  0.00  0.00    +0.000 A 
ATOM      2  C   UNL     1       1.956   5.299  20.647  0.00  0.00    +0.000 A 
ATOM      3  C   UNL     1       2.344   6.277  19.744  0.00  0.00    +0.000 A 
ATOM      4  C   UNL     1       3.223   5.997  18.659  0.00  0.00    +0.000 A 
ATOM      5  C   UNL     1       3.690   6.915  17.667  0.00  0.00    +0.000 A 
ATOM      6 CL   UNL     1       3.264   8.595  17.644  0.00  0.00    +0.000 Cl
ATOM      7  C   UNL     1       4.534   6.503  16.632  0.00  0.00    +0.000 A 
ATOM      8  C   UNL     1       4.935   5.181  16.568  0.00  0.00    +0.000 A 
ATOM      9  I   UNL     1       6.165   4.547  15.018  0.00  0.00    +0.000 I 
ATOM     10  C   UNL     1       4.510   4.274  17.535  0.00  0.00    +0.000 A 
ATOM     11  C   UNL     1       3.669   4.654  18.572  0.00  0.00    +0.000 A 
ATOM     12  N   UNL     1       3.317   3.694  19.447  0.00  0.00    +0.000 NA
ENDROOT
BRANCH   1  14
ATOM     13  O   UNL     1       2.903   2.330  22.089  0.00  0.00    +0.000 OA
ATOM     14  C   UNL     1       2.108   2.940  21.400  0.00  0.00    +0.000 C 
BRANCH  14  15
ATOM     15  OXT UNL     1       0.773   2.714  21.382  0.00  0.00    +0.000 OA
ATOM     16  HXT UNL     1       0.320   3.425  21.892  0.00  0.00    +0.000 HD
ENDBRANCH  14  15
ENDBRANCH   1  14
BRANCH   3  17
ATOM     17  O   UNL     1       1.845   7.540  19.919  0.00  0.00    +0.000 OA
ATOM     18  H   UNL     1       1.944   8.068  19.110  0.00  0.00    +0.000 HD
ENDBRANCH   3  17
TORSDOF 3
ENDMDL
MODEL 2
REMARK VINA RESULT:      -6.5      4.074      5.565
REMARK  Name = 
REMARK  3 active torsions:
REMARK  status: ('A' for Active; 'I' for Inactive)
REMARK    1  A    between atoms: C_2  and  OXT_3
REMARK    2  A    between atoms: C_2  and  CA_4
REMARK    3  A    between atoms: C_6  and  O_7
REMARK                            x       y       z     vdW  Elec       q    Type
REMARK                         _______ _______ _______ _____ _____    ______ ____
ROOT
ATOM      1  CA  UNL     1       5.858   4.854  16.022  0.00  0.00    +0.000 A 
ATOM      2  C   UNL     1       5.751   3.828  16.933  0.00  0.00    +0.000 A 
ATOM      3  C   UNL     1       4.888   4.025  18.001  0.00  0.00    +0.000 A 
ATOM      4  C   UNL     1       4.132   5.222  18.150  0.00  0.00    +0.000 A 
ATOM      5  C   UNL     1       3.213   5.538  19.198  0.00  0.00    +0.000 A 
ATOM      6 CL   UNL     1       2.881   4.478  20.529  0.00  0.00    +0.000 Cl
ATOM      7  C   UNL     1       2.509   6.746  19.213  0.00  0.00    +0.000 A 
ATOM      8  C   UNL     1       2.710   7.661  18.195  0.00  0.00    +0.000 A 
ATOM      9  I   UNL     1       1.650   9.447  18.187  0.00  0.00    +0.000 I 
ATOM     10  C   UNL     1       3.616   7.383  17.175  0.00  0.00    +0.000 A 
ATOM     11  C   UNL     1       4.326   6.191  17.133  0.00  0.00    +0.000 A 
ATOM     12  N   UNL     1       5.170   6.026  16.099  0.00  0.00    +0.000 NA
ENDROOT
BRANCH   1  14
ATOM     13  O   UNL     1       7.692   5.480  14.605  0.00  0.00    +0.000 OA
ATOM     14  C   UNL     1       6.780   4.716  14.858  0.00  0.00    +0.000 C 
BRANCH  14  15
ATOM     15  OXT UNL     1       6.460   3.628  14.119  0.00  0.00    +0.000 OA
ATOM     16  HXT UNL     1       7.081   3.565  13.356  0.00  0.00    +0.000 HD
ENDBRANCH  14  15
ENDBRANCH   1  14
BRANCH   3  17
ATOM     17  O   UNL     1       4.772   3.017  18.920  0.00  0.00    +0.000 OA
ATOM     18  H   UNL     1       5.484   2.363  18.810  0.00  0.00    +0.000 HD
ENDBRANCH   3  17
TORSDOF 3
ENDMDL
MODEL 3
REMARK VINA RESULT:      -6.5      2.636      3.203
REMARK  Name = 
REMARK  3 active torsions:
REMARK  status: ('A' for Active; 'I' for Inactive)
REMARK    1  A    between atoms: C_2  and  OXT_3
REMARK    2  A    between atoms: C_2  and  CA_4
REMARK    3  A    between atoms: C_6  and  O_7
REMARK                            x       y       z     vdW  Elec       q    Type
REMARK                         _______ _______ _______ _____ _____    ______ ____
ROOT
ATOM      1  CA  UNL     1       2.777   3.743  20.297  0.00  0.00    +0.000 A 
ATOM      2  C   UNL     1       3.827   3.296  19.529  0.00  0.00    +0.000 A 
ATOM      3  C   UNL     1       4.313   4.165  18.564  0.00  0.00    +0.000 A 
ATOM      4  C   UNL     1       3.766   5.467  18.377  0.00  0.00    +0.000 A 
ATOM      5  C   UNL     1       4.182   6.449  17.424  0.00  0.00    +0.000 A 
ATOM      6 CL   UNL     1       5.453   6.187  16.275  0.00  0.00    +0.000 Cl
ATOM      7  C   UNL     1       3.576   7.707  17.362  0.00  0.00    +0.000 A 
ATOM      8  C   UNL     1       2.547   8.009  18.236  0.00  0.00    +0.000 A 
ATOM      9  I   UNL     1       1.657   9.886  18.176  0.00  0.00    +0.000 I 
ATOM     10  C   UNL     1       2.113   7.061  19.158  0.00  0.00    +0.000 A 
ATOM     11  C   UNL     1       2.697   5.805  19.244  0.00  0.00    +0.000 A 
ATOM     12  N   UNL     1       2.201   4.971  20.176  0.00  0.00    +0.000 NA
ENDROOT
BRANCH   1  14
ATOM     13  O   UNL     1       2.845   2.242  22.170  0.00  0.00    +0.000 OA
ATOM     14  C   UNL     1       2.195   2.853  21.343  0.00  0.00    +0.000 C 
BRANCH  14  15
ATOM     15  OXT UNL     1       0.845   2.814  21.244  0.00  0.00    +0.000 OA
ATOM     16  HXT UNL     1       0.564   1.886  21.065  0.00  0.00    +0.000 HD
ENDBRANCH  14  15
ENDBRANCH   1  14
BRANCH   3  17
ATOM     17  O   UNL     1       5.355   3.736  17.787  0.00  0.00    +0.000 OA
ATOM     18  H   UNL     1       5.864   4.489  17.441  0.00  0.00    +0.000 HD
ENDBRANCH   3  17
TORSDOF 3
ENDMDL
MODEL 4
REMARK VINA RESULT:      -6.5      3.923      5.411
REMARK  Name = 
REMARK  3 active torsions:
REMARK  status: ('A' for Active; 'I' for Inactive)
REMARK    1  A    between atoms: C_2  and  OXT_3
REMARK    2  A    between atoms: C_2  and  CA_4
REMARK    3  A    between atoms: C_6  and  O_7
REMARK                            x       y       z     vdW  Elec       q    Type
REMARK                         _______ _______ _______ _____ _____    ______ ____
ROOT
ATOM      1  CA  UNL     1       5.652   5.046  16.545  0.00  0.00    +0.000 A 
ATOM      2  C   UNL     1       5.494   4.041  17.472  0.00  0.00    +0.000 A 
ATOM      3  C   UNL     1       4.574   4.263  18.486  0.00  0.00    +0.000 A 
ATOM      4  C   UNL     1       3.813   5.463  18.566  0.00  0.00    +0.000 A 
ATOM      5  C   UNL     1       2.837   5.803  19.555  0.00  0.00    +0.000 A 
ATOM      6 CL   UNL     1       2.431   4.773  20.889  0.00  0.00    +0.000 Cl
ATOM      7  C   UNL     1       2.136   7.011  19.503  0.00  0.00    +0.000 A 
ATOM      8  C   UNL     1       2.394   7.903  18.477  0.00  0.00    +0.000 A 
ATOM      9  I   UNL     1       1.338   9.688  18.370  0.00  0.00    +0.000 I 
ATOM     10  C   UNL     1       3.354   7.601  17.515  0.00  0.00    +0.000 A 
ATOM     11  C   UNL     1       4.063   6.409  17.540  0.00  0.00    +0.000 A 
ATOM     12  N   UNL     1       4.963   6.220  16.557  0.00  0.00    +0.000 NA
ENDROOT
BRANCH   1  14
ATOM     13  O   UNL     1       6.570   4.024  14.576  0.00  0.00    +0.000 OA
ATOM     14  C   UNL     1       6.636   4.882  15.437  0.00  0.00    +0.000 C 
BRANCH  14  15
ATOM     15  OXT UNL     1       7.616   5.812  15.523  0.00  0.00    +0.000 OA
ATOM     16  HXT UNL     1       8.473   5.361  15.705  0.00  0.00    +0.000 HD
ENDBRANCH  14  15
ENDBRANCH   1  14
BRANCH   3  17
ATOM     17  O   UNL     1       4.406   3.276  19.420  0.00  0.00    +0.000 OA
ATOM     18  H   UNL     1       5.258   3.020  19.812  0.00  0.00    +0.000 HD
ENDBRANCH   3  17
TORSDOF 3
ENDMDL
MODEL 5
REMARK VINA RESULT:      -6.3      2.529      4.314
REMARK  Name = 
REMARK  3 active torsions:
REMARK  status: ('A' for Active; 'I' for Inactive)
REMARK    1  A    between atoms: C_2  and  OXT_3
REMARK    2  A    between atoms: C_2  and  CA_4
REMARK    3  A    between atoms: C_6  and  O_7
REMARK                            x       y       z     vdW  Elec       q    Type
REMARK                         _______ _______ _______ _____ _____    ______ ____
ROOT
ATOM      1  CA  UNL     1       2.308   8.057  18.673  0.00  0.00    +0.000 A 
ATOM      2  C   UNL     1       2.099   7.256  19.772  0.00  0.00    +0.000 A 
ATOM      3  C   UNL     1       2.751   6.032  19.790  0.00  0.00    +0.000 A 
ATOM      4  C   UNL     1       3.611   5.621  18.732  0.00  0.00    +0.000 A 
ATOM      5  C   UNL     1       4.337   4.393  18.639  0.00  0.00    +0.000 A 
ATOM      6 CL   UNL     1       4.260   3.143  19.838  0.00  0.00    +0.000 Cl
ATOM      7  C   UNL     1       5.174   4.121  17.552  0.00  0.00    +0.000 A 
ATOM      8  C   UNL     1       5.299   5.056  16.540  0.00  0.00    +0.000 A 
ATOM      9  I   UNL     1       6.562   4.679  14.935  0.00  0.00    +0.000 I 
ATOM     10  C   UNL     1       4.584   6.249  16.600  0.00  0.00    +0.000 A 
ATOM     11  C   UNL     1       3.749   6.547  17.668  0.00  0.00    +0.000 A 
ATOM     12  N   UNL     1       3.112   7.731  17.625  0.00  0.00    +0.000 NA
ENDROOT
BRANCH   1  14
ATOM     13  O   UNL     1       0.915   9.852  19.450  0.00  0.00    +0.000 OA
ATOM     14  C   UNL     1       1.625   9.380  18.582  0.00  0.00    +0.000 C 
BRANCH  14  15
ATOM     15  OXT UNL     1       1.897   9.980  17.399  0.00  0.00    +0.000 OA
ATOM     16  HXT UNL     1       1.708  10.945  17.478  0.00  0.00    +0.000 HD
ENDBRANCH  14  15
ENDBRANCH   1  14
BRANCH   3  17
ATOM     17  O   UNL     1       2.552   5.220  20.873  0.00  0.00    +0.000 OA
ATOM     18  H   UNL     1       2.480   4.289  20.601  0.00  0.00    +0.000 HD
ENDBRANCH   3  17
TORSDOF 3
ENDMDL
MODEL 6
REMARK VINA RESULT:      -6.3      3.909      5.521
REMARK  Name = 
REMARK  3 active torsions:
REMARK  status: ('A' for Active; 'I' for Inactive)
REMARK    1  A    between atoms: C_2  and  OXT_3
REMARK    2  A    between atoms: C_2  and  CA_4
REMARK    3  A    between atoms: C_6  and  O_7
REMARK                            x       y       z     vdW  Elec       q    Type
REMARK                         _______ _______ _______ _____ _____    ______ ____
ROOT
ATOM      1  CA  UNL     1       4.534   4.796  16.801  0.00  0.00    +0.000 A 
ATOM      2  C   UNL     1       4.245   3.497  17.150  0.00  0.00    +0.000 A 
ATOM      3  C   UNL     1       3.412   3.311  18.244  0.00  0.00    +0.000 A 
ATOM      4  C   UNL     1       2.865   4.407  18.970  0.00  0.00    +0.000 A 
ATOM      5  C   UNL     1       1.997   4.342  20.104  0.00  0.00    +0.000 A 
ATOM      6 CL   UNL     1       1.474   2.855  20.825  0.00  0.00    +0.000 Cl
ATOM      7  C   UNL     1       1.504   5.501  20.712  0.00  0.00    +0.000 A 
ATOM      8  C   UNL     1       1.869   6.738  20.212  0.00  0.00    +0.000 A 
ATOM      9  I   UNL     1       1.122   8.468  21.086  0.00  0.00    +0.000 I 
ATOM     10  C   UNL     1       2.730   6.824  19.121  0.00  0.00    +0.000 A 
ATOM     11  C   UNL     1       3.232   5.691  18.495  0.00  0.00    +0.000 A 
ATOM     12  N   UNL     1       4.050   5.892  17.447  0.00  0.00    +0.000 NA
ENDROOT
BRANCH   1  14
ATOM     13  O   UNL     1       5.618   6.167  15.154  0.00  0.00    +0.000 OA
ATOM     14  C   UNL     1       5.436   5.068  15.645  0.00  0.00    +0.000 C 
BRANCH  14  15
ATOM     15  OXT UNL     1       6.020   3.926  15.212  0.00  0.00    +0.000 OA
ATOM     16  HXT UNL     1       6.998   4.016  15.292  0.00  0.00    +0.000 HD
ENDBRANCH  14  15
ENDBRANCH   1  14
BRANCH   3  17
ATOM     17  O   UNL     1       3.117   2.025  18.608  0.00  0.00    +0.000 OA
ATOM     18  H   UNL     1       2.343   1.999  19.194  0.00  0.00    +0.000 HD
ENDBRANCH   3  17
TORSDOF 3
ENDMDL
MODEL 7
REMARK VINA RESULT:      -6.3      2.232      3.801
REMARK  Name = 
REMARK  3 active torsions:
REMARK  status: ('A' for Active; 'I' for Inactive)
REMARK    1  A    between atoms: C_2  and  OXT_3
REMARK    2  A    between atoms: C_2  and  CA_4
REMARK    3  A    between atoms: C_6  and  O_7
REMARK                            x       y       z     vdW  Elec       q    Type
REMARK                         _______ _______ _______ _____ _____    ______ ____
ROOT
ATOM      1  CA  UNL     1       2.184   6.721  19.848  0.00  0.00    +0.000 A 
ATOM      2  C   UNL     1       1.802   5.557  20.473  0.00  0.00    +0.000 A 
ATOM      3  C   UNL     1       2.271   4.370  19.929  0.00  0.00    +0.000 A 
ATOM      4  C   UNL     1       3.119   4.347  18.785  0.00  0.00    +0.000 A 
ATOM      5  C   UNL     1       3.665   3.195  18.139  0.00  0.00    +0.000 A 
ATOM      6 CL   UNL     1       3.344   1.570  18.650  0.00  0.00    +0.000 Cl
ATOM      7  C   UNL     1       4.512   3.311  17.033  0.00  0.00    +0.000 A 
ATOM      8  C   UNL     1       4.825   4.568  16.546  0.00  0.00    +0.000 A 
ATOM      9  I   UNL     1       6.106   4.759  14.922  0.00  0.00    +0.000 I 
ATOM     10  C   UNL     1       4.287   5.703  17.147  0.00  0.00    +0.000 A 
ATOM     11  C   UNL     1       3.446   5.618  18.248  0.00  0.00    +0.000 A 
ATOM     12  N   UNL     1       2.989   6.779  18.751  0.00  0.00    +0.000 NA
ENDROOT
BRANCH   1  14
ATOM     13  O   UNL     1       1.315   8.953  19.676  0.00  0.00    +0.000 OA
ATOM     14  C   UNL     1       1.704   8.033  20.371  0.00  0.00    +0.000 C 
BRANCH  14  15
ATOM     15  OXT UNL     1       1.765   8.062  21.723  0.00  0.00    +0.000 OA
ATOM     16  HXT UNL     1       1.323   7.258  22.081  0.00  0.00    +0.000 HD
ENDBRANCH  14  15
ENDBRANCH   1  14
BRANCH   3  17
ATOM     17  O   UNL     1       1.898   3.201  20.535  0.00  0.00    +0.000 OA
ATOM     18  H   UNL     1       1.392   3.376  21.346  0.00  0.00    +0.000 HD
ENDBRANCH   3  17
TORSDOF 3
ENDMDL
MODEL 8
REMARK VINA RESULT:      -6.3      3.627      4.987
REMARK  Name = 
REMARK  3 active torsions:
REMARK  status: ('A' for Active; 'I' for Inactive)
REMARK    1  A    between atoms: C_2  and  OXT_3
REMARK    2  A    between atoms: C_2  and  CA_4
REMARK    3  A    between atoms: C_6  and  O_7
REMARK                            x       y       z     vdW  Elec       q    Type
REMARK                         _______ _______ _______ _____ _____    ______ ____
ROOT
ATOM      1  CA  UNL     1       5.489   5.139  16.594  0.00  0.00    +0.000 A 
ATOM      2  C   UNL     1       5.145   6.470  16.528  0.00  0.00    +0.000 A 
ATOM      3  C   UNL     1       4.178   6.913  17.419  0.00  0.00    +0.000 A 
ATOM      4  C   UNL     1       3.574   6.043  18.371  0.00  0.00    +0.000 A 
ATOM      5  C   UNL     1       2.576   6.381  19.337  0.00  0.00    +0.000 A 
ATOM      6 CL   UNL     1       1.892   7.967  19.491  0.00  0.00    +0.000 Cl
ATOM      7  C   UNL     1       2.082   5.433  20.238  0.00  0.00    +0.000 A 
ATOM      8  C   UNL     1       2.562   4.136  20.191  0.00  0.00    +0.000 A 
ATOM      9  I   UNL     1       1.860   2.724  21.543  0.00  0.00    +0.000 I 
ATOM     10  C   UNL     1       3.519   3.780  19.244  0.00  0.00    +0.000 A 
ATOM     11  C   UNL     1       4.029   4.701  18.340  0.00  0.00    +0.000 A 
ATOM     12  N   UNL     1       4.954   4.248  17.474  0.00  0.00    +0.000 NA
ENDROOT
BRANCH   1  14
ATOM     13  O   UNL     1       7.413   5.241  15.162  0.00  0.00    +0.000 OA
ATOM     14  C   UNL     1       6.510   4.592  15.655  0.00  0.00    +0.000 C 
BRANCH  14  15
ATOM     15  OXT UNL     1       6.292   3.276  15.422  0.00  0.00    +0.000 OA
ATOM     16  HXT UNL     1       7.095   2.887  15.004  0.00  0.00    +0.000 HD
ENDBRANCH  14  15
ENDBRANCH   1  14
BRANCH   3  17
ATOM     17  O   UNL     1       3.821   8.233  17.366  0.00  0.00    +0.000 OA
ATOM     18  H   UNL     1       3.639   8.580  18.255  0.00  0.00    +0.000 HD
ENDBRANCH   3  17
TORSDOF 3
ENDMDL
MODEL 9
REMARK VINA RESULT:      -6.1      3.893      5.600
REMARK  Name = 
REMARK  3 active torsions:
REMARK  status: ('A' for Active; 'I' for Inactive)
REMARK    1  A    between atoms: C_2  and  OXT_3
REMARK    2  A    between atoms: C_2  and  CA_4
REMARK    3  A    between atoms: C_6  and  O_7
REMARK                            x       y       z     vdW  Elec       q    Type
REMARK                         _______ _______ _______ _____ _____    ______ ____
ROOT
ATOM      1  CA  UNL     1       5.265   5.414  17.118  0.00  0.00    +0.000 A 
ATOM      2  C   UNL     1       5.187   4.081  17.452  0.00  0.00    +0.000 A 
ATOM      3  C   UNL     1       4.309   3.740  18.471  0.00  0.00    +0.000 A 
ATOM      4  C   UNL     1       3.511   4.714  19.136  0.00  0.00    +0.000 A 
ATOM      5  C   UNL     1       2.573   4.486  20.191  0.00  0.00    +0.000 A 
ATOM      6 CL   UNL     1       2.268   2.923  20.877  0.00  0.00    +0.000 Cl
ATOM      7  C   UNL     1       1.828   5.531  20.743  0.00  0.00    +0.000 A 
ATOM      8  C   UNL     1       2.005   6.818  20.265  0.00  0.00    +0.000 A 
ATOM      9  I   UNL     1       0.883   8.377  21.055  0.00  0.00    +0.000 I 
ATOM     10  C   UNL     1       2.928   7.066  19.253  0.00  0.00    +0.000 A 
ATOM     11  C   UNL     1       3.679   6.047  18.684  0.00  0.00    +0.000 A 
ATOM     12  N   UNL     1       4.536   6.400  17.709  0.00  0.00    +0.000 NA
ENDROOT
BRANCH   1  14
ATOM     13  O   UNL     1       7.399   6.004  16.188  0.00  0.00    +0.000 OA
ATOM     14  C   UNL     1       6.200   5.853  16.042  0.00  0.00    +0.000 C 
BRANCH  14  15
ATOM     15  OXT UNL     1       5.533   6.065  14.883  0.00  0.00    +0.000 OA
ATOM     16  HXT UNL     1       4.952   5.290  14.701  0.00  0.00    +0.000 HD
ENDBRANCH  14  15
ENDBRANCH   1  14
BRANCH   3  17
ATOM     17  O   UNL     1       4.222   2.420  18.820  0.00  0.00    +0.000 OA
ATOM     18  H   UNL     1       4.365   2.302  19.774  0.00  0.00    +0.000 HD
ENDBRANCH   3  17
TORSDOF 3
ENDMDL
