MODEL 1
REMARK VINA RESULT:      -7.5      0.000      0.000
REMARK  Name = 
REMARK  12 active torsions:
REMARK  status: ('A' for Active; 'I' for Inactive)
REMARK    1  A    between atoms: C_1  and  O_2
REMARK    2  A    between atoms: O_2  and  C_3
REMARK    3  A    between atoms: C_5  and  N_6
REMARK    4  A    between atoms: C_7  and  C_9
REMARK    5  A    between atoms: C_9  and  C_10
REMARK    6  A    between atoms: C_10  and  C_11
REMARK    7  A    between atoms: C_11  and  N_12
REMARK    8  A    between atoms: C_13  and  C_15
REMARK    9  A    between atoms: C_23  and  O_24
REMARK   10  A    between atoms: O_24  and  C_25
REMARK   11  A    between atoms: C_26  and  O_27
REMARK   12  A    between atoms: O_27  and  C_28
REMARK                            x       y       z     vdW  Elec       q    Type
REMARK                         _______ _______ _______ _____ _____    ______ ____
ROOT
ATOM      1  N   UNL     1       3.574   3.887  17.035  0.00  0.00    +0.000 N 
ATOM      2  C   UNL     1       3.251   2.694  17.663  0.00  0.00    +0.000 C 
ATOM      3  O   UNL     1       3.986   1.723  17.813  0.00  0.00    +0.000 OA
ATOM      4  H   UNL     1       2.901   4.642  17.104  0.00  0.00    +0.000 HD
ENDROOT
BRANCH   1   7
ATOM      5  C   UNL     1       6.030   4.086  14.209  0.00  0.00    +0.000 A 
ATOM      6  C   UNL     1       4.936   3.672  14.989  0.00  0.00    +0.000 A 
ATOM      7  C   UNL     1       4.736   4.157  16.276  0.00  0.00    +0.000 A 
ATOM      8  C   UNL     1       5.702   5.004  16.815  0.00  0.00    +0.000 A 
ATOM      9  C   UNL     1       6.859   5.357  16.093  0.00  0.00    +0.000 A 
ATOM     10  C   UNL     1       7.038   4.896  14.769  0.00  0.00    +0.000 A 
BRANCH   5  12
ATOM     11  C   UNL     1       4.894   3.275  12.293  0.00  0.00    +0.000 C 
ATOM     12  O   UNL     1       6.124   3.685  12.898  0.00  0.00    +0.000 OA
ENDBRANCH   5  12
BRANCH   9  13
ATOM     13  O   UNL     1       7.680   6.176  16.834  0.00  0.00    +0.000 OA
ATOM     14  C   UNL     1       7.162   7.377  17.386  0.00  0.00    +0.000 C 
ENDBRANCH   9  13
BRANCH  10  15
ATOM     15  O   UNL     1       8.197   5.278  14.150  0.00  0.00    +0.000 OA
ATOM     16  C   UNL     1       8.185   5.785  12.826  0.00  0.00    +0.000 C 
ENDBRANCH  10  15
ENDBRANCH   1   7
BRANCH   2  17
ATOM     17  C   UNL     1       1.823   2.646  18.171  0.00  0.00    +0.000 C 
BRANCH  17  18
ATOM     18  C   UNL     1       1.794   2.381  19.672  0.00  0.00    +0.000 C 
BRANCH  18  19
ATOM     19  C   UNL     1       2.558   3.451  20.442  0.00  0.00    +0.000 C 
BRANCH  19  20
ATOM     20  N   UNL     1       2.060   4.777  20.129  0.00  0.00    +0.000 N 
ATOM     21  C   UNL     1       2.916   5.800  19.777  0.00  0.00    +0.000 C 
ATOM     22  O   UNL     1       4.135   5.673  19.742  0.00  0.00    +0.000 OA
ATOM     23  H   UNL     1       1.066   4.944  20.203  0.00  0.00    +0.000 HD
BRANCH  21  24
ATOM     24  C   UNL     1       2.296   7.117  19.463  0.00  0.00    +0.000 A 
ATOM     25  C   UNL     1       1.665   7.816  20.503  0.00  0.00    +0.000 A 
ATOM     26  C   UNL     1       1.073   9.058  20.260  0.00  0.00    +0.000 A 
ATOM     27  C   UNL     1       1.122   9.609  18.982  0.00  0.00    +0.000 A 
ATOM     28 CL   UNL     1       0.398  11.140  18.680  0.00  0.00    +0.000 Cl
ATOM     29  C   UNL     1       1.764   8.931  17.945  0.00  0.00    +0.000 A 
ATOM     30  C   UNL     1       2.355   7.686  18.183  0.00  0.00    +0.000 A 
ENDBRANCH  21  24
ENDBRANCH  19  20
ENDBRANCH  18  19
ENDBRANCH  17  18
ENDBRANCH   2  17
TORSDOF 9
ENDMDL
MODEL 2
REMARK VINA RESULT:      -7.4      1.455      2.078
REMARK  Name = 
REMARK  12 active torsions:
REMARK  status: ('A' for Active; 'I' for Inactive)
REMARK    1  A    between atoms: C_1  and  O_2
REMARK    2  A    between atoms: O_2  and  C_3
REMARK    3  A    between atoms: C_5  and  N_6
REMARK    4  A    between atoms: C_7  and  C_9
REMARK    5  A    between atoms: C_9  and  C_10
REMARK    6  A    between atoms: C_10  and  C_11
REMARK    7  A    between atoms: C_11  and  N_12
REMARK    8  A    between atoms: C_13  and  C_15
REMARK    9  A    between atoms: C_23  and  O_24
REMARK   10  A    between atoms: O_24  and  C_25
REMARK   11  A    between atoms: C_26  and  O_27
REMARK   12  A    between atoms: O_27  and  C_28
REMARK                            x       y       z     vdW  Elec       q    Type
REMARK                         _______ _______ _______ _____ _____    ______ ____
ROOT
ATOM      1  N   UNL     1       3.990   2.705  17.922  0.00  0.00    +0.000 N 
ATOM      2  C   UNL     1       2.621   2.793  17.734  0.00  0.00    +0.000 C 
ATOM      3  O   UNL     1       2.022   3.663  17.108  0.00  0.00    +0.000 OA
ATOM      4  H   UNL     1       4.344   1.859  18.353  0.00  0.00    +0.000 HD
ENDROOT
BRANCH   1   7
ATOM      5  C   UNL     1       6.084   5.181  16.037  0.00  0.00    +0.000 A 
ATOM      6  C   UNL     1       5.233   4.093  16.304  0.00  0.00    +0.000 A 
ATOM      7  C   UNL     1       4.954   3.690  17.604  0.00  0.00    +0.000 A 
ATOM      8  C   UNL     1       5.611   4.338  18.647  0.00  0.00    +0.000 A 
ATOM      9  C   UNL     1       6.545   5.366  18.406  0.00  0.00    +0.000 A 
ATOM     10  C   UNL     1       6.795   5.802  17.085  0.00  0.00    +0.000 A 
BRANCH   5  12
ATOM     11  C   UNL     1       7.043   4.806  13.903  0.00  0.00    +0.000 C 
ATOM     12  O   UNL     1       6.234   5.629  14.747  0.00  0.00    +0.000 OA
ENDBRANCH   5  12
BRANCH   9  13
ATOM     13  O   UNL     1       7.087   5.835  19.580  0.00  0.00    +0.000 OA
ATOM     14  C   UNL     1       8.339   5.335  20.026  0.00  0.00    +0.000 C 
ENDBRANCH   9  13
BRANCH  10  15
ATOM     15  O   UNL     1       7.726   6.794  16.943  0.00  0.00    +0.000 OA
ATOM     16  C   UNL     1       7.483   8.100  17.435  0.00  0.00    +0.000 C 
ENDBRANCH  10  15
ENDBRANCH   1   7
BRANCH   2  17
ATOM     17  C   UNL     1       1.844   1.683  18.414  0.00  0.00    +0.000 C 
BRANCH  17  18
ATOM     18  C   UNL     1       0.662   2.250  19.191  0.00  0.00    +0.000 C 
BRANCH  18  19
ATOM     19  C   UNL     1       1.123   3.099  20.369  0.00  0.00    +0.000 C 
BRANCH  19  20
ATOM     20  N   UNL     1       1.013   4.514  20.069  0.00  0.00    +0.000 N 
ATOM     21  C   UNL     1       2.098   5.359  20.188  0.00  0.00    +0.000 C 
ATOM     22  O   UNL     1       3.197   4.988  20.586  0.00  0.00    +0.000 OA
ATOM     23  H   UNL     1       0.110   4.875  19.795  0.00  0.00    +0.000 HD
BRANCH  21  24
ATOM     24  C   UNL     1       1.876   6.790  19.842  0.00  0.00    +0.000 A 
ATOM     25  C   UNL     1       1.319   7.629  20.818  0.00  0.00    +0.000 A 
ATOM     26  C   UNL     1       1.096   8.980  20.544  0.00  0.00    +0.000 A 
ATOM     27  C   UNL     1       1.441   9.498  19.297  0.00  0.00    +0.000 A 
ATOM     28 CL   UNL     1       1.172  11.163  18.957  0.00  0.00    +0.000 Cl
ATOM     29  C   UNL     1       2.013   8.677  18.326  0.00  0.00    +0.000 A 
ATOM     30  C   UNL     1       2.235   7.322  18.596  0.00  0.00    +0.000 A 
ENDBRANCH  21  24
ENDBRANCH  19  20
ENDBRANCH  18  19
ENDBRANCH  17  18
ENDBRANCH   2  17
TORSDOF 9
ENDMDL
MODEL 3
REMARK VINA RESULT:      -7.4      1.482      2.287
REMARK  Name = 
REMARK  12 active torsions:
REMARK  status: ('A' for Active; 'I' for Inactive)
REMARK    1  A    between atoms: C_1  and  O_2
REMARK    2  A    between atoms: O_2  and  C_3
REMARK    3  A    between atoms: C_5  and  N_6
REMARK    4  A    between atoms: C_7  and  C_9
REMARK    5  A    between atoms: C_9  and  C_10
REMARK    6  A    between atoms: C_10  and  C_11
REMARK    7  A    between atoms: C_11  and  N_12
REMARK    8  A    between atoms: C_13  and  C_15
REMARK    9  A    between atoms: C_23  and  O_24
REMARK   10  A    between atoms: O_24  and  C_25
REMARK   11  A    between atoms: C_26  and  O_27
REMARK   12  A    between atoms: O_27  and  C_28
REMARK                            x       y       z     vdW  Elec       q    Type
REMARK                         _______ _______ _______ _____ _____    ______ ____
ROOT
ATOM      1  N   UNL     1       3.741   2.930  18.163  0.00  0.00    +0.000 N 
ATOM      2  C   UNL     1       2.378   3.085  17.964  0.00  0.00    +0.000 C 
ATOM      3  O   UNL     1       1.831   3.948  17.283  0.00  0.00    +0.000 OA
ATOM      4  H   UNL     1       4.045   2.093  18.647  0.00  0.00    +0.000 HD
ENDROOT
BRANCH   1   7
ATOM      5  C   UNL     1       5.937   5.207  16.148  0.00  0.00    +0.000 A 
ATOM      6  C   UNL     1       5.021   4.189  16.470  0.00  0.00    +0.000 A 
ATOM      7  C   UNL     1       4.760   3.836  17.789  0.00  0.00    +0.000 A 
ATOM      8  C   UNL     1       5.498   4.460  18.793  0.00  0.00    +0.000 A 
ATOM      9  C   UNL     1       6.493   5.412  18.495  0.00  0.00    +0.000 A 
ATOM     10  C   UNL     1       6.726   5.799  17.156  0.00  0.00    +0.000 A 
BRANCH   5  12
ATOM     11  C   UNL     1       6.889   4.775  14.022  0.00  0.00    +0.000 C 
ATOM     12  O   UNL     1       6.073   5.614  14.843  0.00  0.00    +0.000 OA
ENDBRANCH   5  12
BRANCH   9  13
ATOM     13  O   UNL     1       7.107   5.868  19.638  0.00  0.00    +0.000 OA
ATOM     14  C   UNL     1       8.360   5.323  20.028  0.00  0.00    +0.000 C 
ENDBRANCH   9  13
BRANCH  10  15
ATOM     15  O   UNL     1       7.719   6.718  16.958  0.00  0.00    +0.000 OA
ATOM     16  C   UNL     1       7.581   8.053  17.415  0.00  0.00    +0.000 C 
ENDBRANCH  10  15
ENDBRANCH   1   7
BRANCH   2  17
ATOM     17  C   UNL     1       1.538   2.066  18.709  0.00  0.00    +0.000 C 
BRANCH  17  18
ATOM     18  C   UNL     1       0.563   2.759  19.654  0.00  0.00    +0.000 C 
BRANCH  18  19
ATOM     19  C   UNL     1       1.293   3.630  20.669  0.00  0.00    +0.000 C 
BRANCH  19  20
ATOM     20  N   UNL     1       1.085   5.039  20.393  0.00  0.00    +0.000 N 
ATOM     21  C   UNL     1       2.149   5.893  20.182  0.00  0.00    +0.000 C 
ATOM     22  O   UNL     1       3.320   5.535  20.250  0.00  0.00    +0.000 OA
ATOM     23  H   UNL     1       0.138   5.390  20.387  0.00  0.00    +0.000 HD
BRANCH  21  24
ATOM     24  C   UNL     1       1.821   7.316  19.894  0.00  0.00    +0.000 A 
ATOM     25  C   UNL     1       2.118   7.818  18.618  0.00  0.00    +0.000 A 
ATOM     26  C   UNL     1       1.826   9.146  18.297  0.00  0.00    +0.000 A 
ATOM     27  C   UNL     1       1.225   9.971  19.246  0.00  0.00    +0.000 A 
ATOM     28 CL   UNL     1       0.859  11.605  18.852  0.00  0.00    +0.000 Cl
ATOM     29  C   UNL     1       0.909   9.476  20.511  0.00  0.00    +0.000 A 
ATOM     30  C   UNL     1       1.203   8.148  20.838  0.00  0.00    +0.000 A 
ENDBRANCH  21  24
ENDBRANCH  19  20
ENDBRANCH  18  19
ENDBRANCH  17  18
ENDBRANCH   2  17
TORSDOF 9
ENDMDL
MODEL 4
REMARK VINA RESULT:      -7.2      1.605      3.125
REMARK  Name = 
REMARK  12 active torsions:
REMARK  status: ('A' for Active; 'I' for Inactive)
REMARK    1  A    between atoms: C_1  and  O_2
REMARK    2  A    between atoms: O_2  and  C_3
REMARK    3  A    between atoms: C_5  and  N_6
REMARK    4  A    between atoms: C_7  and  C_9
REMARK    5  A    between atoms: C_9  and  C_10
REMARK    6  A    between atoms: C_10  and  C_11
REMARK    7  A    between atoms: C_11  and  N_12
REMARK    8  A    between atoms: C_13  and  C_15
REMARK    9  A    between atoms: C_23  and  O_24
REMARK   10  A    between atoms: O_24  and  C_25
REMARK   11  A    between atoms: C_26  and  O_27
REMARK   12  A    between atoms: O_27  and  C_28
REMARK                            x       y       z     vdW  Elec       q    Type
REMARK                         _______ _______ _______ _____ _____    ______ ____
ROOT
ATOM      1  N   UNL     1       3.718   3.141  18.174  0.00  0.00    +0.000 N 
ATOM      2  C   UNL     1       2.377   3.179  17.828  0.00  0.00    +0.000 C 
ATOM      3  O   UNL     1       1.834   3.998  17.092  0.00  0.00    +0.000 OA
ATOM      4  H   UNL     1       4.040   2.328  18.689  0.00  0.00    +0.000 HD
ENDROOT
BRANCH   1   7
ATOM      5  C   UNL     1       6.496   5.622  18.605  0.00  0.00    +0.000 A 
ATOM      6  C   UNL     1       5.435   4.752  18.912  0.00  0.00    +0.000 A 
ATOM      7  C   UNL     1       4.689   4.135  17.914  0.00  0.00    +0.000 A 
ATOM      8  C   UNL     1       4.962   4.469  16.590  0.00  0.00    +0.000 A 
ATOM      9  C   UNL     1       5.954   5.414  16.256  0.00  0.00    +0.000 A 
ATOM     10  C   UNL     1       6.738   6.007  17.271  0.00  0.00    +0.000 A 
BRANCH   5  12
ATOM     11  C   UNL     1       8.400   5.285  19.976  0.00  0.00    +0.000 C 
ATOM     12  O   UNL     1       7.291   6.111  19.614  0.00  0.00    +0.000 OA
ENDBRANCH   5  12
BRANCH   9  13
ATOM     13  O   UNL     1       6.025   5.604  14.896  0.00  0.00    +0.000 OA
ATOM     14  C   UNL     1       6.856   4.761  14.110  0.00  0.00    +0.000 C 
ENDBRANCH   9  13
BRANCH  10  15
ATOM     15  O   UNL     1       7.667   6.922  16.857  0.00  0.00    +0.000 OA
ATOM     16  C   UNL     1       7.755   8.200  17.462  0.00  0.00    +0.000 C 
ENDBRANCH  10  15
ENDBRANCH   1   7
BRANCH   2  17
ATOM     17  C   UNL     1       1.553   2.084  18.476  0.00  0.00    +0.000 C 
BRANCH  17  18
ATOM     18  C   UNL     1       1.809   2.035  19.978  0.00  0.00    +0.000 C 
BRANCH  18  19
ATOM     19  C   UNL     1       0.855   2.949  20.737  0.00  0.00    +0.000 C 
BRANCH  19  20
ATOM     20  N   UNL     1       0.904   4.303  20.218  0.00  0.00    +0.000 N 
ATOM     21  C   UNL     1       1.849   5.207  20.660  0.00  0.00    +0.000 C 
ATOM     22  O   UNL     1       2.671   4.945  21.532  0.00  0.00    +0.000 OA
ATOM     23  H   UNL     1       0.208   4.580  19.541  0.00  0.00    +0.000 HD
BRANCH  21  24
ATOM     24  C   UNL     1       1.818   6.564  20.050  0.00  0.00    +0.000 A 
ATOM     25  C   UNL     1       1.308   7.622  20.817  0.00  0.00    +0.000 A 
ATOM     26  C   UNL     1       1.262   8.916  20.292  0.00  0.00    +0.000 A 
ATOM     27  C   UNL     1       1.736   9.157  19.004  0.00  0.00    +0.000 A 
ATOM     28 CL   UNL     1       1.684  10.749  18.355  0.00  0.00    +0.000 Cl
ATOM     29  C   UNL     1       2.261   8.114  18.240  0.00  0.00    +0.000 A 
ATOM     30  C   UNL     1       2.307   6.817  18.761  0.00  0.00    +0.000 A 
ENDBRANCH  21  24
ENDBRANCH  19  20
ENDBRANCH  18  19
ENDBRANCH  17  18
ENDBRANCH   2  17
TORSDOF 9
ENDMDL
MODEL 5
REMARK VINA RESULT:      -7.2      1.513      3.244
REMARK  Name = 
REMARK  12 active torsions:
REMARK  status: ('A' for Active; 'I' for Inactive)
REMARK    1  A    between atoms: C_1  and  O_2
REMARK    2  A    between atoms: O_2  and  C_3
REMARK    3  A    between atoms: C_5  and  N_6
REMARK    4  A    between atoms: C_7  and  C_9
REMARK    5  A    between atoms: C_9  and  C_10
REMARK    6  A    between atoms: C_10  and  C_11
REMARK    7  A    between atoms: C_11  and  N_12
REMARK    8  A    between atoms: C_13  and  C_15
REMARK    9  A    between atoms: C_23  and  O_24
REMARK   10  A    between atoms: O_24  and  C_25
REMARK   11  A    between atoms: C_26  and  O_27
REMARK   12  A    between atoms: O_27  and  C_28
REMARK                            x       y       z     vdW  Elec       q    Type
REMARK                         _______ _______ _______ _____ _____    ______ ____
ROOT
ATOM      1  N   UNL     1       4.128   2.797  17.969  0.00  0.00    +0.000 N 
ATOM      2  C   UNL     1       2.771   2.787  17.693  0.00  0.00    +0.000 C 
ATOM      3  O   UNL     1       2.146   3.634  17.061  0.00  0.00    +0.000 OA
ATOM      4  H   UNL     1       4.520   1.963  18.391  0.00  0.00    +0.000 HD
ENDROOT
BRANCH   1   7
ATOM      5  C   UNL     1       6.608   5.551  18.542  0.00  0.00    +0.000 A 
ATOM      6  C   UNL     1       5.602   4.599  18.786  0.00  0.00    +0.000 A 
ATOM      7  C   UNL     1       5.028   3.866  17.754  0.00  0.00    +0.000 A 
ATOM      8  C   UNL     1       5.414   4.160  16.448  0.00  0.00    +0.000 A 
ATOM      9  C   UNL     1       6.347   5.178  16.165  0.00  0.00    +0.000 A 
ATOM     10  C   UNL     1       6.959   5.892  17.219  0.00  0.00    +0.000 A 
BRANCH   5  12
ATOM     11  C   UNL     1       8.405   5.493  20.086  0.00  0.00    +0.000 C 
ATOM     12  O   UNL     1       7.240   6.162  19.598  0.00  0.00    +0.000 OA
ENDBRANCH   5  12
BRANCH   9  13
ATOM     13  O   UNL     1       6.550   5.308  14.811  0.00  0.00    +0.000 OA
ATOM     14  C   UNL     1       6.248   4.221  13.947  0.00  0.00    +0.000 C 
ENDBRANCH   9  13
BRANCH  10  15
ATOM     15  O   UNL     1       7.842   6.870  16.852  0.00  0.00    +0.000 OA
ATOM     16  C   UNL     1       7.758   8.175  17.401  0.00  0.00    +0.000 C 
ENDBRANCH  10  15
ENDBRANCH   1   7
BRANCH   2  17
ATOM     17  C   UNL     1       2.043   1.592  18.277  0.00  0.00    +0.000 C 
BRANCH  17  18
ATOM     18  C   UNL     1       0.748   2.028  18.952  0.00  0.00    +0.000 C 
BRANCH  18  19
ATOM     19  C   UNL     1       1.020   2.878  20.187  0.00  0.00    +0.000 C 
BRANCH  19  20
ATOM     20  N   UNL     1       1.009   4.291  19.861  0.00  0.00    +0.000 N 
ATOM     21  C   UNL     1       1.931   5.160  20.409  0.00  0.00    +0.000 C 
ATOM     22  O   UNL     1       2.781   4.812  21.222  0.00  0.00    +0.000 OA
ATOM     23  H   UNL     1       0.289   4.633  19.241  0.00  0.00    +0.000 HD
BRANCH  21  24
ATOM     24  C   UNL     1       1.838   6.588  19.996  0.00  0.00    +0.000 A 
ATOM     25  C   UNL     1       2.298   6.937  18.718  0.00  0.00    +0.000 A 
ATOM     26  C   UNL     1       2.227   8.262  18.280  0.00  0.00    +0.000 A 
ATOM     27  C   UNL     1       1.686   9.238  19.115  0.00  0.00    +0.000 A 
ATOM     28 CL   UNL     1       1.593  10.870  18.579  0.00  0.00    +0.000 Cl
ATOM     29  C   UNL     1       1.208   8.897  20.381  0.00  0.00    +0.000 A 
ATOM     30  C   UNL     1       1.280   7.572  20.823  0.00  0.00    +0.000 A 
ENDBRANCH  21  24
ENDBRANCH  19  20
ENDBRANCH  18  19
ENDBRANCH  17  18
ENDBRANCH   2  17
TORSDOF 9
ENDMDL
MODEL 6
REMARK VINA RESULT:      -7.1      0.975      2.629
REMARK  Name = 
REMARK  12 active torsions:
REMARK  status: ('A' for Active; 'I' for Inactive)
REMARK    1  A    between atoms: C_1  and  O_2
REMARK    2  A    between atoms: O_2  and  C_3
REMARK    3  A    between atoms: C_5  and  N_6
REMARK    4  A    between atoms: C_7  and  C_9
REMARK    5  A    between atoms: C_9  and  C_10
REMARK    6  A    between atoms: C_10  and  C_11
REMARK    7  A    between atoms: C_11  and  N_12
REMARK    8  A    between atoms: C_13  and  C_15
REMARK    9  A    between atoms: C_23  and  O_24
REMARK   10  A    between atoms: O_24  and  C_25
REMARK   11  A    between atoms: C_26  and  O_27
REMARK   12  A    between atoms: O_27  and  C_28
REMARK                            x       y       z     vdW  Elec       q    Type
REMARK                         _______ _______ _______ _____ _____    ______ ____
ROOT
ATOM      1  N   UNL     1       4.683   2.774  17.350  0.00  0.00    +0.000 N 
ATOM      2  C   UNL     1       3.324   2.763  17.618  0.00  0.00    +0.000 C 
ATOM      3  O   UNL     1       2.447   3.341  16.982  0.00  0.00    +0.000 OA
ATOM      4  H   UNL     1       5.265   2.143  17.889  0.00  0.00    +0.000 HD
ENDROOT
BRANCH   1   7
ATOM      5  C   UNL     1       6.783   5.498  15.857  0.00  0.00    +0.000 A 
ATOM      6  C   UNL     1       5.994   4.784  16.776  0.00  0.00    +0.000 A 
ATOM      7  C   UNL     1       5.356   3.601  16.422  0.00  0.00    +0.000 A 
ATOM      8  C   UNL     1       5.444   3.180  15.097  0.00  0.00    +0.000 A 
ATOM      9  C   UNL     1       6.145   3.928  14.129  0.00  0.00    +0.000 A 
ATOM     10  C   UNL     1       6.827   5.108  14.503  0.00  0.00    +0.000 A 
BRANCH   5  12
ATOM     11  C   UNL     1       7.502   6.816  17.691  0.00  0.00    +0.000 C 
ATOM     12  O   UNL     1       7.500   6.592  16.279  0.00  0.00    +0.000 OA
ENDBRANCH   5  12
BRANCH   9  13
ATOM     13  O   UNL     1       6.071   3.337  12.890  0.00  0.00    +0.000 OA
ATOM     14  C   UNL     1       4.910   3.518  12.092  0.00  0.00    +0.000 C 
ENDBRANCH   9  13
BRANCH  10  15
ATOM     15  O   UNL     1       7.469   5.777  13.497  0.00  0.00    +0.000 OA
ATOM     16  C   UNL     1       8.800   5.449  13.134  0.00  0.00    +0.000 C 
ENDBRANCH  10  15
ENDBRANCH   1   7
BRANCH   2  17
ATOM     17  C   UNL     1       2.955   1.952  18.845  0.00  0.00    +0.000 C 
BRANCH  17  18
ATOM     18  C   UNL     1       1.453   2.005  19.095  0.00  0.00    +0.000 C 
BRANCH  18  19
ATOM     19  C   UNL     1       1.113   2.919  20.266  0.00  0.00    +0.000 C 
BRANCH  19  20
ATOM     20  N   UNL     1       1.089   4.309  19.854  0.00  0.00    +0.000 N 
ATOM     21  C   UNL     1       2.128   5.165  20.155  0.00  0.00    +0.000 C 
ATOM     22  O   UNL     1       3.108   4.826  20.811  0.00  0.00    +0.000 OA
ATOM     23  H   UNL     1       0.273   4.647  19.362  0.00  0.00    +0.000 HD
BRANCH  21  24
ATOM     24  C   UNL     1       2.005   6.568  19.672  0.00  0.00    +0.000 A 
ATOM     25  C   UNL     1       1.495   7.530  20.556  0.00  0.00    +0.000 A 
ATOM     26  C   UNL     1       1.365   8.861  20.152  0.00  0.00    +0.000 A 
ATOM     27  C   UNL     1       1.756   9.235  18.868  0.00  0.00    +0.000 A 
ATOM     28 CL   UNL     1       1.601  10.874  18.368  0.00  0.00    +0.000 Cl
ATOM     29  C   UNL     1       2.282   8.290  17.988  0.00  0.00    +0.000 A 
ATOM     30  C   UNL     1       2.412   6.956  18.387  0.00  0.00    +0.000 A 
ENDBRANCH  21  24
ENDBRANCH  19  20
ENDBRANCH  18  19
ENDBRANCH  17  18
ENDBRANCH   2  17
TORSDOF 9
ENDMDL
MODEL 7
REMARK VINA RESULT:      -7.0      4.042      6.947
REMARK  Name = 
REMARK  12 active torsions:
REMARK  status: ('A' for Active; 'I' for Inactive)
REMARK    1  A    between atoms: C_1  and  O_2
REMARK    2  A    between atoms: O_2  and  C_3
REMARK    3  A    between atoms: C_5  and  N_6
REMARK    4  A    between atoms: C_7  and  C_9
REMARK    5  A    between atoms: C_9  and  C_10
REMARK    6  A    between atoms: C_10  and  C_11
REMARK    7  A    between atoms: C_11  and  N_12
REMARK    8  A    between atoms: C_13  and  C_15
REMARK    9  A    between atoms: C_23  and  O_24
REMARK   10  A    between atoms: O_24  and  C_25
REMARK   11  A    between atoms: C_26  and  O_27
REMARK   12  A    between atoms: O_27  and  C_28
REMARK                            x       y       z     vdW  Elec       q    Type
REMARK                         _______ _______ _______ _____ _____    ______ ____
ROOT
ATOM      1  N   UNL     1       1.713   7.598  20.904  0.00  0.00    +0.000 N 
ATOM      2  C   UNL     1       1.228   8.818  20.463  0.00  0.00    +0.000 C 
ATOM      3  O   UNL     1       0.785   9.070  19.347  0.00  0.00    +0.000 OA
ATOM      4  H   UNL     1       1.926   7.514  21.892  0.00  0.00    +0.000 HD
ENDROOT
BRANCH   1   7
ATOM      5  C   UNL     1       3.133   5.306  18.298  0.00  0.00    +0.000 A 
ATOM      6  C   UNL     1       2.767   6.485  18.970  0.00  0.00    +0.000 A 
ATOM      7  C   UNL     1       1.977   6.456  20.113  0.00  0.00    +0.000 A 
ATOM      8  C   UNL     1       1.478   5.225  20.534  0.00  0.00    +0.000 A 
ATOM      9  C   UNL     1       1.746   4.038  19.823  0.00  0.00    +0.000 A 
ATOM     10  C   UNL     1       2.584   4.066  18.685  0.00  0.00    +0.000 A 
BRANCH   5  12
ATOM     11  C   UNL     1       5.401   5.326  17.610  0.00  0.00    +0.000 C 
ATOM     12  O   UNL     1       4.018   5.365  17.248  0.00  0.00    +0.000 OA
ENDBRANCH   5  12
BRANCH   9  13
ATOM     13  O   UNL     1       1.128   2.956  20.405  0.00  0.00    +0.000 OA
ATOM     14  C   UNL     1       1.504   2.550  21.713  0.00  0.00    +0.000 C 
ENDBRANCH   9  13
BRANCH  10  15
ATOM     15  O   UNL     1       2.779   2.870  18.050  0.00  0.00    +0.000 OA
ATOM     16  C   UNL     1       3.746   1.945  18.514  0.00  0.00    +0.000 C 
ENDBRANCH  10  15
ENDBRANCH   1   7
BRANCH   2  17
ATOM     17  C   UNL     1       1.303   9.913  21.510  0.00  0.00    +0.000 C 
BRANCH  17  18
ATOM     18  C   UNL     1      -0.094  10.319  21.965  0.00  0.00    +0.000 C 
BRANCH  18  19
ATOM     19  C   UNL     1      -0.598  11.537  21.201  0.00  0.00    +0.000 C 
BRANCH  19  20
ATOM     20  N   UNL     1      -1.090  11.164  19.888  0.00  0.00    +0.000 N 
ATOM     21  C   UNL     1      -2.309  11.614  19.424  0.00  0.00    +0.000 C 
ATOM     22  O   UNL     1      -3.063  12.315  20.091  0.00  0.00    +0.000 OA
ATOM     23  H   UNL     1      -0.528  10.539  19.328  0.00  0.00    +0.000 HD
BRANCH  21  24
ATOM     24  C   UNL     1      -2.710  11.181  18.057  0.00  0.00    +0.000 A 
ATOM     25  C   UNL     1      -3.909  11.681  17.531  0.00  0.00    +0.000 A 
ATOM     26  C   UNL     1      -4.327  11.309  16.250  0.00  0.00    +0.000 A 
ATOM     27  C   UNL     1      -3.540  10.446  15.490  0.00  0.00    +0.000 A 
ATOM     28 CL   UNL     1      -4.049   9.988  13.912  0.00  0.00    +0.000 Cl
ATOM     29  C   UNL     1      -2.336   9.958  15.998  0.00  0.00    +0.000 A 
ATOM     30  C   UNL     1      -1.916  10.326  17.281  0.00  0.00    +0.000 A 
ENDBRANCH  21  24
ENDBRANCH  19  20
ENDBRANCH  18  19
ENDBRANCH  17  18
ENDBRANCH   2  17
TORSDOF 9
ENDMDL
MODEL 8
REMARK VINA RESULT:      -6.9      4.090      7.084
REMARK  Name = 
REMARK  12 active torsions:
REMARK  status: ('A' for Active; 'I' for Inactive)
REMARK    1  A    between atoms: C_1  and  O_2
REMARK    2  A    between atoms: O_2  and  C_3
REMARK    3  A    between atoms: C_5  and  N_6
REMARK    4  A    between atoms: C_7  and  C_9
REMARK    5  A    between atoms: C_9  and  C_10
REMARK    6  A    between atoms: C_10  and  C_11
REMARK    7  A    between atoms: C_11  and  N_12
REMARK    8  A    between atoms: C_13  and  C_15
REMARK    9  A    between atoms: C_23  and  O_24
REMARK   10  A    between atoms: O_24  and  C_25
REMARK   11  A    between atoms: C_26  and  O_27
REMARK   12  A    between atoms: O_27  and  C_28
REMARK                            x       y       z     vdW  Elec       q    Type
REMARK                         _______ _______ _______ _____ _____    ______ ____
ROOT
ATOM      1  N   UNL     1       1.585   8.093  21.125  0.00  0.00    +0.000 N 
ATOM      2  C   UNL     1       0.353   8.535  21.577  0.00  0.00    +0.000 C 
ATOM      3  O   UNL     1      -0.715   7.936  21.493  0.00  0.00    +0.000 OA
ATOM      4  H   UNL     1       2.397   8.644  21.382  0.00  0.00    +0.000 HD
ENDROOT
BRANCH   1   7
ATOM      5  C   UNL     1       2.875   5.874  18.391  0.00  0.00    +0.000 A 
ATOM      6  C   UNL     1       2.512   7.034  19.098  0.00  0.00    +0.000 A 
ATOM      7  C   UNL     1       1.834   6.965  20.309  0.00  0.00    +0.000 A 
ATOM      8  C   UNL     1       1.440   5.710  20.769  0.00  0.00    +0.000 A 
ATOM      9  C   UNL     1       1.702   4.538  20.033  0.00  0.00    +0.000 A 
ATOM     10  C   UNL     1       2.428   4.608  18.823  0.00  0.00    +0.000 A 
BRANCH   5  12
ATOM     11  C   UNL     1       4.957   6.533  17.469  0.00  0.00    +0.000 C 
ATOM     12  O   UNL     1       3.655   5.978  17.264  0.00  0.00    +0.000 OA
ENDBRANCH   5  12
BRANCH   9  13
ATOM     13  O   UNL     1       1.196   3.426  20.665  0.00  0.00    +0.000 OA
ATOM     14  C   UNL     1       1.961   2.782  21.674  0.00  0.00    +0.000 C 
ENDBRANCH   9  13
BRANCH  10  15
ATOM     15  O   UNL     1       2.625   3.423  18.168  0.00  0.00    +0.000 OA
ATOM     16  C   UNL     1       3.790   2.648  18.393  0.00  0.00    +0.000 C 
ENDBRANCH  10  15
ENDBRANCH   1   7
BRANCH   2  17
ATOM     17  C   UNL     1       0.398   9.912  22.209  0.00  0.00    +0.000 C 
BRANCH  17  18
ATOM     18  C   UNL     1       0.957  10.937  21.228  0.00  0.00    +0.000 C 
BRANCH  18  19
ATOM     19  C   UNL     1      -0.106  11.942  20.805  0.00  0.00    +0.000 C 
BRANCH  19  20
ATOM     20  N   UNL     1      -0.732  11.547  19.557  0.00  0.00    +0.000 N 
ATOM     21  C   UNL     1      -2.089  11.697  19.356  0.00  0.00    +0.000 C 
ATOM     22  O   UNL     1      -2.850  12.130  20.215  0.00  0.00    +0.000 OA
ATOM     23  H   UNL     1      -0.152  11.130  18.843  0.00  0.00    +0.000 HD
BRANCH  21  24
ATOM     24  C   UNL     1      -2.624  11.272  18.034  0.00  0.00    +0.000 A 
ATOM     25  C   UNL     1      -1.874  10.357  17.280  0.00  0.00    +0.000 A 
ATOM     26  C   UNL     1      -2.335   9.922  16.035  0.00  0.00    +0.000 A 
ATOM     27  C   UNL     1      -3.553  10.392  15.547  0.00  0.00    +0.000 A 
ATOM     28 CL   UNL     1      -4.126   9.857  14.016  0.00  0.00    +0.000 Cl
ATOM     29  C   UNL     1      -4.315  11.288  16.297  0.00  0.00    +0.000 A 
ATOM     30  C   UNL     1      -3.855  11.728  17.542  0.00  0.00    +0.000 A 
ENDBRANCH  21  24
ENDBRANCH  19  20
ENDBRANCH  18  19
ENDBRANCH  17  18
ENDBRANCH   2  17
TORSDOF 9
ENDMDL
MODEL 9
REMARK VINA RESULT:      -6.9      3.100      7.221
REMARK  Name = 
REMARK  12 active torsions:
REMARK  status: ('A' for Active; 'I' for Inactive)
REMARK    1  A    between atoms: C_1  and  O_2
REMARK    2  A    between atoms: O_2  and  C_3
REMARK    3  A    between atoms: C_5  and  N_6
REMARK    4  A    between atoms: C_7  and  C_9
REMARK    5  A    between atoms: C_9  and  C_10
REMARK    6  A    between atoms: C_10  and  C_11
REMARK    7  A    between atoms: C_11  and  N_12
REMARK    8  A    between atoms: C_13  and  C_15
REMARK    9  A    between atoms: C_23  and  O_24
REMARK   10  A    between atoms: O_24  and  C_25
REMARK   11  A    between atoms: C_26  and  O_27
REMARK   12  A    between atoms: O_27  and  C_28
REMARK                            x       y       z     vdW  Elec       q    Type
REMARK                         _______ _______ _______ _____ _____    ______ ____
ROOT
ATOM      1  N   UNL     1       2.490   6.153  20.425  0.00  0.00    +0.000 N 
ATOM      2  C   UNL     1       1.754   4.986  20.560  0.00  0.00    +0.000 C 
ATOM      3  O   UNL     1       0.537   4.872  20.449  0.00  0.00    +0.000 OA
ATOM      4  H   UNL     1       3.500   6.064  20.417  0.00  0.00    +0.000 HD
ENDROOT
BRANCH   1   7
ATOM      5  C   UNL     1       1.085   9.350  19.059  0.00  0.00    +0.000 A 
ATOM      6  C   UNL     1       1.733   8.103  19.118  0.00  0.00    +0.000 A 
ATOM      7  C   UNL     1       1.981   7.468  20.328  0.00  0.00    +0.000 A 
ATOM      8  C   UNL     1       1.649   8.141  21.502  0.00  0.00    +0.000 A 
ATOM      9  C   UNL     1       1.089   9.435  21.478  0.00  0.00    +0.000 A 
ATOM     10  C   UNL     1       0.800  10.060  20.244  0.00  0.00    +0.000 A 
BRANCH   5  12
ATOM     11  C   UNL     1      -0.630   9.742  17.472  0.00  0.00    +0.000 C 
ATOM     12  O   UNL     1       0.744   9.886  17.841  0.00  0.00    +0.000 OA
ENDBRANCH   5  12
BRANCH   9  13
ATOM     13  O   UNL     1       0.873   9.909  22.751  0.00  0.00    +0.000 OA
ATOM     14  C   UNL     1      -0.349   9.615  23.413  0.00  0.00    +0.000 C 
ENDBRANCH   9  13
BRANCH  10  15
ATOM     15  O   UNL     1       0.271  11.319  20.316  0.00  0.00    +0.000 OA
ATOM     16  C   UNL     1      -1.128  11.519  20.422  0.00  0.00    +0.000 C 
ENDBRANCH  10  15
ENDBRANCH   1   7
BRANCH   2  17
ATOM     17  C   UNL     1       2.599   3.774  20.898  0.00  0.00    +0.000 C 
BRANCH  17  18
ATOM     18  C   UNL     1       2.379   2.662  19.879  0.00  0.00    +0.000 C 
BRANCH  18  19
ATOM     19  C   UNL     1       3.676   2.287  19.173  0.00  0.00    +0.000 C 
BRANCH  19  20
ATOM     20  N   UNL     1       4.567   3.428  19.075  0.00  0.00    +0.000 N 
ATOM     21  C   UNL     1       4.852   4.013  17.858  0.00  0.00    +0.000 C 
ATOM     22  O   UNL     1       4.412   3.594  16.792  0.00  0.00    +0.000 OA
ATOM     23  H   UNL     1       5.000   3.770  19.921  0.00  0.00    +0.000 HD
BRANCH  21  24
ATOM     24  C   UNL     1       5.768   5.187  17.874  0.00  0.00    +0.000 A 
ATOM     25  C   UNL     1       5.409   6.316  17.123  0.00  0.00    +0.000 A 
ATOM     26  C   UNL     1       6.233   7.445  17.110  0.00  0.00    +0.000 A 
ATOM     27  C   UNL     1       7.409   7.451  17.857  0.00  0.00    +0.000 A 
ATOM     28 CL   UNL     1       8.423   8.840  17.846  0.00  0.00    +0.000 Cl
ATOM     29  C   UNL     1       7.765   6.340  18.621  0.00  0.00    +0.000 A 
ATOM     30  C   UNL     1       6.945   5.207  18.635  0.00  0.00    +0.000 A 
ENDBRANCH  21  24
ENDBRANCH  19  20
ENDBRANCH  18  19
ENDBRANCH  17  18
ENDBRANCH   2  17
TORSDOF 9
ENDMDL
