MODEL 1
REMARK VINA RESULT:      -8.4      0.000      0.000
REMARK  Name = 
REMARK  7 active torsions:
REMARK  status: ('A' for Active; 'I' for Inactive)
REMARK    1  A    between atoms: C_1  and  N_2
REMARK    2  A    between atoms: N_2  and  C_3
REMARK    3  A    between atoms: N_2  and  C_4
REMARK    4  A    between atoms: C_4  and  C_5
REMARK    5  A    between atoms: C_8  and  C_9
REMARK    6  A    between atoms: N_13  and  C_14
REMARK    7  A    between atoms: C_14  and  C_15
REMARK                            x       y       z     vdW  Elec       q    Type
REMARK                         _______ _______ _______ _____ _____    ______ ____
ROOT
ATOM      1  C   UNL     1       3.102   6.655  18.340  0.00  0.00    +0.000 A 
ATOM      2  C   UNL     1       4.418   6.934  18.208  0.00  0.00    +0.000 A 
ATOM      3  N   UNL     1       5.380   6.081  17.698  0.00  0.00    +0.000 NA
ATOM      4  C   UNL     1       5.009   4.883  17.344  0.00  0.00    +0.000 A 
ATOM      5  N   UNL     1       5.872   3.977  16.772  0.00  0.00    +0.000 N 
ATOM      6  N   UNL     1       3.666   4.512  17.487  0.00  0.00    +0.000 N 
ATOM      7  C   UNL     1       3.024   3.354  17.150  0.00  0.00    +0.000 A 
ATOM      8  N   UNL     1       1.743   3.468  17.409  0.00  0.00    +0.000 NA
ATOM      9  N   UNL     1       1.527   4.732  17.917  0.00  0.00    +0.000 NA
ATOM     10  C   UNL     1       2.690   5.355  17.953  0.00  0.00    +0.000 A 
ATOM     11  H   UNL     1       5.887   3.043  17.170  0.00  0.00    +0.000 HD
ENDROOT
BRANCH   1  15
ATOM     12  C   UNL     1       0.591   9.829  19.765  0.00  0.00    +0.000 A 
ATOM     13  C   UNL     1       0.950   9.755  18.412  0.00  0.00    +0.000 A 
ATOM     14  C   UNL     1       1.751   8.708  17.946  0.00  0.00    +0.000 A 
ATOM     15  C   UNL     1       2.212   7.722  18.827  0.00  0.00    +0.000 A 
ATOM     16  C   UNL     1       1.848   7.787  20.177  0.00  0.00    +0.000 A 
ATOM     17  C   UNL     1       1.045   8.833  20.641  0.00  0.00    +0.000 A 
BRANCH  12  18
ATOM     18  C   UNL     1      -0.272  10.968  20.277  0.00  0.00    +0.000 C 
BRANCH  18  20
ATOM     19  C   UNL     1       0.295  13.014  21.459  0.00  0.00    +0.000 C 
ATOM     20  N   UNL     1       0.198  11.553  21.545  0.00  0.00    +0.000 NA
ATOM     21  C   UNL     1      -0.715  11.184  22.630  0.00  0.00    +0.000 C 
ENDBRANCH  18  20
ENDBRANCH  12  18
ENDBRANCH   1  15
BRANCH   5  22
ATOM     22  C   UNL     1       7.149   4.392  16.219  0.00  0.00    +0.000 C 
BRANCH  22  23
ATOM     23  C   UNL     1       7.104   4.533  14.742  0.00  0.00    +0.000 A 
ATOM     24  C   UNL     1       6.398   3.902  13.744  0.00  0.00    +0.000 A 
ATOM     25  C   UNL     1       6.856   4.517  12.565  0.00  0.00    +0.000 A 
ATOM     26  N   UNL     1       7.782   5.448  12.813  0.00  0.00    +0.000 NA
ATOM     27  O   UNL     1       7.937   5.455  14.190  0.00  0.00    +0.000 OA
ENDBRANCH  22  23
ENDBRANCH   5  22
TORSDOF 5
ENDMDL
MODEL 2
REMARK VINA RESULT:      -8.3      0.694      1.259
REMARK  Name = 
REMARK  7 active torsions:
REMARK  status: ('A' for Active; 'I' for Inactive)
REMARK    1  A    between atoms: C_1  and  N_2
REMARK    2  A    between atoms: N_2  and  C_3
REMARK    3  A    between atoms: N_2  and  C_4
REMARK    4  A    between atoms: C_4  and  C_5
REMARK    5  A    between atoms: C_8  and  C_9
REMARK    6  A    between atoms: N_13  and  C_14
REMARK    7  A    between atoms: C_14  and  C_15
REMARK                            x       y       z     vdW  Elec       q    Type
REMARK                         _______ _______ _______ _____ _____    ______ ____
ROOT
ATOM      1  C   UNL     1       3.107   6.689  18.276  0.00  0.00    +0.000 A 
ATOM      2  C   UNL     1       4.427   6.953  18.143  0.00  0.00    +0.000 A 
ATOM      3  N   UNL     1       5.382   6.076  17.663  0.00  0.00    +0.000 NA
ATOM      4  C   UNL     1       5.002   4.871  17.343  0.00  0.00    +0.000 A 
ATOM      5  N   UNL     1       5.859   3.941  16.802  0.00  0.00    +0.000 N 
ATOM      6  N   UNL     1       3.655   4.517  17.489  0.00  0.00    +0.000 N 
ATOM      7  C   UNL     1       3.004   3.356  17.185  0.00  0.00    +0.000 A 
ATOM      8  N   UNL     1       1.722   3.490  17.433  0.00  0.00    +0.000 NA
ATOM      9  N   UNL     1       1.516   4.770  17.903  0.00  0.00    +0.000 NA
ATOM     10  C   UNL     1       2.685   5.382  17.925  0.00  0.00    +0.000 A 
ATOM     11  H   UNL     1       5.864   3.019  17.228  0.00  0.00    +0.000 HD
ENDROOT
BRANCH   1  15
ATOM     12  C   UNL     1       0.456   9.799  19.586  0.00  0.00    +0.000 A 
ATOM     13  C   UNL     1       0.961   8.860  20.496  0.00  0.00    +0.000 A 
ATOM     14  C   UNL     1       1.841   7.860  20.071  0.00  0.00    +0.000 A 
ATOM     15  C   UNL     1       2.226   7.779  18.727  0.00  0.00    +0.000 A 
ATOM     16  C   UNL     1       1.732   8.720  17.816  0.00  0.00    +0.000 A 
ATOM     17  C   UNL     1       0.854   9.721  18.244  0.00  0.00    +0.000 A 
BRANCH  12  18
ATOM     18  C   UNL     1      -0.506  10.881  20.041  0.00  0.00    +0.000 C 
BRANCH  18  20
ATOM     19  C   UNL     1      -1.129  13.227  19.944  0.00  0.00    +0.000 C 
ATOM     20  N   UNL     1      -0.054  12.251  19.740  0.00  0.00    +0.000 NA
ATOM     21  C   UNL     1       1.090  12.594  20.589  0.00  0.00    +0.000 C 
ENDBRANCH  18  20
ENDBRANCH  12  18
ENDBRANCH   1  15
BRANCH   5  22
ATOM     22  C   UNL     1       7.143   4.327  16.243  0.00  0.00    +0.000 C 
BRANCH  22  23
ATOM     23  C   UNL     1       7.086   4.500  14.770  0.00  0.00    +0.000 A 
ATOM     24  C   UNL     1       6.356   3.906  13.766  0.00  0.00    +0.000 A 
ATOM     25  C   UNL     1       6.817   4.535  12.596  0.00  0.00    +0.000 A 
ATOM     26  N   UNL     1       7.766   5.439  12.853  0.00  0.00    +0.000 NA
ATOM     27  O   UNL     1       7.935   5.414  14.228  0.00  0.00    +0.000 OA
ENDBRANCH  22  23
ENDBRANCH   5  22
TORSDOF 5
ENDMDL
MODEL 3
REMARK VINA RESULT:      -8.0      0.857      1.304
REMARK  Name = 
REMARK  7 active torsions:
REMARK  status: ('A' for Active; 'I' for Inactive)
REMARK    1  A    between atoms: C_1  and  N_2
REMARK    2  A    between atoms: N_2  and  C_3
REMARK    3  A    between atoms: N_2  and  C_4
REMARK    4  A    between atoms: C_4  and  C_5
REMARK    5  A    between atoms: C_8  and  C_9
REMARK    6  A    between atoms: N_13  and  C_14
REMARK    7  A    between atoms: C_14  and  C_15
REMARK                            x       y       z     vdW  Elec       q    Type
REMARK                         _______ _______ _______ _____ _____    ______ ____
ROOT
ATOM      1  C   UNL     1       3.178   6.668  18.195  0.00  0.00    +0.000 A 
ATOM      2  C   UNL     1       4.455   6.996  17.896  0.00  0.00    +0.000 A 
ATOM      3  N   UNL     1       5.382   6.169  17.289  0.00  0.00    +0.000 NA
ATOM      4  C   UNL     1       5.022   4.948  17.009  0.00  0.00    +0.000 A 
ATOM      5  N   UNL     1       5.847   4.063  16.354  0.00  0.00    +0.000 N 
ATOM      6  N   UNL     1       3.724   4.527  17.325  0.00  0.00    +0.000 N 
ATOM      7  C   UNL     1       3.096   3.336  17.095  0.00  0.00    +0.000 A 
ATOM      8  N   UNL     1       1.852   3.406  17.508  0.00  0.00    +0.000 NA
ATOM      9  N   UNL     1       1.647   4.674  18.012  0.00  0.00    +0.000 NA
ATOM     10  C   UNL     1       2.778   5.343  17.890  0.00  0.00    +0.000 A 
ATOM     11  H   UNL     1       5.951   3.141  16.768  0.00  0.00    +0.000 HD
ENDROOT
BRANCH   1  15
ATOM     12  C   UNL     1       0.566   9.645  19.847  0.00  0.00    +0.000 A 
ATOM     13  C   UNL     1       1.066   8.609  20.648  0.00  0.00    +0.000 A 
ATOM     14  C   UNL     1       1.933   7.652  20.113  0.00  0.00    +0.000 A 
ATOM     15  C   UNL     1       2.310   7.711  18.765  0.00  0.00    +0.000 A 
ATOM     16  C   UNL     1       1.821   8.750  17.964  0.00  0.00    +0.000 A 
ATOM     17  C   UNL     1       0.956   9.707  18.502  0.00  0.00    +0.000 A 
BRANCH  12  18
ATOM     18  C   UNL     1      -0.382  10.681  20.421  0.00  0.00    +0.000 C 
BRANCH  18  20
ATOM     19  C   UNL     1       0.174  12.786  21.501  0.00  0.00    +0.000 C 
ATOM     20  N   UNL     1       0.110  11.329  21.651  0.00  0.00    +0.000 NA
ATOM     21  C   UNL     1      -0.765  10.988  22.775  0.00  0.00    +0.000 C 
ENDBRANCH  18  20
ENDBRANCH  12  18
ENDBRANCH   1  15
BRANCH   5  22
ATOM     22  C   UNL     1       7.028   4.513  15.638  0.00  0.00    +0.000 C 
BRANCH  22  23
ATOM     23  C   UNL     1       6.904   4.321  14.172  0.00  0.00    +0.000 A 
ATOM     24  C   UNL     1       7.550   4.855  13.081  0.00  0.00    +0.000 A 
ATOM     25  C   UNL     1       6.919   4.245  11.982  0.00  0.00    +0.000 A 
ATOM     26  N   UNL     1       5.951   3.407  12.363  0.00  0.00    +0.000 NA
ATOM     27  O   UNL     1       5.942   3.458  13.747  0.00  0.00    +0.000 OA
ENDBRANCH  22  23
ENDBRANCH   5  22
TORSDOF 5
ENDMDL
MODEL 4
REMARK VINA RESULT:      -8.0      1.433      1.987
REMARK  Name = 
REMARK  7 active torsions:
REMARK  status: ('A' for Active; 'I' for Inactive)
REMARK    1  A    between atoms: C_1  and  N_2
REMARK    2  A    between atoms: N_2  and  C_3
REMARK    3  A    between atoms: N_2  and  C_4
REMARK    4  A    between atoms: C_4  and  C_5
REMARK    5  A    between atoms: C_8  and  C_9
REMARK    6  A    between atoms: N_13  and  C_14
REMARK    7  A    between atoms: C_14  and  C_15
REMARK                            x       y       z     vdW  Elec       q    Type
REMARK                         _______ _______ _______ _____ _____    ______ ____
ROOT
ATOM      1  C   UNL     1       3.230   6.781  18.767  0.00  0.00    +0.000 A 
ATOM      2  C   UNL     1       4.477   7.131  18.380  0.00  0.00    +0.000 A 
ATOM      3  N   UNL     1       5.511   6.259  18.095  0.00  0.00    +0.000 NA
ATOM      4  C   UNL     1       5.295   4.983  18.246  0.00  0.00    +0.000 A 
ATOM      5  N   UNL     1       6.235   4.028  17.936  0.00  0.00    +0.000 N 
ATOM      6  N   UNL     1       4.035   4.549  18.680  0.00  0.00    +0.000 N 
ATOM      7  C   UNL     1       3.547   3.287  18.867  0.00  0.00    +0.000 A 
ATOM      8  N   UNL     1       2.286   3.350  19.225  0.00  0.00    +0.000 NA
ATOM      9  N   UNL     1       1.927   4.681  19.267  0.00  0.00    +0.000 NA
ATOM     10  C   UNL     1       2.985   5.394  18.929  0.00  0.00    +0.000 A 
ATOM     11  H   UNL     1       6.418   3.318  18.639  0.00  0.00    +0.000 HD
ENDROOT
BRANCH   1  15
ATOM     12  C   UNL     1       0.249   9.824  19.281  0.00  0.00    +0.000 A 
ATOM     13  C   UNL     1       0.702   9.075  20.377  0.00  0.00    +0.000 A 
ATOM     14  C   UNL     1       1.688   8.099  20.210  0.00  0.00    +0.000 A 
ATOM     15  C   UNL     1       2.233   7.849  18.944  0.00  0.00    +0.000 A 
ATOM     16  C   UNL     1       1.790   8.601  17.850  0.00  0.00    +0.000 A 
ATOM     17  C   UNL     1       0.805   9.579  18.018  0.00  0.00    +0.000 A 
BRANCH  12  18
ATOM     18  C   UNL     1      -0.828  10.879  19.456  0.00  0.00    +0.000 C 
BRANCH  18  20
ATOM     19  C   UNL     1      -2.598  11.553  17.933  0.00  0.00    +0.000 C 
ATOM     20  N   UNL     1      -1.161  11.607  18.218  0.00  0.00    +0.000 NA
ATOM     21  C   UNL     1      -0.735  13.004  18.334  0.00  0.00    +0.000 C 
ENDBRANCH  18  20
ENDBRANCH  12  18
ENDBRANCH   1  15
BRANCH   5  22
ATOM     22  C   UNL     1       7.392   4.342  17.115  0.00  0.00    +0.000 C 
BRANCH  22  23
ATOM     23  C   UNL     1       7.054   4.418  15.672  0.00  0.00    +0.000 A 
ATOM     24  C   UNL     1       6.164   3.749  14.863  0.00  0.00    +0.000 A 
ATOM     25  C   UNL     1       6.378   4.308  13.590  0.00  0.00    +0.000 A 
ATOM     26  N   UNL     1       7.334   5.241  13.607  0.00  0.00    +0.000 NA
ATOM     27  O   UNL     1       7.760   5.308  14.924  0.00  0.00    +0.000 OA
ENDBRANCH  22  23
ENDBRANCH   5  22
TORSDOF 5
ENDMDL
MODEL 5
REMARK VINA RESULT:      -8.0      0.927      1.208
REMARK  Name = 
REMARK  7 active torsions:
REMARK  status: ('A' for Active; 'I' for Inactive)
REMARK    1  A    between atoms: C_1  and  N_2
REMARK    2  A    between atoms: N_2  and  C_3
REMARK    3  A    between atoms: N_2  and  C_4
REMARK    4  A    between atoms: C_4  and  C_5
REMARK    5  A    between atoms: C_8  and  C_9
REMARK    6  A    between atoms: N_13  and  C_14
REMARK    7  A    between atoms: C_14  and  C_15
REMARK                            x       y       z     vdW  Elec       q    Type
REMARK                         _______ _______ _______ _____ _____    ______ ____
ROOT
ATOM      1  C   UNL     1       3.153   6.778  18.193  0.00  0.00    +0.000 A 
ATOM      2  C   UNL     1       4.481   7.005  18.073  0.00  0.00    +0.000 A 
ATOM      3  N   UNL     1       5.421   6.092  17.632  0.00  0.00    +0.000 NA
ATOM      4  C   UNL     1       5.015   4.888  17.340  0.00  0.00    +0.000 A 
ATOM      5  N   UNL     1       5.857   3.922  16.838  0.00  0.00    +0.000 N 
ATOM      6  N   UNL     1       3.657   4.571  17.475  0.00  0.00    +0.000 N 
ATOM      7  C   UNL     1       2.982   3.418  17.193  0.00  0.00    +0.000 A 
ATOM      8  N   UNL     1       1.701   3.591  17.417  0.00  0.00    +0.000 NA
ATOM      9  N   UNL     1       1.520   4.888  17.848  0.00  0.00    +0.000 NA
ATOM     10  C   UNL     1       2.703   5.472  17.872  0.00  0.00    +0.000 A 
ATOM     11  H   UNL     1       5.832   3.013  17.289  0.00  0.00    +0.000 HD
ENDROOT
BRANCH   1  15
ATOM     12  C   UNL     1       0.730  10.107  19.399  0.00  0.00    +0.000 A 
ATOM     13  C   UNL     1       1.272  10.049  18.107  0.00  0.00    +0.000 A 
ATOM     14  C   UNL     1       2.044   8.954  17.710  0.00  0.00    +0.000 A 
ATOM     15  C   UNL     1       2.293   7.901  18.600  0.00  0.00    +0.000 A 
ATOM     16  C   UNL     1       1.745   7.950  19.888  0.00  0.00    +0.000 A 
ATOM     17  C   UNL     1       0.971   9.046  20.282  0.00  0.00    +0.000 A 
BRANCH  12  18
ATOM     18  C   UNL     1      -0.102  11.299  19.837  0.00  0.00    +0.000 C 
BRANCH  18  20
ATOM     19  C   UNL     1      -2.288  12.360  19.872  0.00  0.00    +0.000 C 
ATOM     20  N   UNL     1      -1.555  11.103  19.689  0.00  0.00    +0.000 NA
ATOM     21  C   UNL     1      -1.849  10.551  18.363  0.00  0.00    +0.000 C 
ENDBRANCH  18  20
ENDBRANCH  12  18
ENDBRANCH   1  15
BRANCH   5  22
ATOM     22  C   UNL     1       7.158   4.261  16.289  0.00  0.00    +0.000 C 
BRANCH  22  23
ATOM     23  C   UNL     1       7.107   4.493  14.824  0.00  0.00    +0.000 A 
ATOM     24  C   UNL     1       6.383   3.938  13.794  0.00  0.00    +0.000 A 
ATOM     25  C   UNL     1       6.847   4.614  12.651  0.00  0.00    +0.000 A 
ATOM     26  N   UNL     1       7.792   5.510  12.949  0.00  0.00    +0.000 NA
ATOM     27  O   UNL     1       7.956   5.430  14.323  0.00  0.00    +0.000 OA
ENDBRANCH  22  23
ENDBRANCH   5  22
TORSDOF 5
ENDMDL
MODEL 6
REMARK VINA RESULT:      -7.9      1.044      1.249
REMARK  Name = 
REMARK  7 active torsions:
REMARK  status: ('A' for Active; 'I' for Inactive)
REMARK    1  A    between atoms: C_1  and  N_2
REMARK    2  A    between atoms: N_2  and  C_3
REMARK    3  A    between atoms: N_2  and  C_4
REMARK    4  A    between atoms: C_4  and  C_5
REMARK    5  A    between atoms: C_8  and  C_9
REMARK    6  A    between atoms: N_13  and  C_14
REMARK    7  A    between atoms: C_14  and  C_15
REMARK                            x       y       z     vdW  Elec       q    Type
REMARK                         _______ _______ _______ _____ _____    ______ ____
ROOT
ATOM      1  C   UNL     1       3.156   6.647  18.148  0.00  0.00    +0.000 A 
ATOM      2  C   UNL     1       4.435   6.984  17.866  0.00  0.00    +0.000 A 
ATOM      3  N   UNL     1       5.380   6.160  17.283  0.00  0.00    +0.000 NA
ATOM      4  C   UNL     1       5.036   4.933  17.009  0.00  0.00    +0.000 A 
ATOM      5  N   UNL     1       5.879   4.049  16.377  0.00  0.00    +0.000 N 
ATOM      6  N   UNL     1       3.736   4.503  17.307  0.00  0.00    +0.000 N 
ATOM      7  C   UNL     1       3.123   3.304  17.079  0.00  0.00    +0.000 A 
ATOM      8  N   UNL     1       1.872   3.367  17.470  0.00  0.00    +0.000 NA
ATOM      9  N   UNL     1       1.647   4.637  17.958  0.00  0.00    +0.000 NA
ATOM     10  C   UNL     1       2.773   5.315  17.848  0.00  0.00    +0.000 A 
ATOM     11  H   UNL     1       5.985   3.132  16.801  0.00  0.00    +0.000 HD
ENDROOT
BRANCH   1  15
ATOM     12  C   UNL     1       0.653   9.744  19.746  0.00  0.00    +0.000 A 
ATOM     13  C   UNL     1       1.007   9.740  18.389  0.00  0.00    +0.000 A 
ATOM     14  C   UNL     1       1.805   8.719  17.867  0.00  0.00    +0.000 A 
ATOM     15  C   UNL     1       2.269   7.688  18.693  0.00  0.00    +0.000 A 
ATOM     16  C   UNL     1       1.911   7.682  20.046  0.00  0.00    +0.000 A 
ATOM     17  C   UNL     1       1.110   8.703  20.567  0.00  0.00    +0.000 A 
BRANCH  12  18
ATOM     18  C   UNL     1      -0.207  10.855  20.320  0.00  0.00    +0.000 C 
BRANCH  18  20
ATOM     19  C   UNL     1      -1.267  12.807  19.334  0.00  0.00    +0.000 C 
ATOM     20  N   UNL     1       0.005  12.167  19.683  0.00  0.00    +0.000 NA
ATOM     21  C   UNL     1       0.764  13.039  20.583  0.00  0.00    +0.000 C 
ENDBRANCH  18  20
ENDBRANCH  12  18
ENDBRANCH   1  15
BRANCH   5  22
ATOM     22  C   UNL     1       7.068   4.503  15.677  0.00  0.00    +0.000 C 
BRANCH  22  23
ATOM     23  C   UNL     1       6.952   4.338  14.207  0.00  0.00    +0.000 A 
ATOM     24  C   UNL     1       7.586   4.911  13.128  0.00  0.00    +0.000 A 
ATOM     25  C   UNL     1       6.973   4.308  12.015  0.00  0.00    +0.000 A 
ATOM     26  N   UNL     1       6.025   3.439  12.376  0.00  0.00    +0.000 NA
ATOM     27  O   UNL     1       6.013   3.461  13.761  0.00  0.00    +0.000 OA
ENDBRANCH  22  23
ENDBRANCH   5  22
TORSDOF 5
ENDMDL
MODEL 7
REMARK VINA RESULT:      -7.8      1.539      2.031
REMARK  Name = 
REMARK  7 active torsions:
REMARK  status: ('A' for Active; 'I' for Inactive)
REMARK    1  A    between atoms: C_1  and  N_2
REMARK    2  A    between atoms: N_2  and  C_3
REMARK    3  A    between atoms: N_2  and  C_4
REMARK    4  A    between atoms: C_4  and  C_5
REMARK    5  A    between atoms: C_8  and  C_9
REMARK    6  A    between atoms: N_13  and  C_14
REMARK    7  A    between atoms: C_14  and  C_15
REMARK                            x       y       z     vdW  Elec       q    Type
REMARK                         _______ _______ _______ _____ _____    ______ ____
ROOT
ATOM      1  C   UNL     1       3.385   6.507  17.860  0.00  0.00    +0.000 A 
ATOM      2  C   UNL     1       4.417   6.908  17.084  0.00  0.00    +0.000 A 
ATOM      3  N   UNL     1       5.248   6.080  16.352  0.00  0.00    +0.000 NA
ATOM      4  C   UNL     1       5.059   4.793  16.436  0.00  0.00    +0.000 A 
ATOM      5  N   UNL     1       5.791   3.886  15.706  0.00  0.00    +0.000 N 
ATOM      6  N   UNL     1       4.030   4.304  17.251  0.00  0.00    +0.000 N 
ATOM      7  C   UNL     1       3.602   3.026  17.469  0.00  0.00    +0.000 A 
ATOM      8  N   UNL     1       2.559   3.040  18.267  0.00  0.00    +0.000 NA
ATOM      9  N   UNL     1       2.284   4.355  18.576  0.00  0.00    +0.000 NA
ATOM     10  C   UNL     1       3.170   5.109  17.953  0.00  0.00    +0.000 A 
ATOM     11  H   UNL     1       6.193   3.104  16.215  0.00  0.00    +0.000 HD
ENDROOT
BRANCH   1  15
ATOM     12  C   UNL     1       0.886   9.463  19.712  0.00  0.00    +0.000 A 
ATOM     13  C   UNL     1       1.374   8.375  20.451  0.00  0.00    +0.000 A 
ATOM     14  C   UNL     1       2.205   7.425  19.850  0.00  0.00    +0.000 A 
ATOM     15  C   UNL     1       2.556   7.542  18.500  0.00  0.00    +0.000 A 
ATOM     16  C   UNL     1       2.079   8.631  17.761  0.00  0.00    +0.000 A 
ATOM     17  C   UNL     1       1.249   9.582  18.364  0.00  0.00    +0.000 A 
BRANCH  12  18
ATOM     18  C   UNL     1      -0.024  10.492  20.357  0.00  0.00    +0.000 C 
BRANCH  18  20
ATOM     19  C   UNL     1      -1.837  11.608  19.186  0.00  0.00    +0.000 C 
ATOM     20  N   UNL     1      -0.397  11.605  19.466  0.00  0.00    +0.000 NA
ATOM     21  C   UNL     1      -0.013  12.880  20.077  0.00  0.00    +0.000 C 
ENDBRANCH  18  20
ENDBRANCH  12  18
ENDBRANCH   1  15
BRANCH   5  22
ATOM     22  C   UNL     1       6.580   4.296  14.558  0.00  0.00    +0.000 C 
BRANCH  22  23
ATOM     23  C   UNL     1       6.074   3.715  13.290  0.00  0.00    +0.000 A 
ATOM     24  C   UNL     1       6.665   3.045  12.243  0.00  0.00    +0.000 A 
ATOM     25  C   UNL     1       5.601   2.796  11.358  0.00  0.00    +0.000 A 
ATOM     26  N   UNL     1       4.444   3.282  11.815  0.00  0.00    +0.000 NA
ATOM     27  O   UNL     1       4.746   3.864  13.036  0.00  0.00    +0.000 OA
ENDBRANCH  22  23
ENDBRANCH   5  22
TORSDOF 5
ENDMDL
MODEL 8
REMARK VINA RESULT:      -7.8      1.432      1.517
REMARK  Name = 
REMARK  7 active torsions:
REMARK  status: ('A' for Active; 'I' for Inactive)
REMARK    1  A    between atoms: C_1  and  N_2
REMARK    2  A    between atoms: N_2  and  C_3
REMARK    3  A    between atoms: N_2  and  C_4
REMARK    4  A    between atoms: C_4  and  C_5
REMARK    5  A    between atoms: C_8  and  C_9
REMARK    6  A    between atoms: N_13  and  C_14
REMARK    7  A    between atoms: C_14  and  C_15
REMARK                            x       y       z     vdW  Elec       q    Type
REMARK                         _______ _______ _______ _____ _____    ______ ____
ROOT
ATOM      1  C   UNL     1       3.430   6.501  17.817  0.00  0.00    +0.000 A 
ATOM      2  C   UNL     1       4.401   6.941  16.985  0.00  0.00    +0.000 A 
ATOM      3  N   UNL     1       5.284   6.145  16.280  0.00  0.00    +0.000 NA
ATOM      4  C   UNL     1       5.215   4.854  16.449  0.00  0.00    +0.000 A 
ATOM      5  N   UNL     1       6.006   3.970  15.753  0.00  0.00    +0.000 N 
ATOM      6  N   UNL     1       4.256   4.329  17.325  0.00  0.00    +0.000 N 
ATOM      7  C   UNL     1       3.951   3.035  17.635  0.00  0.00    +0.000 A 
ATOM      8  N   UNL     1       2.933   3.007  18.463  0.00  0.00    +0.000 NA
ATOM      9  N   UNL     1       2.547   4.310  18.699  0.00  0.00    +0.000 NA
ATOM     10  C   UNL     1       3.345   5.098  18.003  0.00  0.00    +0.000 A 
ATOM     11  H   UNL     1       6.491   3.262  16.297  0.00  0.00    +0.000 HD
ENDROOT
BRANCH   1  15
ATOM     12  C   UNL     1       0.881   9.470  19.578  0.00  0.00    +0.000 A 
ATOM     13  C   UNL     1       1.230   9.540  18.221  0.00  0.00    +0.000 A 
ATOM     14  C   UNL     1       2.043   8.561  17.645  0.00  0.00    +0.000 A 
ATOM     15  C   UNL     1       2.528   7.497  18.417  0.00  0.00    +0.000 A 
ATOM     16  C   UNL     1       2.175   7.417  19.769  0.00  0.00    +0.000 A 
ATOM     17  C   UNL     1       1.359   8.397  20.344  0.00  0.00    +0.000 A 
BRANCH  12  18
ATOM     18  C   UNL     1       0.005  10.535  20.210  0.00  0.00    +0.000 C 
BRANCH  18  20
ATOM     19  C   UNL     1       0.830  12.542  21.305  0.00  0.00    +0.000 C 
ATOM     20  N   UNL     1       0.558  11.108  21.450  0.00  0.00    +0.000 NA
ATOM     21  C   UNL     1      -0.380  10.895  22.556  0.00  0.00    +0.000 C 
ENDBRANCH  18  20
ENDBRANCH  12  18
ENDBRANCH   1  15
BRANCH   5  22
ATOM     22  C   UNL     1       6.725   4.374  14.558  0.00  0.00    +0.000 C 
BRANCH  22  23
ATOM     23  C   UNL     1       6.168   3.755  13.330  0.00  0.00    +0.000 A 
ATOM     24  C   UNL     1       6.703   2.994  12.316  0.00  0.00    +0.000 A 
ATOM     25  C   UNL     1       5.615   2.760  11.457  0.00  0.00    +0.000 A 
ATOM     26  N   UNL     1       4.495   3.340  11.898  0.00  0.00    +0.000 NA
ATOM     27  O   UNL     1       4.848   3.969  13.081  0.00  0.00    +0.000 OA
ENDBRANCH  22  23
ENDBRANCH   5  22
TORSDOF 5
ENDMDL
MODEL 9
REMARK VINA RESULT:      -7.6      1.497      1.845
REMARK  Name = 
REMARK  7 active torsions:
REMARK  status: ('A' for Active; 'I' for Inactive)
REMARK    1  A    between atoms: C_1  and  N_2
REMARK    2  A    between atoms: N_2  and  C_3
REMARK    3  A    between atoms: N_2  and  C_4
REMARK    4  A    between atoms: C_4  and  C_5
REMARK    5  A    between atoms: C_8  and  C_9
REMARK    6  A    between atoms: N_13  and  C_14
REMARK    7  A    between atoms: C_14  and  C_15
REMARK                            x       y       z     vdW  Elec       q    Type
REMARK                         _______ _______ _______ _____ _____    ______ ____
ROOT
ATOM      1  C   UNL     1       3.459   6.485  17.839  0.00  0.00    +0.000 A 
ATOM      2  C   UNL     1       4.398   6.924  16.971  0.00  0.00    +0.000 A 
ATOM      3  N   UNL     1       5.231   6.127  16.208  0.00  0.00    +0.000 NA
ATOM      4  C   UNL     1       5.145   4.835  16.355  0.00  0.00    +0.000 A 
ATOM      5  N   UNL     1       5.885   3.951  15.604  0.00  0.00    +0.000 N 
ATOM      6  N   UNL     1       4.218   4.310  17.264  0.00  0.00    +0.000 N 
ATOM      7  C   UNL     1       3.902   3.015  17.563  0.00  0.00    +0.000 A 
ATOM      8  N   UNL     1       2.924   2.989  18.437  0.00  0.00    +0.000 NA
ATOM      9  N   UNL     1       2.576   4.294  18.718  0.00  0.00    +0.000 NA
ATOM     10  C   UNL     1       3.355   5.081  18.000  0.00  0.00    +0.000 A 
ATOM     11  H   UNL     1       6.380   3.222  16.110  0.00  0.00    +0.000 HD
ENDROOT
BRANCH   1  15
ATOM     12  C   UNL     1       0.892   9.336  19.760  0.00  0.00    +0.000 A 
ATOM     13  C   UNL     1       1.441   8.268  20.483  0.00  0.00    +0.000 A 
ATOM     14  C   UNL     1       2.294   7.353  19.860  0.00  0.00    +0.000 A 
ATOM     15  C   UNL     1       2.606   7.486  18.501  0.00  0.00    +0.000 A 
ATOM     16  C   UNL     1       2.067   8.556  17.777  0.00  0.00    +0.000 A 
ATOM     17  C   UNL     1       1.217   9.472  18.403  0.00  0.00    +0.000 A 
BRANCH  12  18
ATOM     18  C   UNL     1      -0.041  10.328  20.430  0.00  0.00    +0.000 C 
BRANCH  18  20
ATOM     19  C   UNL     1       1.394  12.289  20.439  0.00  0.00    +0.000 C 
ATOM     20  N   UNL     1       0.647  11.332  21.261  0.00  0.00    +0.000 NA
ATOM     21  C   UNL     1      -0.330  12.049  22.084  0.00  0.00    +0.000 C 
ENDBRANCH  18  20
ENDBRANCH  12  18
ENDBRANCH   1  15
BRANCH   5  22
ATOM     22  C   UNL     1       6.554   4.367  14.384  0.00  0.00    +0.000 C 
BRANCH  22  23
ATOM     23  C   UNL     1       5.968   3.732  13.177  0.00  0.00    +0.000 A 
ATOM     24  C   UNL     1       4.741   3.806  12.559  0.00  0.00    +0.000 A 
ATOM     25  C   UNL     1       4.858   2.927  11.468  0.00  0.00    +0.000 A 
ATOM     26  N   UNL     1       6.060   2.346  11.420  0.00  0.00    +0.000 NA
ATOM     27  O   UNL     1       6.759   2.855  12.502  0.00  0.00    +0.000 OA
ENDBRANCH  22  23
ENDBRANCH   5  22
TORSDOF 5
ENDMDL
