MODEL 1
REMARK VINA RESULT:      -8.2      0.000      0.000
REMARK  Name = 
REMARK  9 active torsions:
REMARK  status: ('A' for Active; 'I' for Inactive)
REMARK    1  A    between atoms: C_1  and  C_2
REMARK    2  A    between atoms: N_4  and  C_5
REMARK    3  A    between atoms: C_5  and  C_6
REMARK    4  A    between atoms: C_8  and  C_9
REMARK    5  A    between atoms: C_12  and  O_13
REMARK    6  A    between atoms: O_13  and  C_14
REMARK    7  A    between atoms: C_17  and  O_18
REMARK    8  A    between atoms: O_18  and  C_19
REMARK    9  A    between atoms: C_19  and  C_20
REMARK                            x       y       z     vdW  Elec       q    Type
REMARK                         _______ _______ _______ _____ _____    ______ ____
ROOT
ATOM      1  C   UNL     1       3.753   6.475  18.107  0.00  0.00    +0.000 A 
ATOM      2  C   UNL     1       3.192   6.010  19.305  0.00  0.00    +0.000 A 
ATOM      3  C   UNL     1       2.237   6.775  19.982  0.00  0.00    +0.000 A 
ATOM      4  C   UNL     1       1.836   8.006  19.465  0.00  0.00    +0.000 A 
ATOM      5  C   UNL     1       2.327   8.437  18.231  0.00  0.00    +0.000 A 
ATOM      6  C   UNL     1       3.303   7.691  17.573  0.00  0.00    +0.000 A 
ENDROOT
BRANCH   1   9
ATOM      7  C   UNL     1       6.046   5.018  15.892  0.00  0.00    +0.000 A 
ATOM      8  N   UNL     1       5.047   5.851  16.077  0.00  0.00    +0.000 NA
ATOM      9  C   UNL     1       4.786   5.709  17.421  0.00  0.00    +0.000 A 
ATOM     10  N   UNL     1       5.563   4.797  18.031  0.00  0.00    +0.000 NA
ATOM     11  O   UNL     1       6.399   4.340  17.020  0.00  0.00    +0.000 OA
BRANCH   7  12
ATOM     12  C   UNL     1       6.814   4.708  14.669  0.00  0.00    +0.000 C 
BRANCH  12  16
ATOM     13  C   UNL     1       5.591   2.517  11.854  0.00  0.00    +0.000 C 
ATOM     14  C   UNL     1       6.385   3.590  12.543  0.00  0.00    +0.000 C 
ATOM     15  O   UNL     1       7.185   4.308  11.953  0.00  0.00    +0.000 OA
ATOM     16  N   UNL     1       6.141   3.687  13.890  0.00  0.00    +0.000 N 
ATOM     17  H   UNL     1       5.424   3.116  14.322  0.00  0.00    +0.000 HD
ENDBRANCH  12  16
ENDBRANCH   7  12
ENDBRANCH   1   9
BRANCH   4  18
ATOM     18  O   UNL     1       0.918   8.708  20.208  0.00  0.00    +0.000 OA
BRANCH  18  19
ATOM     19  C   UNL     1       0.489   9.938  19.766  0.00  0.00    +0.000 A 
ATOM     20  C   UNL     1       1.149  11.033  20.317  0.00  0.00    +0.000 A 
ATOM     21  C   UNL     1       0.816  12.327  19.916  0.00  0.00    +0.000 A 
ATOM     22  C   UNL     1      -0.161  12.528  18.938  0.00  0.00    +0.000 A 
ATOM     23  C   UNL     1      -0.840  11.435  18.404  0.00  0.00    +0.000 A 
ATOM     24  C   UNL     1      -0.493  10.139  18.790  0.00  0.00    +0.000 A 
BRANCH  22  25
ATOM     25  O   UNL     1      -0.507  13.750  18.430  0.00  0.00    +0.000 OA
BRANCH  25  26
ATOM     26  C   UNL     1      -0.299  14.838  19.332  0.00  0.00    +0.000 C 
BRANCH  26  27
ATOM     27  C   UNL     1       0.248  16.021  18.580  0.00  0.00    +0.000 A 
ATOM     28  C   UNL     1       1.628  16.162  18.376  0.00  0.00    +0.000 A 
ATOM     29  C   UNL     1       2.126  17.250  17.660  0.00  0.00    +0.000 A 
ATOM     30  C   UNL     1       1.253  18.206  17.141  0.00  0.00    +0.000 A 
ATOM     31  C   UNL     1      -0.120  18.081  17.345  0.00  0.00    +0.000 A 
ATOM     32  C   UNL     1      -0.620  16.993  18.061  0.00  0.00    +0.000 A 
ENDBRANCH  26  27
ENDBRANCH  25  26
ENDBRANCH  22  25
ENDBRANCH  18  19
ENDBRANCH   4  18
TORSDOF 8
ENDMDL
MODEL 2
REMARK VINA RESULT:      -8.0      1.740      2.652
REMARK  Name = 
REMARK  9 active torsions:
REMARK  status: ('A' for Active; 'I' for Inactive)
REMARK    1  A    between atoms: C_1  and  C_2
REMARK    2  A    between atoms: N_4  and  C_5
REMARK    3  A    between atoms: C_5  and  C_6
REMARK    4  A    between atoms: C_8  and  C_9
REMARK    5  A    between atoms: C_12  and  O_13
REMARK    6  A    between atoms: O_13  and  C_14
REMARK    7  A    between atoms: C_17  and  O_18
REMARK    8  A    between atoms: O_18  and  C_19
REMARK    9  A    between atoms: C_19  and  C_20
REMARK                            x       y       z     vdW  Elec       q    Type
REMARK                         _______ _______ _______ _____ _____    ______ ____
ROOT
ATOM      1  C   UNL     1       2.407   7.444  18.803  0.00  0.00    +0.000 A 
ATOM      2  C   UNL     1       1.914   7.729  20.085  0.00  0.00    +0.000 A 
ATOM      3  C   UNL     1       1.220   8.919  20.326  0.00  0.00    +0.000 A 
ATOM      4  C   UNL     1       1.014   9.829  19.290  0.00  0.00    +0.000 A 
ATOM      5  C   UNL     1       1.429   9.515  17.995  0.00  0.00    +0.000 A 
ATOM      6  C   UNL     1       2.149   8.345  17.760  0.00  0.00    +0.000 A 
ENDROOT
BRANCH   1   9
ATOM      7  C   UNL     1       4.792   4.978  18.085  0.00  0.00    +0.000 A 
ATOM      8  N   UNL     1       4.495   6.256  18.161  0.00  0.00    +0.000 NA
ATOM      9  C   UNL     1       3.176   6.231  18.554  0.00  0.00    +0.000 A 
ATOM     10  N   UNL     1       2.668   4.992  18.674  0.00  0.00    +0.000 NA
ATOM     11  O   UNL     1       3.739   4.161  18.366  0.00  0.00    +0.000 OA
BRANCH   7  12
ATOM     12  C   UNL     1       6.065   4.315  17.735  0.00  0.00    +0.000 C 
BRANCH  12  16
ATOM     13  C   UNL     1       6.494   4.011  14.001  0.00  0.00    +0.000 C 
ATOM     14  C   UNL     1       6.636   4.592  15.379  0.00  0.00    +0.000 C 
ATOM     15  O   UNL     1       7.241   5.635  15.602  0.00  0.00    +0.000 OA
ATOM     16  N   UNL     1       6.036   3.847  16.363  0.00  0.00    +0.000 N 
ATOM     17  H   UNL     1       5.492   3.027  16.123  0.00  0.00    +0.000 HD
ENDBRANCH  12  16
ENDBRANCH   7  12
ENDBRANCH   1   9
BRANCH   4  18
ATOM     18  O   UNL     1       0.352  10.986  19.620  0.00  0.00    +0.000 OA
BRANCH  18  19
ATOM     19  C   UNL     1       1.045  12.175  19.653  0.00  0.00    +0.000 A 
ATOM     20  C   UNL     1       1.392  12.697  18.410  0.00  0.00    +0.000 A 
ATOM     21  C   UNL     1       2.068  13.914  18.324  0.00  0.00    +0.000 A 
ATOM     22  C   UNL     1       2.374  14.628  19.485  0.00  0.00    +0.000 A 
ATOM     23  C   UNL     1       2.050  14.095  20.732  0.00  0.00    +0.000 A 
ATOM     24  C   UNL     1       1.355  12.888  20.817  0.00  0.00    +0.000 A 
BRANCH  22  25
ATOM     25  O   UNL     1       2.971  15.859  19.502  0.00  0.00    +0.000 OA
BRANCH  25  26
ATOM     26  C   UNL     1       2.131  16.909  19.986  0.00  0.00    +0.000 C 
BRANCH  26  27
ATOM     27  C   UNL     1       1.259  17.415  18.869  0.00  0.00    +0.000 A 
ATOM     28  C   UNL     1       1.824  17.839  17.658  0.00  0.00    +0.000 A 
ATOM     29  C   UNL     1       1.008  18.287  16.619  0.00  0.00    +0.000 A 
ATOM     30  C   UNL     1      -0.377  18.317  16.781  0.00  0.00    +0.000 A 
ATOM     31  C   UNL     1      -0.949  17.906  17.983  0.00  0.00    +0.000 A 
ATOM     32  C   UNL     1      -0.134  17.457  19.022  0.00  0.00    +0.000 A 
ENDBRANCH  26  27
ENDBRANCH  25  26
ENDBRANCH  22  25
ENDBRANCH  18  19
ENDBRANCH   4  18
TORSDOF 8
ENDMDL
MODEL 3
REMARK VINA RESULT:      -7.9      2.414      3.380
REMARK  Name = 
REMARK  9 active torsions:
REMARK  status: ('A' for Active; 'I' for Inactive)
REMARK    1  A    between atoms: C_1  and  C_2
REMARK    2  A    between atoms: N_4  and  C_5
REMARK    3  A    between atoms: C_5  and  C_6
REMARK    4  A    between atoms: C_8  and  C_9
REMARK    5  A    between atoms: C_12  and  O_13
REMARK    6  A    between atoms: O_13  and  C_14
REMARK    7  A    between atoms: C_17  and  O_18
REMARK    8  A    between atoms: O_18  and  C_19
REMARK    9  A    between atoms: C_19  and  C_20
REMARK                            x       y       z     vdW  Elec       q    Type
REMARK                         _______ _______ _______ _____ _____    ______ ____
ROOT
ATOM      1  C   UNL     1       2.353   7.436  18.726  0.00  0.00    +0.000 A 
ATOM      2  C   UNL     1       1.968   8.463  17.852  0.00  0.00    +0.000 A 
ATOM      3  C   UNL     1       1.209   9.540  18.318  0.00  0.00    +0.000 A 
ATOM      4  C   UNL     1       0.830   9.598  19.659  0.00  0.00    +0.000 A 
ATOM      5  C   UNL     1       1.278   8.623  20.552  0.00  0.00    +0.000 A 
ATOM      6  C   UNL     1       2.008   7.533  20.082  0.00  0.00    +0.000 A 
ENDROOT
BRANCH   1   9
ATOM      7  C   UNL     1       4.719   5.084  17.652  0.00  0.00    +0.000 A 
ATOM      8  N   UNL     1       4.467   6.307  18.062  0.00  0.00    +0.000 NA
ATOM      9  C   UNL     1       3.101   6.284  18.238  0.00  0.00    +0.000 A 
ATOM     10  N   UNL     1       2.531   5.111  17.911  0.00  0.00    +0.000 NA
ATOM     11  O   UNL     1       3.602   4.315  17.525  0.00  0.00    +0.000 OA
BRANCH   7  12
ATOM     12  C   UNL     1       6.004   4.442  17.305  0.00  0.00    +0.000 C 
BRANCH  12  16
ATOM     13  C   UNL     1       6.450   3.850  13.608  0.00  0.00    +0.000 C 
ATOM     14  C   UNL     1       6.624   4.509  14.947  0.00  0.00    +0.000 C 
ATOM     15  O   UNL     1       7.313   5.510  15.110  0.00  0.00    +0.000 OA
ATOM     16  N   UNL     1       5.951   3.886  15.967  0.00  0.00    +0.000 N 
ATOM     17  H   UNL     1       5.341   3.100  15.773  0.00  0.00    +0.000 HD
ENDBRANCH  12  16
ENDBRANCH   7  12
ENDBRANCH   1   9
BRANCH   4  18
ATOM     18  O   UNL     1       0.057  10.673  20.027  0.00  0.00    +0.000 OA
BRANCH  18  19
ATOM     19  C   UNL     1       0.518  11.948  19.791  0.00  0.00    +0.000 A 
ATOM     20  C   UNL     1       1.658  12.311  20.504  0.00  0.00    +0.000 A 
ATOM     21  C   UNL     1       2.229  13.570  20.318  0.00  0.00    +0.000 A 
ATOM     22  C   UNL     1       1.677  14.460  19.394  0.00  0.00    +0.000 A 
ATOM     23  C   UNL     1       0.522  14.109  18.699  0.00  0.00    +0.000 A 
ATOM     24  C   UNL     1      -0.038  12.842  18.869  0.00  0.00    +0.000 A 
BRANCH  22  25
ATOM     25  O   UNL     1       2.204  15.686  19.092  0.00  0.00    +0.000 OA
BRANCH  25  26
ATOM     26  C   UNL     1       2.963  15.714  17.881  0.00  0.00    +0.000 C 
BRANCH  26  27
ATOM     27  C   UNL     1       4.431  15.751  18.206  0.00  0.00    +0.000 A 
ATOM     28  C   UNL     1       5.282  14.717  17.792  0.00  0.00    +0.000 A 
ATOM     29  C   UNL     1       6.646  14.768  18.079  0.00  0.00    +0.000 A 
ATOM     30  C   UNL     1       7.172  15.853  18.780  0.00  0.00    +0.000 A 
ATOM     31  C   UNL     1       6.335  16.883  19.204  0.00  0.00    +0.000 A 
ATOM     32  C   UNL     1       4.971  16.833  18.917  0.00  0.00    +0.000 A 
ENDBRANCH  26  27
ENDBRANCH  25  26
ENDBRANCH  22  25
ENDBRANCH  18  19
ENDBRANCH   4  18
TORSDOF 8
ENDMDL
MODEL 4
REMARK VINA RESULT:      -7.9      3.366      4.640
REMARK  Name = 
REMARK  9 active torsions:
REMARK  status: ('A' for Active; 'I' for Inactive)
REMARK    1  A    between atoms: C_1  and  C_2
REMARK    2  A    between atoms: N_4  and  C_5
REMARK    3  A    between atoms: C_5  and  C_6
REMARK    4  A    between atoms: C_8  and  C_9
REMARK    5  A    between atoms: C_12  and  O_13
REMARK    6  A    between atoms: O_13  and  C_14
REMARK    7  A    between atoms: C_17  and  O_18
REMARK    8  A    between atoms: O_18  and  C_19
REMARK    9  A    between atoms: C_19  and  C_20
REMARK                            x       y       z     vdW  Elec       q    Type
REMARK                         _______ _______ _______ _____ _____    ______ ____
ROOT
ATOM      1  C   UNL     1       2.655   7.322  19.027  0.00  0.00    +0.000 A 
ATOM      2  C   UNL     1       2.480   8.210  17.955  0.00  0.00    +0.000 A 
ATOM      3  C   UNL     1       1.577   9.273  18.059  0.00  0.00    +0.000 A 
ATOM      4  C   UNL     1       0.846   9.455  19.232  0.00  0.00    +0.000 A 
ATOM      5  C   UNL     1       1.076   8.626  20.332  0.00  0.00    +0.000 A 
ATOM      6  C   UNL     1       1.952   7.548  20.218  0.00  0.00    +0.000 A 
ENDROOT
BRANCH   1   9
ATOM      7  C   UNL     1       5.165   4.993  18.278  0.00  0.00    +0.000 A 
ATOM      8  N   UNL     1       4.621   6.165  18.037  0.00  0.00    +0.000 NA
ATOM      9  C   UNL     1       3.556   6.182  18.909  0.00  0.00    +0.000 A 
ATOM     10  N   UNL     1       3.424   5.053  19.627  0.00  0.00    +0.000 NA
ATOM     11  O   UNL     1       4.491   4.266  19.211  0.00  0.00    +0.000 OA
BRANCH   7  12
ATOM     12  C   UNL     1       6.364   4.360  17.689  0.00  0.00    +0.000 C 
BRANCH  12  16
ATOM     13  C   UNL     1       6.265   4.000  13.937  0.00  0.00    +0.000 C 
ATOM     14  C   UNL     1       6.668   4.549  15.277  0.00  0.00    +0.000 C 
ATOM     15  O   UNL     1       7.450   5.485  15.403  0.00  0.00    +0.000 OA
ATOM     16  N   UNL     1       6.089   3.905  16.341  0.00  0.00    +0.000 N 
ATOM     17  H   UNL     1       5.399   3.180  16.185  0.00  0.00    +0.000 HD
ENDBRANCH  12  16
ENDBRANCH   7  12
ENDBRANCH   1   9
BRANCH   4  18
ATOM     18  O   UNL     1      -0.042  10.503  19.239  0.00  0.00    +0.000 OA
BRANCH  18  19
ATOM     19  C   UNL     1      -0.236  11.217  20.399  0.00  0.00    +0.000 A 
ATOM     20  C   UNL     1       0.037  12.580  20.313  0.00  0.00    +0.000 A 
ATOM     21  C   UNL     1      -0.155  13.405  21.421  0.00  0.00    +0.000 A 
ATOM     22  C   UNL     1      -0.651  12.872  22.614  0.00  0.00    +0.000 A 
ATOM     23  C   UNL     1      -0.899  11.504  22.710  0.00  0.00    +0.000 A 
ATOM     24  C   UNL     1      -0.727  10.681  21.595  0.00  0.00    +0.000 A 
BRANCH  22  25
ATOM     25  O   UNL     1      -0.938  13.608  23.730  0.00  0.00    +0.000 OA
BRANCH  25  26
ATOM     26  C   UNL     1      -1.896  14.647  23.514  0.00  0.00    +0.000 C 
BRANCH  26  27
ATOM     27  C   UNL     1      -3.271  14.048  23.391  0.00  0.00    +0.000 A 
ATOM     28  C   UNL     1      -3.780  13.214  24.397  0.00  0.00    +0.000 A 
ATOM     29  C   UNL     1      -5.063  12.679  24.286  0.00  0.00    +0.000 A 
ATOM     30  C   UNL     1      -5.849  12.971  23.171  0.00  0.00    +0.000 A 
ATOM     31  C   UNL     1      -5.351  13.791  22.161  0.00  0.00    +0.000 A 
ATOM     32  C   UNL     1      -4.068  14.328  22.271  0.00  0.00    +0.000 A 
ENDBRANCH  26  27
ENDBRANCH  25  26
ENDBRANCH  22  25
ENDBRANCH  18  19
ENDBRANCH   4  18
TORSDOF 8
ENDMDL
MODEL 5
REMARK VINA RESULT:      -7.9      2.030      3.036
REMARK  Name = 
REMARK  9 active torsions:
REMARK  status: ('A' for Active; 'I' for Inactive)
REMARK    1  A    between atoms: C_1  and  C_2
REMARK    2  A    between atoms: N_4  and  C_5
REMARK    3  A    between atoms: C_5  and  C_6
REMARK    4  A    between atoms: C_8  and  C_9
REMARK    5  A    between atoms: C_12  and  O_13
REMARK    6  A    between atoms: O_13  and  C_14
REMARK    7  A    between atoms: C_17  and  O_18
REMARK    8  A    between atoms: O_18  and  C_19
REMARK    9  A    between atoms: C_19  and  C_20
REMARK                            x       y       z     vdW  Elec       q    Type
REMARK                         _______ _______ _______ _____ _____    ______ ____
ROOT
ATOM      1  C   UNL     1       2.810   7.291  18.905  0.00  0.00    +0.000 A 
ATOM      2  C   UNL     1       2.554   8.202  17.870  0.00  0.00    +0.000 A 
ATOM      3  C   UNL     1       1.611   9.220  18.042  0.00  0.00    +0.000 A 
ATOM      4  C   UNL     1       0.920   9.334  19.248  0.00  0.00    +0.000 A 
ATOM      5  C   UNL     1       1.228   8.484  20.311  0.00  0.00    +0.000 A 
ATOM      6  C   UNL     1       2.144   7.449  20.129  0.00  0.00    +0.000 A 
ENDROOT
BRANCH   1   9
ATOM      7  C   UNL     1       5.362   5.083  17.959  0.00  0.00    +0.000 A 
ATOM      8  N   UNL     1       4.742   6.225  17.759  0.00  0.00    +0.000 NA
ATOM      9  C   UNL     1       3.753   6.196  18.717  0.00  0.00    +0.000 A 
ATOM     10  N   UNL     1       3.737   5.067  19.448  0.00  0.00    +0.000 NA
ATOM     11  O   UNL     1       4.804   4.331  18.947  0.00  0.00    +0.000 OA
BRANCH   7  12
ATOM     12  C   UNL     1       6.538   4.506  17.275  0.00  0.00    +0.000 C 
BRANCH  12  16
ATOM     13  C   UNL     1       6.208   3.775  13.591  0.00  0.00    +0.000 C 
ATOM     14  C   UNL     1       6.724   4.423  14.844  0.00  0.00    +0.000 C 
ATOM     15  O   UNL     1       7.580   5.300  14.835  0.00  0.00    +0.000 OA
ATOM     16  N   UNL     1       6.157   3.940  15.996  0.00  0.00    +0.000 N 
ATOM     17  H   UNL     1       5.406   3.261  15.951  0.00  0.00    +0.000 HD
ENDBRANCH  12  16
ENDBRANCH   7  12
ENDBRANCH   1   9
BRANCH   4  18
ATOM     18  O   UNL     1      -0.012  10.341  19.321  0.00  0.00    +0.000 OA
BRANCH  18  19
ATOM     19  C   UNL     1       0.411  11.645  19.442  0.00  0.00    +0.000 A 
ATOM     20  C   UNL     1      -0.146  12.539  18.531  0.00  0.00    +0.000 A 
ATOM     21  C   UNL     1       0.188  13.892  18.583  0.00  0.00    +0.000 A 
ATOM     22  C   UNL     1       1.060  14.361  19.568  0.00  0.00    +0.000 A 
ATOM     23  C   UNL     1       1.639  13.464  20.464  0.00  0.00    +0.000 A 
ATOM     24  C   UNL     1       1.289  12.113  20.426  0.00  0.00    +0.000 A 
BRANCH  22  25
ATOM     25  O   UNL     1       1.394  15.676  19.744  0.00  0.00    +0.000 OA
BRANCH  25  26
ATOM     26  C   UNL     1       1.957  16.296  18.587  0.00  0.00    +0.000 C 
BRANCH  26  27
ATOM     27  C   UNL     1       3.454  16.151  18.613  0.00  0.00    +0.000 A 
ATOM     28  C   UNL     1       4.090  15.161  17.850  0.00  0.00    +0.000 A 
ATOM     29  C   UNL     1       5.480  15.046  17.864  0.00  0.00    +0.000 A 
ATOM     30  C   UNL     1       6.247  15.916  18.638  0.00  0.00    +0.000 A 
ATOM     31  C   UNL     1       5.626  16.898  19.407  0.00  0.00    +0.000 A 
ATOM     32  C   UNL     1       4.236  17.015  19.394  0.00  0.00    +0.000 A 
ENDBRANCH  26  27
ENDBRANCH  25  26
ENDBRANCH  22  25
ENDBRANCH  18  19
ENDBRANCH   4  18
TORSDOF 8
ENDMDL
MODEL 6
REMARK VINA RESULT:      -7.8      3.979      5.602
REMARK  Name = 
REMARK  9 active torsions:
REMARK  status: ('A' for Active; 'I' for Inactive)
REMARK    1  A    between atoms: C_1  and  C_2
REMARK    2  A    between atoms: N_4  and  C_5
REMARK    3  A    between atoms: C_5  and  C_6
REMARK    4  A    between atoms: C_8  and  C_9
REMARK    5  A    between atoms: C_12  and  O_13
REMARK    6  A    between atoms: O_13  and  C_14
REMARK    7  A    between atoms: C_17  and  O_18
REMARK    8  A    between atoms: O_18  and  C_19
REMARK    9  A    between atoms: C_19  and  C_20
REMARK                            x       y       z     vdW  Elec       q    Type
REMARK                         _______ _______ _______ _____ _____    ______ ____
ROOT
ATOM      1  C   UNL     1       1.964   7.652  19.503  0.00  0.00    +0.000 A 
ATOM      2  C   UNL     1       1.341   8.359  20.543  0.00  0.00    +0.000 A 
ATOM      3  C   UNL     1       0.887   9.665  20.337  0.00  0.00    +0.000 A 
ATOM      4  C   UNL     1       1.052  10.272  19.093  0.00  0.00    +0.000 A 
ATOM      5  C   UNL     1       1.595   9.548  18.030  0.00  0.00    +0.000 A 
ATOM      6  C   UNL     1       2.077   8.257  18.244  0.00  0.00    +0.000 A 
ENDROOT
BRANCH   1   9
ATOM      7  C   UNL     1       3.685   4.599  19.526  0.00  0.00    +0.000 A 
ATOM      8  N   UNL     1       3.525   5.787  18.986  0.00  0.00    +0.000 NA
ATOM      9  C   UNL     1       2.486   6.309  19.724  0.00  0.00    +0.000 A 
ATOM     10  N   UNL     1       1.999   5.465  20.649  0.00  0.00    +0.000 NA
ATOM     11  O   UNL     1       2.794   4.333  20.521  0.00  0.00    +0.000 OA
BRANCH   7  12
ATOM     12  C   UNL     1       4.658   3.533  19.210  0.00  0.00    +0.000 C 
BRANCH  12  16
ATOM     13  C   UNL     1       7.335   4.703  16.826  0.00  0.00    +0.000 C 
ATOM     14  C   UNL     1       6.022   4.130  17.277  0.00  0.00    +0.000 C 
ATOM     15  O   UNL     1       5.166   3.734  16.494  0.00  0.00    +0.000 OA
ATOM     16  N   UNL     1       5.866   4.098  18.640  0.00  0.00    +0.000 N 
ATOM     17  H   UNL     1       6.627   4.375  19.248  0.00  0.00    +0.000 HD
ENDBRANCH  12  16
ENDBRANCH   7  12
ENDBRANCH   1   9
BRANCH   4  18
ATOM     18  O   UNL     1       0.607  11.568  18.985  0.00  0.00    +0.000 OA
BRANCH  18  19
ATOM     19  C   UNL     1      -0.709  11.856  19.263  0.00  0.00    +0.000 A 
ATOM     20  C   UNL     1      -1.626  11.439  18.302  0.00  0.00    +0.000 A 
ATOM     21  C   UNL     1      -2.991  11.652  18.496  0.00  0.00    +0.000 A 
ATOM     22  C   UNL     1      -3.445  12.256  19.671  0.00  0.00    +0.000 A 
ATOM     23  C   UNL     1      -2.527  12.696  20.623  0.00  0.00    +0.000 A 
ATOM     24  C   UNL     1      -1.163  12.466  20.438  0.00  0.00    +0.000 A 
BRANCH  22  25
ATOM     25  O   UNL     1      -4.764  12.444  19.985  0.00  0.00    +0.000 OA
BRANCH  25  26
ATOM     26  C   UNL     1      -5.063  13.745  20.495  0.00  0.00    +0.000 C 
BRANCH  26  27
ATOM     27  C   UNL     1      -5.958  13.622  21.698  0.00  0.00    +0.000 A 
ATOM     28  C   UNL     1      -6.759  12.486  21.881  0.00  0.00    +0.000 A 
ATOM     29  C   UNL     1      -7.571  12.370  23.009  0.00  0.00    +0.000 A 
ATOM     30  C   UNL     1      -7.589  13.386  23.964  0.00  0.00    +0.000 A 
ATOM     31  C   UNL     1      -6.804  14.524  23.790  0.00  0.00    +0.000 A 
ATOM     32  C   UNL     1      -5.992  14.641  22.662  0.00  0.00    +0.000 A 
ENDBRANCH  26  27
ENDBRANCH  25  26
ENDBRANCH  22  25
ENDBRANCH  18  19
ENDBRANCH   4  18
TORSDOF 8
ENDMDL
MODEL 7
REMARK VINA RESULT:      -7.8      1.838      3.042
REMARK  Name = 
REMARK  9 active torsions:
REMARK  status: ('A' for Active; 'I' for Inactive)
REMARK    1  A    between atoms: C_1  and  C_2
REMARK    2  A    between atoms: N_4  and  C_5
REMARK    3  A    between atoms: C_5  and  C_6
REMARK    4  A    between atoms: C_8  and  C_9
REMARK    5  A    between atoms: C_12  and  O_13
REMARK    6  A    between atoms: O_13  and  C_14
REMARK    7  A    between atoms: C_17  and  O_18
REMARK    8  A    between atoms: O_18  and  C_19
REMARK    9  A    between atoms: C_19  and  C_20
REMARK                            x       y       z     vdW  Elec       q    Type
REMARK                         _______ _______ _______ _____ _____    ______ ____
ROOT
ATOM      1  C   UNL     1       5.174   5.476  16.425  0.00  0.00    +0.000 A 
ATOM      2  C   UNL     1       5.239   6.726  17.058  0.00  0.00    +0.000 A 
ATOM      3  C   UNL     1       4.376   7.027  18.117  0.00  0.00    +0.000 A 
ATOM      4  C   UNL     1       3.446   6.083  18.548  0.00  0.00    +0.000 A 
ATOM      5  C   UNL     1       3.431   4.809  17.979  0.00  0.00    +0.000 A 
ATOM      6  C   UNL     1       4.268   4.519  16.903  0.00  0.00    +0.000 A 
ENDROOT
BRANCH   1   9
ATOM      7  C   UNL     1       6.664   4.420  13.433  0.00  0.00    +0.000 A 
ATOM      8  N   UNL     1       5.609   4.416  14.218  0.00  0.00    +0.000 NA
ATOM      9  C   UNL     1       6.034   5.171  15.288  0.00  0.00    +0.000 A 
ATOM     10  N   UNL     1       7.308   5.587  15.188  0.00  0.00    +0.000 NA
ATOM     11  O   UNL     1       7.725   5.092  13.958  0.00  0.00    +0.000 OA
BRANCH   7  12
ATOM     12  C   UNL     1       6.864   3.805  12.104  0.00  0.00    +0.000 C 
BRANCH  12  16
ATOM     13  C   UNL     1       6.096   0.213  11.255  0.00  0.00    +0.000 C 
ATOM     14  C   UNL     1       6.816   1.531  11.224  0.00  0.00    +0.000 C 
ATOM     15  O   UNL     1       7.795   1.737  10.515  0.00  0.00    +0.000 OA
ATOM     16  N   UNL     1       6.286   2.476  12.065  0.00  0.00    +0.000 N 
ATOM     17  H   UNL     1       5.438   2.281  12.584  0.00  0.00    +0.000 HD
ENDBRANCH  12  16
ENDBRANCH   7  12
ENDBRANCH   1   9
BRANCH   4  18
ATOM     18  O   UNL     1       2.615   6.472  19.572  0.00  0.00    +0.000 OA
BRANCH  18  19
ATOM     19  C   UNL     1       1.953   7.675  19.485  0.00  0.00    +0.000 A 
ATOM     20  C   UNL     1       1.478   8.182  20.691  0.00  0.00    +0.000 A 
ATOM     21  C   UNL     1       0.819   9.411  20.724  0.00  0.00    +0.000 A 
ATOM     22  C   UNL     1       0.660  10.152  19.550  0.00  0.00    +0.000 A 
ATOM     23  C   UNL     1       1.113   9.635  18.338  0.00  0.00    +0.000 A 
ATOM     24  C   UNL     1       1.790   8.415  18.308  0.00  0.00    +0.000 A 
BRANCH  22  25
ATOM     25  O   UNL     1       0.093  11.396  19.491  0.00  0.00    +0.000 OA
BRANCH  25  26
ATOM     26  C   UNL     1       0.521  12.284  20.526  0.00  0.00    +0.000 C 
BRANCH  26  27
ATOM     27  C   UNL     1       1.224  13.467  19.918  0.00  0.00    +0.000 A 
ATOM     28  C   UNL     1       0.492  14.508  19.329  0.00  0.00    +0.000 A 
ATOM     29  C   UNL     1       1.149  15.611  18.785  0.00  0.00    +0.000 A 
ATOM     30  C   UNL     1       2.541  15.685  18.825  0.00  0.00    +0.000 A 
ATOM     31  C   UNL     1       3.280  14.653  19.399  0.00  0.00    +0.000 A 
ATOM     32  C   UNL     1       2.624  13.549  19.944  0.00  0.00    +0.000 A 
ENDBRANCH  26  27
ENDBRANCH  25  26
ENDBRANCH  22  25
ENDBRANCH  18  19
ENDBRANCH   4  18
TORSDOF 8
ENDMDL
MODEL 8
REMARK VINA RESULT:      -7.8      3.903     10.877
REMARK  Name = 
REMARK  9 active torsions:
REMARK  status: ('A' for Active; 'I' for Inactive)
REMARK    1  A    between atoms: C_1  and  C_2
REMARK    2  A    between atoms: N_4  and  C_5
REMARK    3  A    between atoms: C_5  and  C_6
REMARK    4  A    between atoms: C_8  and  C_9
REMARK    5  A    between atoms: C_12  and  O_13
REMARK    6  A    between atoms: O_13  and  C_14
REMARK    7  A    between atoms: C_17  and  O_18
REMARK    8  A    between atoms: O_18  and  C_19
REMARK    9  A    between atoms: C_19  and  C_20
REMARK                            x       y       z     vdW  Elec       q    Type
REMARK                         _______ _______ _______ _____ _____    ______ ____
ROOT
ATOM      1  C   UNL     1       1.319   8.746  19.805  0.00  0.00    +0.000 A 
ATOM      2  C   UNL     1       1.378   7.820  20.856  0.00  0.00    +0.000 A 
ATOM      3  C   UNL     1       2.064   6.612  20.696  0.00  0.00    +0.000 A 
ATOM      4  C   UNL     1       2.695   6.323  19.486  0.00  0.00    +0.000 A 
ATOM      5  C   UNL     1       2.712   7.275  18.465  0.00  0.00    +0.000 A 
ATOM      6  C   UNL     1       2.001   8.465  18.613  0.00  0.00    +0.000 A 
ENDROOT
BRANCH   1   9
ATOM      7  C   UNL     1      -0.705  11.589  19.476  0.00  0.00    +0.000 A 
ATOM      8  N   UNL     1      -0.180  10.521  18.918  0.00  0.00    +0.000 NA
ATOM      9  C   UNL     1       0.564   9.985  19.945  0.00  0.00    +0.000 A 
ATOM     10  N   UNL     1       0.534  10.713  21.075  0.00  0.00    +0.000 NA
ATOM     11  O   UNL     1      -0.308  11.775  20.765  0.00  0.00    +0.000 OA
BRANCH   7  12
ATOM     12  C   UNL     1      -1.628  12.599  18.918  0.00  0.00    +0.000 C 
BRANCH  12  16
ATOM     13  C   UNL     1      -4.786  10.997  17.625  0.00  0.00    +0.000 C 
ATOM     14  C   UNL     1      -3.364  11.480  17.620  0.00  0.00    +0.000 C 
ATOM     15  O   UNL     1      -2.625  11.362  16.649  0.00  0.00    +0.000 OA
ATOM     16  N   UNL     1      -2.967  12.056  18.801  0.00  0.00    +0.000 N 
ATOM     17  H   UNL     1      -3.632  12.192  19.553  0.00  0.00    +0.000 HD
ENDBRANCH  12  16
ENDBRANCH   7  12
ENDBRANCH   1   9
BRANCH   4  18
ATOM     18  O   UNL     1       3.318   5.102  19.402  0.00  0.00    +0.000 OA
BRANCH  18  19
ATOM     19  C   UNL     1       4.171   4.850  18.352  0.00  0.00    +0.000 A 
ATOM     20  C   UNL     1       5.472   5.320  18.514  0.00  0.00    +0.000 A 
ATOM     21  C   UNL     1       6.428   5.092  17.524  0.00  0.00    +0.000 A 
ATOM     22  C   UNL     1       6.092   4.365  16.380  0.00  0.00    +0.000 A 
ATOM     23  C   UNL     1       4.784   3.916  16.204  0.00  0.00    +0.000 A 
ATOM     24  C   UNL     1       3.832   4.126  17.203  0.00  0.00    +0.000 A 
BRANCH  22  25
ATOM     25  O   UNL     1       6.974   4.031  15.389  0.00  0.00    +0.000 OA
BRANCH  25  26
ATOM     26  C   UNL     1       6.828   4.799  14.192  0.00  0.00    +0.000 C 
BRANCH  26  27
ATOM     27  C   UNL     1       6.313   3.918  13.086  0.00  0.00    +0.000 A 
ATOM     28  C   UNL     1       7.179   3.059  12.395  0.00  0.00    +0.000 A 
ATOM     29  C   UNL     1       6.692   2.231  11.384  0.00  0.00    +0.000 A 
ATOM     30  C   UNL     1       5.336   2.252  11.056  0.00  0.00    +0.000 A 
ATOM     31  C   UNL     1       4.467   3.107  11.730  0.00  0.00    +0.000 A 
ATOM     32  C   UNL     1       4.954   3.936  12.741  0.00  0.00    +0.000 A 
ENDBRANCH  26  27
ENDBRANCH  25  26
ENDBRANCH  22  25
ENDBRANCH  18  19
ENDBRANCH   4  18
TORSDOF 8
ENDMDL
MODEL 9
REMARK VINA RESULT:      -7.8      5.325     11.480
REMARK  Name = 
REMARK  9 active torsions:
REMARK  status: ('A' for Active; 'I' for Inactive)
REMARK    1  A    between atoms: C_1  and  C_2
REMARK    2  A    between atoms: N_4  and  C_5
REMARK    3  A    between atoms: C_5  and  C_6
REMARK    4  A    between atoms: C_8  and  C_9
REMARK    5  A    between atoms: C_12  and  O_13
REMARK    6  A    between atoms: O_13  and  C_14
REMARK    7  A    between atoms: C_17  and  O_18
REMARK    8  A    between atoms: O_18  and  C_19
REMARK    9  A    between atoms: C_19  and  C_20
REMARK                            x       y       z     vdW  Elec       q    Type
REMARK                         _______ _______ _______ _____ _____    ______ ____
ROOT
ATOM      1  C   UNL     1      -2.417  11.085  18.370  0.00  0.00    +0.000 A 
ATOM      2  C   UNL     1      -1.645  10.268  17.531  0.00  0.00    +0.000 A 
ATOM      3  C   UNL     1      -0.344   9.910  17.894  0.00  0.00    +0.000 A 
ATOM      4  C   UNL     1       0.194  10.365  19.097  0.00  0.00    +0.000 A 
ATOM      5  C   UNL     1      -0.595  11.109  19.976  0.00  0.00    +0.000 A 
ATOM      6  C   UNL     1      -1.881  11.492  19.600  0.00  0.00    +0.000 A 
ENDROOT
BRANCH   1   9
ATOM      7  C   UNL     1      -5.646  12.412  18.058  0.00  0.00    +0.000 A 
ATOM      8  N   UNL     1      -4.581  12.229  18.807  0.00  0.00    +0.000 NA
ATOM      9  C   UNL     1      -3.756  11.504  17.976  0.00  0.00    +0.000 A 
ATOM     10  N   UNL     1      -4.304  11.216  16.783  0.00  0.00    +0.000 NA
ATOM     11  O   UNL     1      -5.555  11.819  16.835  0.00  0.00    +0.000 OA
BRANCH   7  12
ATOM     12  C   UNL     1      -6.900  13.137  18.348  0.00  0.00    +0.000 C 
BRANCH  12  16
ATOM     13  C   UNL     1      -7.916  15.694  15.770  0.00  0.00    +0.000 C 
ATOM     14  C   UNL     1      -7.325  15.152  17.040  0.00  0.00    +0.000 C 
ATOM     15  O   UNL     1      -6.814  15.868  17.894  0.00  0.00    +0.000 OA
ATOM     16  N   UNL     1      -7.401  13.787  17.152  0.00  0.00    +0.000 N 
ATOM     17  H   UNL     1      -7.891  13.243  16.451  0.00  0.00    +0.000 HD
ENDBRANCH  12  16
ENDBRANCH   7  12
ENDBRANCH   1   9
BRANCH   4  18
ATOM     18  O   UNL     1       1.490   9.995  19.363  0.00  0.00    +0.000 OA
BRANCH  18  19
ATOM     19  C   UNL     1       1.858   8.676  19.224  0.00  0.00    +0.000 A 
ATOM     20  C   UNL     1       1.678   7.885  20.356  0.00  0.00    +0.000 A 
ATOM     21  C   UNL     1       1.988   6.526  20.318  0.00  0.00    +0.000 A 
ATOM     22  C   UNL     1       2.452   5.946  19.135  0.00  0.00    +0.000 A 
ATOM     23  C   UNL     1       2.657   6.741  18.008  0.00  0.00    +0.000 A 
ATOM     24  C   UNL     1       2.327   8.097  18.040  0.00  0.00    +0.000 A 
BRANCH  22  25
ATOM     25  O   UNL     1       2.716   4.613  18.978  0.00  0.00    +0.000 OA
BRANCH  25  26
ATOM     26  C   UNL     1       3.934   4.182  19.589  0.00  0.00    +0.000 C 
BRANCH  26  27
ATOM     27  C   UNL     1       5.100   4.568  18.720  0.00  0.00    +0.000 A 
ATOM     28  C   UNL     1       6.112   5.405  19.212  0.00  0.00    +0.000 A 
ATOM     29  C   UNL     1       7.200   5.742  18.407  0.00  0.00    +0.000 A 
ATOM     30  C   UNL     1       7.288   5.246  17.106  0.00  0.00    +0.000 A 
ATOM     31  C   UNL     1       6.284   4.421  16.604  0.00  0.00    +0.000 A 
ATOM     32  C   UNL     1       5.196   4.083  17.408  0.00  0.00    +0.000 A 
ENDBRANCH  26  27
ENDBRANCH  25  26
ENDBRANCH  22  25
ENDBRANCH  18  19
ENDBRANCH   4  18
TORSDOF 8
ENDMDL
