MODEL 1
REMARK VINA RESULT:      -7.8      0.000      0.000
REMARK  Name = 
REMARK  5 active torsions:
REMARK  status: ('A' for Active; 'I' for Inactive)
REMARK    1  A    between atoms: C_1  and  N_2
REMARK    2  A    between atoms: N_10  and  C_11
REMARK    3  A    between atoms: C_17  and  C_18
REMARK    4  A    between atoms: C_21  and  C_22
REMARK    5  A    between atoms: N_25  and  C_26
REMARK                            x       y       z     vdW  Elec       q    Type
REMARK                         _______ _______ _______ _____ _____    ______ ____
ROOT
ATOM      1  C   UNL     1      -0.023  12.514  21.439  0.00  0.00    +0.000 A 
ATOM      2  C   UNL     1      -0.785  13.319  22.345  0.00  0.00    +0.000 A 
ATOM      3 CL   UNL     1      -0.674  15.047  22.496  0.00  0.00    +0.000 Cl
ATOM      4  C   UNL     1      -1.638  12.728  23.276  0.00  0.00    +0.000 A 
ATOM      5  N   UNL     1      -1.811  11.407  23.415  0.00  0.00    +0.000 NA
ATOM      6  C   UNL     1      -1.106  10.643  22.557  0.00  0.00    +0.000 A 
ATOM      7  C   UNL     1      -0.216  11.091  21.555  0.00  0.00    +0.000 A 
ENDROOT
BRANCH   1  17
ATOM      8  C   UNL     1       3.343  17.223  20.114  0.00  0.00    +0.000 C 
ATOM      9  N   UNL     1       2.846  16.513  18.944  0.00  0.00    +0.000 NA
ATOM     10  C   UNL     1       3.806  16.580  17.856  0.00  0.00    +0.000 C 
ATOM     11  N   UNL     1       3.689  15.342  17.175  0.00  0.00    +0.000 N 
ATOM     12  C   UNL     1       3.219  14.365  18.012  0.00  0.00    +0.000 C 
ATOM     13  O   UNL     1       3.352  13.169  17.809  0.00  0.00    +0.000 OA
ATOM     14  C   UNL     1       2.487  15.072  19.165  0.00  0.00    +0.000 C 
ATOM     15  C   UNL     1       2.900  14.522  20.530  0.00  0.00    +0.000 C 
ATOM     16  C   UNL     1       2.341  13.142  20.795  0.00  0.00    +0.000 C 
ATOM     17  N   UNL     1       0.895  13.111  20.558  0.00  0.00    +0.000 N 
ATOM     18  C   UNL     1       0.520  13.458  19.180  0.00  0.00    +0.000 C 
ATOM     19  C   UNL     1       0.974  14.901  18.910  0.00  0.00    +0.000 C 
ATOM     20  H   UNL     1       4.265  15.081  16.386  0.00  0.00    +0.000 HD
ENDBRANCH   1  17
BRANCH   7  21
ATOM     21  C   UNL     1       0.420  10.029  20.716  0.00  0.00    +0.000 A 
ATOM     22  C   UNL     1       0.501  10.128  19.321  0.00  0.00    +0.000 A 
ATOM     23  C   UNL     1       1.300   9.259  18.568  0.00  0.00    +0.000 A 
ATOM     24  C   UNL     1       1.884   8.142  19.162  0.00  0.00    +0.000 A 
ATOM     25  C   UNL     1       1.682   7.933  20.526  0.00  0.00    +0.000 A 
ATOM     26  C   UNL     1       0.994   8.875  21.295  0.00  0.00    +0.000 A 
BRANCH  24  27
ATOM     27  C   UNL     1       2.688   7.212  18.394  0.00  0.00    +0.000 A 
ATOM     28  C   UNL     1       3.797   7.434  17.543  0.00  0.00    +0.000 A 
ATOM     29  N   UNL     1       4.292   6.305  17.034  0.00  0.00    +0.000 NA
ATOM     30  N   UNL     1       3.501   5.360  17.561  0.00  0.00    +0.000 N 
ATOM     31  C   UNL     1       3.748   3.957  17.266  0.00  0.00    +0.000 C 
ATOM     32  C   UNL     1       2.515   5.845  18.365  0.00  0.00    +0.000 A 
ENDBRANCH  24  27
ENDBRANCH   7  21
TORSDOF 3
ENDMDL
MODEL 2
REMARK VINA RESULT:      -7.6      0.621      1.243
REMARK  Name = 
REMARK  5 active torsions:
REMARK  status: ('A' for Active; 'I' for Inactive)
REMARK    1  A    between atoms: C_1  and  N_2
REMARK    2  A    between atoms: N_10  and  C_11
REMARK    3  A    between atoms: C_17  and  C_18
REMARK    4  A    between atoms: C_21  and  C_22
REMARK    5  A    between atoms: N_25  and  C_26
REMARK                            x       y       z     vdW  Elec       q    Type
REMARK                         _______ _______ _______ _____ _____    ______ ____
ROOT
ATOM      1  C   UNL     1       0.018  12.130  21.371  0.00  0.00    +0.000 A 
ATOM      2  C   UNL     1      -0.895  12.857  22.200  0.00  0.00    +0.000 A 
ATOM      3 CL   UNL     1      -1.017  14.588  22.290  0.00  0.00    +0.000 Cl
ATOM      4  C   UNL     1      -1.719  12.188  23.105  0.00  0.00    +0.000 A 
ATOM      5  N   UNL     1      -1.728  10.861  23.286  0.00  0.00    +0.000 NA
ATOM      6  C   UNL     1      -0.879  10.170  22.499  0.00  0.00    +0.000 A 
ATOM      7  C   UNL     1       0.004  10.699  21.532  0.00  0.00    +0.000 A 
ENDROOT
BRANCH   1  17
ATOM      8  C   UNL     1       2.813  17.199  20.045  0.00  0.00    +0.000 C 
ATOM      9  N   UNL     1       2.486  16.390  18.878  0.00  0.00    +0.000 NA
ATOM     10  C   UNL     1       3.495  16.548  17.846  0.00  0.00    +0.000 C 
ATOM     11  N   UNL     1       3.584  15.283  17.210  0.00  0.00    +0.000 N 
ATOM     12  C   UNL     1       3.195  14.281  18.060  0.00  0.00    +0.000 C 
ATOM     13  O   UNL     1       3.496  13.108  17.914  0.00  0.00    +0.000 OA
ATOM     14  C   UNL     1       2.306  14.922  19.139  0.00  0.00    +0.000 C 
ATOM     15  C   UNL     1       2.703  14.479  20.546  0.00  0.00    +0.000 C 
ATOM     16  C   UNL     1       2.315  13.046  20.836  0.00  0.00    +0.000 C 
ATOM     17  N   UNL     1       0.903  12.814  20.519  0.00  0.00    +0.000 N 
ATOM     18  C   UNL     1       0.571  13.062  19.109  0.00  0.00    +0.000 C 
ATOM     19  C   UNL     1       0.848  14.543  18.806  0.00  0.00    +0.000 C 
ATOM     20  H   UNL     1       4.237  15.075  16.467  0.00  0.00    +0.000 HD
ENDBRANCH   1  17
BRANCH   7  21
ATOM     21  C   UNL     1       0.821   9.703  20.771  0.00  0.00    +0.000 A 
ATOM     22  C   UNL     1       1.370   8.567  21.379  0.00  0.00    +0.000 A 
ATOM     23  C   UNL     1       1.924   7.525  20.626  0.00  0.00    +0.000 A 
ATOM     24  C   UNL     1       2.127   7.674  19.255  0.00  0.00    +0.000 A 
ATOM     25  C   UNL     1       1.733   8.868  18.651  0.00  0.00    +0.000 A 
ATOM     26  C   UNL     1       1.062   9.848  19.386  0.00  0.00    +0.000 A 
BRANCH  24  27
ATOM     27  C   UNL     1       2.728   6.621  18.462  0.00  0.00    +0.000 A 
ATOM     28  C   UNL     1       2.316   5.287  18.234  0.00  0.00    +0.000 A 
ATOM     29  N   UNL     1       3.131   4.628  17.408  0.00  0.00    +0.000 NA
ATOM     30  N   UNL     1       4.063   5.542  17.106  0.00  0.00    +0.000 N 
ATOM     31  C   UNL     1       5.134   5.210  16.179  0.00  0.00    +0.000 C 
ATOM     32  C   UNL     1       3.884   6.743  17.720  0.00  0.00    +0.000 A 
ENDBRANCH  24  27
ENDBRANCH   7  21
TORSDOF 3
ENDMDL
MODEL 3
REMARK VINA RESULT:      -7.6      0.673      1.129
REMARK  Name = 
REMARK  5 active torsions:
REMARK  status: ('A' for Active; 'I' for Inactive)
REMARK    1  A    between atoms: C_1  and  N_2
REMARK    2  A    between atoms: N_10  and  C_11
REMARK    3  A    between atoms: C_17  and  C_18
REMARK    4  A    between atoms: C_21  and  C_22
REMARK    5  A    between atoms: N_25  and  C_26
REMARK                            x       y       z     vdW  Elec       q    Type
REMARK                         _______ _______ _______ _____ _____    ______ ____
ROOT
ATOM      1  C   UNL     1      -0.211  12.640  21.515  0.00  0.00    +0.000 A 
ATOM      2  C   UNL     1      -1.127  13.470  22.239  0.00  0.00    +0.000 A 
ATOM      3 CL   UNL     1      -1.199  15.205  22.154  0.00  0.00    +0.000 Cl
ATOM      4  C   UNL     1      -1.999  12.917  23.175  0.00  0.00    +0.000 A 
ATOM      5  N   UNL     1      -2.055  11.614  23.484  0.00  0.00    +0.000 NA
ATOM      6  C   UNL     1      -1.203  10.826  22.798  0.00  0.00    +0.000 A 
ATOM      7  C   UNL     1      -0.275  11.232  21.815  0.00  0.00    +0.000 A 
ENDROOT
BRANCH   1  17
ATOM      8  C   UNL     1       3.039  17.376  20.009  0.00  0.00    +0.000 C 
ATOM      9  N   UNL     1       2.615  16.573  18.870  0.00  0.00    +0.000 NA
ATOM     10  C   UNL     1       3.616  16.605  17.818  0.00  0.00    +0.000 C 
ATOM     11  N   UNL     1       3.570  15.321  17.217  0.00  0.00    +0.000 N 
ATOM     12  C   UNL     1       3.101  14.384  18.099  0.00  0.00    +0.000 C 
ATOM     13  O   UNL     1       3.284  13.183  17.982  0.00  0.00    +0.000 OA
ATOM     14  C   UNL     1       2.298  15.136  19.174  0.00  0.00    +0.000 C 
ATOM     15  C   UNL     1       2.674  14.693  20.587  0.00  0.00    +0.000 C 
ATOM     16  C   UNL     1       2.154  13.313  20.921  0.00  0.00    +0.000 C 
ATOM     17  N   UNL     1       0.721  13.212  20.632  0.00  0.00    +0.000 N 
ATOM     18  C   UNL     1       0.390  13.454  19.221  0.00  0.00    +0.000 C 
ATOM     19  C   UNL     1       0.803  14.893  18.873  0.00  0.00    +0.000 C 
ATOM     20  H   UNL     1       4.186  15.031  16.470  0.00  0.00    +0.000 HD
ENDBRANCH   1  17
BRANCH   7  21
ATOM     21  C   UNL     1       0.535  10.145  21.184  0.00  0.00    +0.000 A 
ATOM     22  C   UNL     1       1.131   9.125  21.935  0.00  0.00    +0.000 A 
ATOM     23  C   UNL     1       1.679   7.988  21.330  0.00  0.00    +0.000 A 
ATOM     24  C   UNL     1       1.827   7.927  19.945  0.00  0.00    +0.000 A 
ATOM     25  C   UNL     1       1.385   9.008  19.181  0.00  0.00    +0.000 A 
ATOM     26  C   UNL     1       0.721  10.078  19.784  0.00  0.00    +0.000 A 
BRANCH  24  27
ATOM     27  C   UNL     1       2.421   6.774  19.299  0.00  0.00    +0.000 A 
ATOM     28  C   UNL     1       3.161   6.668  18.097  0.00  0.00    +0.000 A 
ATOM     29  N   UNL     1       3.569   5.422  17.849  0.00  0.00    +0.000 NA
ATOM     30  N   UNL     1       3.091   4.731  18.894  0.00  0.00    +0.000 N 
ATOM     31  C   UNL     1       3.363   3.307  19.010  0.00  0.00    +0.000 C 
ATOM     32  C   UNL     1       2.382   5.483  19.781  0.00  0.00    +0.000 A 
ENDBRANCH  24  27
ENDBRANCH   7  21
TORSDOF 3
ENDMDL
MODEL 4
REMARK VINA RESULT:      -7.6      3.940      8.979
REMARK  Name = 
REMARK  5 active torsions:
REMARK  status: ('A' for Active; 'I' for Inactive)
REMARK    1  A    between atoms: C_1  and  N_2
REMARK    2  A    between atoms: N_10  and  C_11
REMARK    3  A    between atoms: C_17  and  C_18
REMARK    4  A    between atoms: C_21  and  C_22
REMARK    5  A    between atoms: N_25  and  C_26
REMARK                            x       y       z     vdW  Elec       q    Type
REMARK                         _______ _______ _______ _____ _____    ______ ____
ROOT
ATOM      1  C   UNL     1       3.035   4.154  19.510  0.00  0.00    +0.000 A 
ATOM      2  C   UNL     1       2.988   2.740  19.733  0.00  0.00    +0.000 A 
ATOM      3 CL   UNL     1       4.033   1.567  18.991  0.00  0.00    +0.000 Cl
ATOM      4  C   UNL     1       1.988   2.179  20.526  0.00  0.00    +0.000 A 
ATOM      5  N   UNL     1       1.010   2.876  21.121  0.00  0.00    +0.000 NA
ATOM      6  C   UNL     1       1.056   4.209  20.925  0.00  0.00    +0.000 A 
ATOM      7  C   UNL     1       2.007   4.923  20.164  0.00  0.00    +0.000 A 
ENDROOT
BRANCH   1  17
ATOM      8  C   UNL     1       6.186   3.630  14.504  0.00  0.00    +0.000 C 
ATOM      9  N   UNL     1       6.887   4.343  15.563  0.00  0.00    +0.000 NA
ATOM     10  C   UNL     1       7.755   5.365  15.006  0.00  0.00    +0.000 C 
ATOM     11  N   UNL     1       7.732   6.430  15.943  0.00  0.00    +0.000 N 
ATOM     12  C   UNL     1       6.571   6.415  16.671  0.00  0.00    +0.000 C 
ATOM     13  O   UNL     1       6.133   7.380  17.276  0.00  0.00    +0.000 OA
ATOM     14  C   UNL     1       6.011   4.985  16.601  0.00  0.00    +0.000 C 
ATOM     15  C   UNL     1       4.520   4.969  16.265  0.00  0.00    +0.000 C 
ATOM     16  C   UNL     1       3.659   5.432  17.419  0.00  0.00    +0.000 C 
ATOM     17  N   UNL     1       3.996   4.705  18.645  0.00  0.00    +0.000 N 
ATOM     18  C   UNL     1       5.393   4.884  19.067  0.00  0.00    +0.000 C 
ATOM     19  C   UNL     1       6.301   4.320  17.963  0.00  0.00    +0.000 C 
ATOM     20  H   UNL     1       8.219   7.305  15.808  0.00  0.00    +0.000 HD
ENDBRANCH   1  17
BRANCH   7  21
ATOM     21  C   UNL     1       1.844   6.409  20.133  0.00  0.00    +0.000 A 
ATOM     22  C   UNL     1       2.200   7.177  19.017  0.00  0.00    +0.000 A 
ATOM     23  C   UNL     1       1.827   8.522  18.900  0.00  0.00    +0.000 A 
ATOM     24  C   UNL     1       1.261   9.195  19.981  0.00  0.00    +0.000 A 
ATOM     25  C   UNL     1       1.045   8.488  21.165  0.00  0.00    +0.000 A 
ATOM     26  C   UNL     1       1.298   7.116  21.228  0.00  0.00    +0.000 A 
BRANCH  24  27
ATOM     27  C   UNL     1       0.898  10.595  19.893  0.00  0.00    +0.000 A 
ATOM     28  C   UNL     1       1.071  11.654  20.815  0.00  0.00    +0.000 A 
ATOM     29  N   UNL     1       0.625  12.823  20.350  0.00  0.00    +0.000 NA
ATOM     30  N   UNL     1       0.167  12.510  19.129  0.00  0.00    +0.000 N 
ATOM     31  C   UNL     1      -0.380  13.549  18.270  0.00  0.00    +0.000 C 
ATOM     32  C   UNL     1       0.287  11.192  18.811  0.00  0.00    +0.000 A 
ENDBRANCH  24  27
ENDBRANCH   7  21
TORSDOF 3
ENDMDL
MODEL 5
REMARK VINA RESULT:      -7.5      1.674      2.479
REMARK  Name = 
REMARK  5 active torsions:
REMARK  status: ('A' for Active; 'I' for Inactive)
REMARK    1  A    between atoms: C_1  and  N_2
REMARK    2  A    between atoms: N_10  and  C_11
REMARK    3  A    between atoms: C_17  and  C_18
REMARK    4  A    between atoms: C_21  and  C_22
REMARK    5  A    between atoms: N_25  and  C_26
REMARK                            x       y       z     vdW  Elec       q    Type
REMARK                         _______ _______ _______ _____ _____    ______ ____
ROOT
ATOM      1  C   UNL     1      -1.403  13.726  22.161  0.00  0.00    +0.000 A 
ATOM      2  C   UNL     1      -2.266  14.595  22.903  0.00  0.00    +0.000 A 
ATOM      3 CL   UNL     1      -2.159  16.329  22.942  0.00  0.00    +0.000 Cl
ATOM      4  C   UNL     1      -3.234  14.073  23.760  0.00  0.00    +0.000 A 
ATOM      5  N   UNL     1      -3.434  12.765  23.972  0.00  0.00    +0.000 NA
ATOM      6  C   UNL     1      -2.634  11.941  23.266  0.00  0.00    +0.000 A 
ATOM      7  C   UNL     1      -1.622  12.315  22.354  0.00  0.00    +0.000 A 
ENDROOT
BRANCH   1  17
ATOM      8  C   UNL     1       2.683  12.800  17.953  0.00  0.00    +0.000 C 
ATOM      9  N   UNL     1       3.069  13.810  18.929  0.00  0.00    +0.000 NA
ATOM     10  C   UNL     1       3.883  14.839  18.308  0.00  0.00    +0.000 C 
ATOM     11  N   UNL     1       3.541  16.043  18.975  0.00  0.00    +0.000 N 
ATOM     12  C   UNL     1       2.275  15.971  19.495  0.00  0.00    +0.000 C 
ATOM     13  O   UNL     1       1.605  16.945  19.798  0.00  0.00    +0.000 OA
ATOM     14  C   UNL     1       1.934  14.480  19.650  0.00  0.00    +0.000 C 
ATOM     15  C   UNL     1       0.550  14.147  19.093  0.00  0.00    +0.000 C 
ATOM     16  C   UNL     1      -0.569  14.669  19.967  0.00  0.00    +0.000 C 
ATOM     17  N   UNL     1      -0.377  14.257  21.361  0.00  0.00    +0.000 N 
ATOM     18  C   UNL     1       0.877  14.748  21.949  0.00  0.00    +0.000 C 
ATOM     19  C   UNL     1       2.045  14.145  21.153  0.00  0.00    +0.000 C 
ATOM     20  H   UNL     1       3.924  16.947  18.732  0.00  0.00    +0.000 HD
ENDBRANCH   1  17
BRANCH   7  21
ATOM     21  C   UNL     1      -0.896  11.195  21.681  0.00  0.00    +0.000 A 
ATOM     22  C   UNL     1      -0.947  10.997  20.295  0.00  0.00    +0.000 A 
ATOM     23  C   UNL     1      -0.085  10.106  19.646  0.00  0.00    +0.000 A 
ATOM     24  C   UNL     1       0.719   9.237  20.383  0.00  0.00    +0.000 A 
ATOM     25  C   UNL     1       0.668   9.305  21.776  0.00  0.00    +0.000 A 
ATOM     26  C   UNL     1      -0.096  10.287  22.411  0.00  0.00    +0.000 A 
BRANCH  24  27
ATOM     27  C   UNL     1       1.596   8.285  19.733  0.00  0.00    +0.000 A 
ATOM     28  C   UNL     1       2.178   8.297  18.443  0.00  0.00    +0.000 A 
ATOM     29  N   UNL     1       2.962   7.240  18.220  0.00  0.00    +0.000 NA
ATOM     30  N   UNL     1       2.881   6.552  19.368  0.00  0.00    +0.000 N 
ATOM     31  C   UNL     1       3.642   5.325  19.535  0.00  0.00    +0.000 C 
ATOM     32  C   UNL     1       2.065   7.119  20.299  0.00  0.00    +0.000 A 
ENDBRANCH  24  27
ENDBRANCH   7  21
TORSDOF 3
ENDMDL
MODEL 6
REMARK VINA RESULT:      -7.4      1.719      2.786
REMARK  Name = 
REMARK  5 active torsions:
REMARK  status: ('A' for Active; 'I' for Inactive)
REMARK    1  A    between atoms: C_1  and  N_2
REMARK    2  A    between atoms: N_10  and  C_11
REMARK    3  A    between atoms: C_17  and  C_18
REMARK    4  A    between atoms: C_21  and  C_22
REMARK    5  A    between atoms: N_25  and  C_26
REMARK                            x       y       z     vdW  Elec       q    Type
REMARK                         _______ _______ _______ _____ _____    ______ ____
ROOT
ATOM      1  C   UNL     1      -1.572  13.582  22.180  0.00  0.00    +0.000 A 
ATOM      2  C   UNL     1      -2.593  14.389  22.777  0.00  0.00    +0.000 A 
ATOM      3 CL   UNL     1      -2.713  16.118  22.651  0.00  0.00    +0.000 Cl
ATOM      4  C   UNL     1      -3.548  13.819  23.617  0.00  0.00    +0.000 A 
ATOM      5  N   UNL     1      -3.595  12.521  23.943  0.00  0.00    +0.000 NA
ATOM      6  C   UNL     1      -2.644  11.753  23.374  0.00  0.00    +0.000 A 
ATOM      7  C   UNL     1      -1.622  12.177  22.497  0.00  0.00    +0.000 A 
ENDROOT
BRANCH   1  17
ATOM      8  C   UNL     1       2.609  12.910  18.016  0.00  0.00    +0.000 C 
ATOM      9  N   UNL     1       2.930  13.928  19.008  0.00  0.00    +0.000 NA
ATOM     10  C   UNL     1       3.699  15.004  18.408  0.00  0.00    +0.000 C 
ATOM     11  N   UNL     1       3.288  16.181  19.083  0.00  0.00    +0.000 N 
ATOM     12  C   UNL     1       2.021  16.040  19.586  0.00  0.00    +0.000 C 
ATOM     13  O   UNL     1       1.299  16.975  19.890  0.00  0.00    +0.000 OA
ATOM     14  C   UNL     1       1.754  14.531  19.721  0.00  0.00    +0.000 C 
ATOM     15  C   UNL     1       0.396  14.135  19.143  0.00  0.00    +0.000 C 
ATOM     16  C   UNL     1      -0.759  14.590  20.007  0.00  0.00    +0.000 C 
ATOM     17  N   UNL     1      -0.564  14.173  21.399  0.00  0.00    +0.000 N 
ATOM     18  C   UNL     1       0.656  14.720  22.008  0.00  0.00    +0.000 C 
ATOM     19  C   UNL     1       1.864  14.186  21.221  0.00  0.00    +0.000 C 
ATOM     20  H   UNL     1       3.628  17.105  18.854  0.00  0.00    +0.000 HD
ENDBRANCH   1  17
BRANCH   7  21
ATOM     21  C   UNL     1      -0.709  11.109  21.984  0.00  0.00    +0.000 A 
ATOM     22  C   UNL     1      -0.124  10.157  22.828  0.00  0.00    +0.000 A 
ATOM     23  C   UNL     1       0.529   9.027  22.322  0.00  0.00    +0.000 A 
ATOM     24  C   UNL     1       0.793   8.915  20.958  0.00  0.00    +0.000 A 
ATOM     25  C   UNL     1       0.360   9.936  20.112  0.00  0.00    +0.000 A 
ATOM     26  C   UNL     1      -0.406  10.993  20.609  0.00  0.00    +0.000 A 
BRANCH  24  27
ATOM     27  C   UNL     1       1.496   7.770  20.417  0.00  0.00    +0.000 A 
ATOM     28  C   UNL     1       1.611   6.444  20.898  0.00  0.00    +0.000 A 
ATOM     29  N   UNL     1       2.329   5.661  20.091  0.00  0.00    +0.000 NA
ATOM     30  N   UNL     1       2.673   6.486  19.092  0.00  0.00    +0.000 N 
ATOM     31  C   UNL     1       3.448   5.985  17.969  0.00  0.00    +0.000 C 
ATOM     32  C   UNL     1       2.219   7.761  19.243  0.00  0.00    +0.000 A 
ENDBRANCH  24  27
ENDBRANCH   7  21
TORSDOF 3
ENDMDL
MODEL 7
REMARK VINA RESULT:      -7.3      6.426      8.894
REMARK  Name = 
REMARK  5 active torsions:
REMARK  status: ('A' for Active; 'I' for Inactive)
REMARK    1  A    between atoms: C_1  and  N_2
REMARK    2  A    between atoms: N_10  and  C_11
REMARK    3  A    between atoms: C_17  and  C_18
REMARK    4  A    between atoms: C_21  and  C_22
REMARK    5  A    between atoms: N_25  and  C_26
REMARK                            x       y       z     vdW  Elec       q    Type
REMARK                         _______ _______ _______ _____ _____    ______ ____
ROOT
ATOM      1  C   UNL     1      10.396  15.110  19.463  0.00  0.00    +0.000 A 
ATOM      2  C   UNL     1      11.192  16.277  19.228  0.00  0.00    +0.000 A 
ATOM      3 CL   UNL     1      11.161  17.729  20.185  0.00  0.00    +0.000 Cl
ATOM      4  C   UNL     1      12.013  16.363  18.105  0.00  0.00    +0.000 A 
ATOM      5  N   UNL     1      12.125  15.409  17.172  0.00  0.00    +0.000 NA
ATOM      6  C   UNL     1      11.387  14.302  17.393  0.00  0.00    +0.000 A 
ATOM      7  C   UNL     1      10.523  14.061  18.484  0.00  0.00    +0.000 A 
ENDROOT
BRANCH   1  17
ATOM      8  C   UNL     1       7.177  11.785  23.183  0.00  0.00    +0.000 C 
ATOM      9  N   UNL     1       6.580  13.082  22.895  0.00  0.00    +0.000 NA
ATOM     10  C   UNL     1       5.849  13.578  24.046  0.00  0.00    +0.000 C 
ATOM     11  N   UNL     1       6.015  14.987  24.019  0.00  0.00    +0.000 N 
ATOM     12  C   UNL     1       7.168  15.330  23.364  0.00  0.00    +0.000 C 
ATOM     13  O   UNL     1       7.732  16.405  23.491  0.00  0.00    +0.000 OA
ATOM     14  C   UNL     1       7.538  14.150  22.449  0.00  0.00    +0.000 C 
ATOM     15  C   UNL     1       9.012  13.767  22.575  0.00  0.00    +0.000 C 
ATOM     16  C   UNL     1       9.932  14.778  21.927  0.00  0.00    +0.000 C 
ATOM     17  N   UNL     1       9.510  15.062  20.553  0.00  0.00    +0.000 N 
ATOM     18  C   UNL     1       8.151  15.613  20.461  0.00  0.00    +0.000 C 
ATOM     19  C   UNL     1       7.171  14.564  21.008  0.00  0.00    +0.000 C 
ATOM     20  H   UNL     1       5.645  15.608  24.726  0.00  0.00    +0.000 HD
ENDBRANCH   1  17
BRANCH   7  21
ATOM     21  C   UNL     1       9.842  12.730  18.503  0.00  0.00    +0.000 A 
ATOM     22  C   UNL     1       8.736  12.445  17.692  0.00  0.00    +0.000 A 
ATOM     23  C   UNL     1       8.255  11.139  17.537  0.00  0.00    +0.000 A 
ATOM     24  C   UNL     1       8.738  10.107  18.341  0.00  0.00    +0.000 A 
ATOM     25  C   UNL     1       9.731  10.403  19.275  0.00  0.00    +0.000 A 
ATOM     26  C   UNL     1      10.297  11.679  19.331  0.00  0.00    +0.000 A 
BRANCH  24  27
ATOM     27  C   UNL     1       8.232   8.756  18.219  0.00  0.00    +0.000 A 
ATOM     28  C   UNL     1       8.525   7.589  18.965  0.00  0.00    +0.000 A 
ATOM     29  N   UNL     1       7.823   6.528  18.563  0.00  0.00    +0.000 NA
ATOM     30  N   UNL     1       7.079   7.017  17.560  0.00  0.00    +0.000 N 
ATOM     31  C   UNL     1       6.131   6.155  16.871  0.00  0.00    +0.000 C 
ATOM     32  C   UNL     1       7.295   8.335  17.299  0.00  0.00    +0.000 A 
ENDBRANCH  24  27
ENDBRANCH   7  21
TORSDOF 3
ENDMDL
MODEL 8
REMARK VINA RESULT:      -7.3      1.069      1.288
REMARK  Name = 
REMARK  5 active torsions:
REMARK  status: ('A' for Active; 'I' for Inactive)
REMARK    1  A    between atoms: C_1  and  N_2
REMARK    2  A    between atoms: N_10  and  C_11
REMARK    3  A    between atoms: C_17  and  C_18
REMARK    4  A    between atoms: C_21  and  C_22
REMARK    5  A    between atoms: N_25  and  C_26
REMARK                            x       y       z     vdW  Elec       q    Type
REMARK                         _______ _______ _______ _____ _____    ______ ____
ROOT
ATOM      1  C   UNL     1       0.286  11.310  21.217  0.00  0.00    +0.000 A 
ATOM      2  C   UNL     1      -0.546  11.852  22.248  0.00  0.00    +0.000 A 
ATOM      3 CL   UNL     1      -0.731  13.543  22.610  0.00  0.00    +0.000 Cl
ATOM      4  C   UNL     1      -1.219  11.012  23.133  0.00  0.00    +0.000 A 
ATOM      5  N   UNL     1      -1.147   9.674  23.114  0.00  0.00    +0.000 NA
ATOM      6  C   UNL     1      -0.375   9.156  22.137  0.00  0.00    +0.000 A 
ATOM      7  C   UNL     1       0.355   9.872  21.162  0.00  0.00    +0.000 A 
ENDROOT
BRANCH   1  17
ATOM      8  C   UNL     1       2.222  16.808  20.081  0.00  0.00    +0.000 C 
ATOM      9  N   UNL     1       1.985  16.013  18.883  0.00  0.00    +0.000 NA
ATOM     10  C   UNL     1       2.921  16.374  17.834  0.00  0.00    +0.000 C 
ATOM     11  N   UNL     1       3.182  15.169  17.132  0.00  0.00    +0.000 N 
ATOM     12  C   UNL     1       2.981  14.080  17.939  0.00  0.00    +0.000 C 
ATOM     13  O   UNL     1       3.453  12.976  17.725  0.00  0.00    +0.000 OA
ATOM     14  C   UNL     1       2.041  14.524  19.073  0.00  0.00    +0.000 C 
ATOM     15  C   UNL     1       2.549  14.082  20.445  0.00  0.00    +0.000 C 
ATOM     16  C   UNL     1       2.395  12.595  20.670  0.00  0.00    +0.000 C 
ATOM     17  N   UNL     1       1.026  12.162  20.379  0.00  0.00    +0.000 N 
ATOM     18  C   UNL     1       0.612  12.421  18.992  0.00  0.00    +0.000 C 
ATOM     19  C   UNL     1       0.648  13.939  18.759  0.00  0.00    +0.000 C 
ATOM     20  H   UNL     1       3.833  15.100  16.362  0.00  0.00    +0.000 HD
ENDBRANCH   1  17
BRANCH   7  21
ATOM     21  C   UNL     1       1.112   9.048  20.171  0.00  0.00    +0.000 A 
ATOM     22  C   UNL     1       1.327   9.474  18.854  0.00  0.00    +0.000 A 
ATOM     23  C   UNL     1       2.230   8.821  18.007  0.00  0.00    +0.000 A 
ATOM     24  C   UNL     1       2.797   7.603  18.382  0.00  0.00    +0.000 A 
ATOM     25  C   UNL     1       2.469   7.075  19.631  0.00  0.00    +0.000 A 
ATOM     26  C   UNL     1       1.672   7.799  20.521  0.00  0.00    +0.000 A 
BRANCH  24  27
ATOM     27  C   UNL     1       3.709   6.894  17.509  0.00  0.00    +0.000 A 
ATOM     28  C   UNL     1       4.635   7.375  16.552  0.00  0.00    +0.000 A 
ATOM     29  N   UNL     1       5.324   6.397  15.962  0.00  0.00    +0.000 NA
ATOM     30  N   UNL     1       4.840   5.290  16.542  0.00  0.00    +0.000 N 
ATOM     31  C   UNL     1       5.378   3.987  16.183  0.00  0.00    +0.000 C 
ATOM     32  C   UNL     1       3.861   5.524  17.459  0.00  0.00    +0.000 A 
ENDBRANCH  24  27
ENDBRANCH   7  21
TORSDOF 3
ENDMDL
MODEL 9
REMARK VINA RESULT:      -7.2      2.074      3.012
REMARK  Name = 
REMARK  5 active torsions:
REMARK  status: ('A' for Active; 'I' for Inactive)
REMARK    1  A    between atoms: C_1  and  N_2
REMARK    2  A    between atoms: N_10  and  C_11
REMARK    3  A    between atoms: C_17  and  C_18
REMARK    4  A    between atoms: C_21  and  C_22
REMARK    5  A    between atoms: N_25  and  C_26
REMARK                            x       y       z     vdW  Elec       q    Type
REMARK                         _______ _______ _______ _____ _____    ______ ____
ROOT
ATOM      1  C   UNL     1      -1.907  14.142  22.595  0.00  0.00    +0.000 A 
ATOM      2  C   UNL     1      -2.771  14.848  23.492  0.00  0.00    +0.000 A 
ATOM      3 CL   UNL     1      -2.720  16.556  23.807  0.00  0.00    +0.000 Cl
ATOM      4  C   UNL     1      -3.691  14.159  24.281  0.00  0.00    +0.000 A 
ATOM      5  N   UNL     1      -3.841  12.827  24.285  0.00  0.00    +0.000 NA
ATOM      6  C   UNL     1      -3.039  12.158  23.434  0.00  0.00    +0.000 A 
ATOM      7  C   UNL     1      -2.073  12.711  22.565  0.00  0.00    +0.000 A 
ENDROOT
BRANCH   1  17
ATOM      8  C   UNL     1       2.186  14.002  18.295  0.00  0.00    +0.000 C 
ATOM      9  N   UNL     1       2.514  14.912  19.384  0.00  0.00    +0.000 NA
ATOM     10  C   UNL     1       3.252  16.060  18.888  0.00  0.00    +0.000 C 
ATOM     11  N   UNL     1       2.837  17.150  19.696  0.00  0.00    +0.000 N 
ATOM     12  C   UNL     1       1.585  16.932  20.207  0.00  0.00    +0.000 C 
ATOM     13  O   UNL     1       0.855  17.815  20.627  0.00  0.00    +0.000 OA
ATOM     14  C   UNL     1       1.345  15.413  20.183  0.00  0.00    +0.000 C 
ATOM     15  C   UNL     1      -0.019  15.057  19.594  0.00  0.00    +0.000 C 
ATOM     16  C   UNL     1      -1.161  15.394  20.528  0.00  0.00    +0.000 C 
ATOM     17  N   UNL     1      -0.927  14.833  21.861  0.00  0.00    +0.000 N 
ATOM     18  C   UNL     1       0.298  15.333  22.500  0.00  0.00    +0.000 C 
ATOM     19  C   UNL     1       1.495  14.910  21.635  0.00  0.00    +0.000 C 
ATOM     20  H   UNL     1       3.157  18.100  19.561  0.00  0.00    +0.000 HD
ENDBRANCH   1  17
BRANCH   7  21
ATOM     21  C   UNL     1      -1.334  11.741  21.698  0.00  0.00    +0.000 A 
ATOM     22  C   UNL     1      -1.486  11.717  20.306  0.00  0.00    +0.000 A 
ATOM     23  C   UNL     1      -0.624  10.980  19.485  0.00  0.00    +0.000 A 
ATOM     24  C   UNL     1       0.291  10.087  20.041  0.00  0.00    +0.000 A 
ATOM     25  C   UNL     1       0.349   9.975  21.430  0.00  0.00    +0.000 A 
ATOM     26  C   UNL     1      -0.422  10.810  22.243  0.00  0.00    +0.000 A 
BRANCH  24  27
ATOM     27  C   UNL     1       1.170   9.291  19.209  0.00  0.00    +0.000 A 
ATOM     28  C   UNL     1       1.628   9.499  17.886  0.00  0.00    +0.000 A 
ATOM     29  N   UNL     1       2.462   8.543  17.471  0.00  0.00    +0.000 NA
ATOM     30  N   UNL     1       2.538   7.725  18.530  0.00  0.00    +0.000 N 
ATOM     31  C   UNL     1       3.400   6.555  18.484  0.00  0.00    +0.000 C 
ATOM     32  C   UNL     1       1.774   8.112  19.589  0.00  0.00    +0.000 A 
ENDBRANCH  24  27
ENDBRANCH   7  21
TORSDOF 3
ENDMDL
