MODEL 1
REMARK VINA RESULT:      -4.0      0.000      0.000
REMARK  Name = 
REMARK  5 active torsions:
REMARK  status: ('A' for Active; 'I' for Inactive)
REMARK    1  A    between atoms: N_1  and  CA_2
REMARK    2  A    between atoms: CA_2  and  C_3
REMARK    3  A    between atoms: CA_2  and  C_6
REMARK    4  A    between atoms: C_3  and  C_4
REMARK    5  A    between atoms: C_6  and  OXT_8
REMARK                            x       y       z     vdW  Elec       q    Type
REMARK                         _______ _______ _______ _____ _____    ______ ____
ROOT
ATOM      1  CA  UNL     1       6.671   4.564  16.912  0.00  0.00    +0.000 C 
ENDROOT
BRANCH   1   2
ATOM      2  N   UNL     1       8.041   4.183  17.372  0.00  0.00    +0.000 NA
ATOM      3  H1  UNL     1       8.082   4.201  18.393  0.00  0.00    +0.000 HD
ATOM      4  H2  UNL     1       8.710   4.894  17.057  0.00  0.00    +0.000 HD
ENDBRANCH   1   2
BRANCH   1   5
ATOM      5  C   UNL     1       6.741   6.014  16.399  0.00  0.00    +0.000 C 
ATOM      6  O   UNL     1       7.660   6.793  16.580  0.00  0.00    +0.000 OA
BRANCH   5   7
ATOM      7  OXT UNL     1       5.616   6.337  15.705  0.00  0.00    +0.000 OA
ATOM      8  HXT UNL     1       5.042   5.531  15.707  0.00  0.00    +0.000 HD
ENDBRANCH   5   7
ENDBRANCH   1   5
BRANCH   1   9
ATOM      9  C   UNL     1       5.600   4.435  17.991  0.00  0.00    +0.000 C 
BRANCH   9  10
ATOM     10  C   UNL     1       5.895   5.325  19.167  0.00  0.00    +0.000 C 
ATOM     11  O   UNL     1       6.907   5.232  19.852  0.00  0.00    +0.000 OA
ENDBRANCH   9  10
ENDBRANCH   1   9
TORSDOF 5
ENDMDL
MODEL 2
REMARK VINA RESULT:      -3.9      1.919      2.020
REMARK  Name = 
REMARK  5 active torsions:
REMARK  status: ('A' for Active; 'I' for Inactive)
REMARK    1  A    between atoms: N_1  and  CA_2
REMARK    2  A    between atoms: CA_2  and  C_3
REMARK    3  A    between atoms: CA_2  and  C_6
REMARK    4  A    between atoms: C_3  and  C_4
REMARK    5  A    between atoms: C_6  and  OXT_8
REMARK                            x       y       z     vdW  Elec       q    Type
REMARK                         _______ _______ _______ _____ _____    ______ ____
ROOT
ATOM      1  CA  UNL     1       6.419   4.662  16.708  0.00  0.00    +0.000 C 
ENDROOT
BRANCH   1   2
ATOM      2  N   UNL     1       5.461   3.530  16.893  0.00  0.00    +0.000 NA
ATOM      3  H1  UNL     1       4.664   3.836  17.454  0.00  0.00    +0.000 HD
ATOM      4  H2  UNL     1       5.916   2.793  17.442  0.00  0.00    +0.000 HD
ENDBRANCH   1   2
BRANCH   1   5
ATOM      5  C   UNL     1       6.930   4.604  15.257  0.00  0.00    +0.000 C 
ATOM      6  O   UNL     1       7.710   5.384  14.741  0.00  0.00    +0.000 OA
BRANCH   5   7
ATOM      7  OXT UNL     1       6.384   3.548  14.595  0.00  0.00    +0.000 OA
ATOM      8  HXT UNL     1       6.339   3.805  13.641  0.00  0.00    +0.000 HD
ENDBRANCH   5   7
ENDBRANCH   1   5
BRANCH   1   9
ATOM      9  C   UNL     1       7.591   4.644  17.685  0.00  0.00    +0.000 C 
BRANCH   9  10
ATOM     10  C   UNL     1       7.416   5.669  18.772  0.00  0.00    +0.000 C 
ATOM     11  O   UNL     1       7.350   5.391  19.963  0.00  0.00    +0.000 OA
ENDBRANCH   9  10
ENDBRANCH   1   9
TORSDOF 5
ENDMDL
MODEL 3
REMARK VINA RESULT:      -3.9      3.793      4.463
REMARK  Name = 
REMARK  5 active torsions:
REMARK  status: ('A' for Active; 'I' for Inactive)
REMARK    1  A    between atoms: N_1  and  CA_2
REMARK    2  A    between atoms: CA_2  and  C_3
REMARK    3  A    between atoms: CA_2  and  C_6
REMARK    4  A    between atoms: C_3  and  C_4
REMARK    5  A    between atoms: C_6  and  OXT_8
REMARK                            x       y       z     vdW  Elec       q    Type
REMARK                         _______ _______ _______ _____ _____    ______ ____
ROOT
ATOM      1  CA  UNL     1       3.989   2.316  19.146  0.00  0.00    +0.000 C 
ENDROOT
BRANCH   1   2
ATOM      2  N   UNL     1       4.961   1.825  20.170  0.00  0.00    +0.000 NA
ATOM      3  H1  UNL     1       5.656   1.220  19.728  0.00  0.00    +0.000 HD
ATOM      4  H2  UNL     1       4.467   1.230  20.843  0.00  0.00    +0.000 HD
ENDBRANCH   1   2
BRANCH   1   5
ATOM      5  C   UNL     1       4.516   3.662  18.616  0.00  0.00    +0.000 C 
ATOM      6  O   UNL     1       3.858   4.513  18.045  0.00  0.00    +0.000 OA
BRANCH   5   7
ATOM      7  OXT UNL     1       5.849   3.789  18.860  0.00  0.00    +0.000 OA
ATOM      8  HXT UNL     1       5.983   4.696  19.229  0.00  0.00    +0.000 HD
ENDBRANCH   5   7
ENDBRANCH   1   5
BRANCH   1   9
ATOM      9  C   UNL     1       2.566   2.473  19.673  0.00  0.00    +0.000 C 
BRANCH   9  10
ATOM     10  C   UNL     1       2.552   3.128  21.027  0.00  0.00    +0.000 C 
ATOM     11  O   UNL     1       2.682   2.514  22.079  0.00  0.00    +0.000 OA
ENDBRANCH   9  10
ENDBRANCH   1   9
TORSDOF 5
ENDMDL
MODEL 4
REMARK VINA RESULT:      -3.8      2.067      3.450
REMARK  Name = 
REMARK  5 active torsions:
REMARK  status: ('A' for Active; 'I' for Inactive)
REMARK    1  A    between atoms: N_1  and  CA_2
REMARK    2  A    between atoms: CA_2  and  C_3
REMARK    3  A    between atoms: CA_2  and  C_6
REMARK    4  A    between atoms: C_3  and  C_4
REMARK    5  A    between atoms: C_6  and  OXT_8
REMARK                            x       y       z     vdW  Elec       q    Type
REMARK                         _______ _______ _______ _____ _____    ______ ____
ROOT
ATOM      1  CA  UNL     1       6.987   5.453  18.853  0.00  0.00    +0.000 C 
ENDROOT
BRANCH   1   2
ATOM      2  N   UNL     1       7.773   5.480  20.124  0.00  0.00    +0.000 NA
ATOM      3  H1  UNL     1       7.951   6.447  20.403  0.00  0.00    +0.000 HD
ATOM      4  H2  UNL     1       8.697   5.068  19.956  0.00  0.00    +0.000 HD
ENDBRANCH   1   2
BRANCH   1   5
ATOM      5  C   UNL     1       5.597   4.877  19.180  0.00  0.00    +0.000 C 
ATOM      6  O   UNL     1       4.580   5.523  19.363  0.00  0.00    +0.000 OA
BRANCH   5   7
ATOM      7  OXT UNL     1       5.642   3.519  19.254  0.00  0.00    +0.000 OA
ATOM      8  HXT UNL     1       4.803   3.187  18.850  0.00  0.00    +0.000 HD
ENDBRANCH   5   7
ENDBRANCH   1   5
BRANCH   1   9
ATOM      9  C   UNL     1       7.646   4.647  17.738  0.00  0.00    +0.000 C 
BRANCH   9  10
ATOM     10  C   UNL     1       6.959   4.870  16.419  0.00  0.00    +0.000 C 
ATOM     11  O   UNL     1       6.400   3.982  15.785  0.00  0.00    +0.000 OA
ENDBRANCH   9  10
ENDBRANCH   1   9
TORSDOF 5
ENDMDL
MODEL 5
REMARK VINA RESULT:      -3.8      1.279      1.324
REMARK  Name = 
REMARK  5 active torsions:
REMARK  status: ('A' for Active; 'I' for Inactive)
REMARK    1  A    between atoms: N_1  and  CA_2
REMARK    2  A    between atoms: CA_2  and  C_3
REMARK    3  A    between atoms: CA_2  and  C_6
REMARK    4  A    between atoms: C_3  and  C_4
REMARK    5  A    between atoms: C_6  and  OXT_8
REMARK                            x       y       z     vdW  Elec       q    Type
REMARK                         _______ _______ _______ _____ _____    ______ ____
ROOT
ATOM      1  CA  UNL     1       6.735   4.691  17.303  0.00  0.00    +0.000 C 
ENDROOT
BRANCH   1   2
ATOM      2  N   UNL     1       8.081   4.140  17.650  0.00  0.00    +0.000 NA
ATOM      3  H1  UNL     1       8.381   3.479  16.931  0.00  0.00    +0.000 HD
ATOM      4  H2  UNL     1       8.006   3.592  18.514  0.00  0.00    +0.000 HD
ENDBRANCH   1   2
BRANCH   1   5
ATOM      5  C   UNL     1       6.905   5.573  16.052  0.00  0.00    +0.000 C 
ATOM      6  O   UNL     1       7.603   5.318  15.087  0.00  0.00    +0.000 OA
BRANCH   5   7
ATOM      7  OXT UNL     1       6.168   6.711  16.160  0.00  0.00    +0.000 OA
ATOM      8  HXT UNL     1       6.586   7.377  15.560  0.00  0.00    +0.000 HD
ENDBRANCH   5   7
ENDBRANCH   1   5
BRANCH   1   9
ATOM      9  C   UNL     1       6.087   5.490  18.431  0.00  0.00    +0.000 C 
BRANCH   9  10
ATOM     10  C   UNL     1       5.139   4.640  19.231  0.00  0.00    +0.000 C 
ATOM     11  O   UNL     1       5.332   3.454  19.476  0.00  0.00    +0.000 OA
ENDBRANCH   9  10
ENDBRANCH   1   9
TORSDOF 5
ENDMDL
MODEL 6
REMARK VINA RESULT:      -3.8      2.028      3.380
REMARK  Name = 
REMARK  5 active torsions:
REMARK  status: ('A' for Active; 'I' for Inactive)
REMARK    1  A    between atoms: N_1  and  CA_2
REMARK    2  A    between atoms: CA_2  and  C_3
REMARK    3  A    between atoms: CA_2  and  C_6
REMARK    4  A    between atoms: C_3  and  C_4
REMARK    5  A    between atoms: C_6  and  OXT_8
REMARK                            x       y       z     vdW  Elec       q    Type
REMARK                         _______ _______ _______ _____ _____    ______ ____
ROOT
ATOM      1  CA  UNL     1       6.443   5.608  16.991  0.00  0.00    +0.000 C 
ENDROOT
BRANCH   1   2
ATOM      2  N   UNL     1       7.439   6.119  16.001  0.00  0.00    +0.000 NA
ATOM      3  H1  UNL     1       8.261   5.512  15.991  0.00  0.00    +0.000 HD
ATOM      4  H2  UNL     1       7.777   7.036  16.309  0.00  0.00    +0.000 HD
ENDBRANCH   1   2
BRANCH   1   5
ATOM      5  C   UNL     1       7.226   4.900  18.112  0.00  0.00    +0.000 C 
ATOM      6  O   UNL     1       7.053   5.046  19.309  0.00  0.00    +0.000 OA
BRANCH   5   7
ATOM      7  OXT UNL     1       8.173   4.073  17.592  0.00  0.00    +0.000 OA
ATOM      8  HXT UNL     1       9.017   4.587  17.570  0.00  0.00    +0.000 HD
ENDBRANCH   5   7
ENDBRANCH   1   5
BRANCH   1   9
ATOM      9  C   UNL     1       5.406   4.662  16.390  0.00  0.00    +0.000 C 
BRANCH   9  10
ATOM     10  C   UNL     1       5.588   4.521  14.904  0.00  0.00    +0.000 C 
ATOM     11  O   UNL     1       6.409   3.770  14.389  0.00  0.00    +0.000 OA
ENDBRANCH   9  10
ENDBRANCH   1   9
TORSDOF 5
ENDMDL
MODEL 7
REMARK VINA RESULT:      -3.8      5.356      5.882
REMARK  Name = 
REMARK  5 active torsions:
REMARK  status: ('A' for Active; 'I' for Inactive)
REMARK    1  A    between atoms: N_1  and  CA_2
REMARK    2  A    between atoms: CA_2  and  C_3
REMARK    3  A    between atoms: CA_2  and  C_6
REMARK    4  A    between atoms: C_3  and  C_4
REMARK    5  A    between atoms: C_6  and  OXT_8
REMARK                            x       y       z     vdW  Elec       q    Type
REMARK                         _______ _______ _______ _____ _____    ______ ____
ROOT
ATOM      1  CA  UNL     1       1.042   3.028  19.045  0.00  0.00    +0.000 C 
ENDROOT
BRANCH   1   2
ATOM      2  N   UNL     1       1.698   1.699  19.238  0.00  0.00    +0.000 NA
ATOM      3  H1  UNL     1       1.038   1.045  19.664  0.00  0.00    +0.000 HD
ATOM      4  H2  UNL     1       2.463   1.798  19.914  0.00  0.00    +0.000 HD
ENDBRANCH   1   2
BRANCH   1   5
ATOM      5  C   UNL     1       1.797   3.757  17.918  0.00  0.00    +0.000 C 
ATOM      6  O   UNL     1       2.212   3.250  16.891  0.00  0.00    +0.000 OA
BRANCH   5   7
ATOM      7  OXT UNL     1       1.959   5.074  18.218  0.00  0.00    +0.000 OA
ATOM      8  HXT UNL     1       2.924   5.269  18.122  0.00  0.00    +0.000 HD
ENDBRANCH   5   7
ENDBRANCH   1   5
BRANCH   1   9
ATOM      9  C   UNL     1       1.011   3.889  20.305  0.00  0.00    +0.000 C 
BRANCH   9  10
ATOM     10  C   UNL     1       1.915   3.333  21.371  0.00  0.00    +0.000 C 
ATOM     11  O   UNL     1       1.577   2.456  22.158  0.00  0.00    +0.000 OA
ENDBRANCH   9  10
ENDBRANCH   1   9
TORSDOF 5
ENDMDL
MODEL 8
REMARK VINA RESULT:      -3.8      2.238      2.544
REMARK  Name = 
REMARK  5 active torsions:
REMARK  status: ('A' for Active; 'I' for Inactive)
REMARK    1  A    between atoms: N_1  and  CA_2
REMARK    2  A    between atoms: CA_2  and  C_3
REMARK    3  A    between atoms: CA_2  and  C_6
REMARK    4  A    between atoms: C_3  and  C_4
REMARK    5  A    between atoms: C_6  and  OXT_8
REMARK                            x       y       z     vdW  Elec       q    Type
REMARK                         _______ _______ _______ _____ _____    ______ ____
ROOT
ATOM      1  CA  UNL     1       5.778   4.335  17.025  0.00  0.00    +0.000 C 
ENDROOT
BRANCH   1   2
ATOM      2  N   UNL     1       5.738   3.905  18.456  0.00  0.00    +0.000 NA
ATOM      3  H1  UNL     1       5.705   2.885  18.511  0.00  0.00    +0.000 HD
ATOM      4  H2  UNL     1       4.864   4.232  18.880  0.00  0.00    +0.000 HD
ENDBRANCH   1   2
BRANCH   1   5
ATOM      5  C   UNL     1       7.184   4.902  16.751  0.00  0.00    +0.000 C 
ATOM      6  O   UNL     1       7.438   5.904  16.107  0.00  0.00    +0.000 OA
BRANCH   5   7
ATOM      7  OXT UNL     1       8.139   4.121  17.324  0.00  0.00    +0.000 OA
ATOM      8  HXT UNL     1       8.045   4.230  18.303  0.00  0.00    +0.000 HD
ENDBRANCH   5   7
ENDBRANCH   1   5
BRANCH   1   9
ATOM      9  C   UNL     1       4.711   5.364  16.661  0.00  0.00    +0.000 C 
BRANCH   9  10
ATOM     10  C   UNL     1       3.904   5.766  17.864  0.00  0.00    +0.000 C 
ATOM     11  O   UNL     1       2.909   5.162  18.247  0.00  0.00    +0.000 OA
ENDBRANCH   9  10
ENDBRANCH   1   9
TORSDOF 5
ENDMDL
MODEL 9
REMARK VINA RESULT:      -3.7      3.997      5.023
REMARK  Name = 
REMARK  5 active torsions:
REMARK  status: ('A' for Active; 'I' for Inactive)
REMARK    1  A    between atoms: N_1  and  CA_2
REMARK    2  A    between atoms: CA_2  and  C_3
REMARK    3  A    between atoms: CA_2  and  C_6
REMARK    4  A    between atoms: C_3  and  C_4
REMARK    5  A    between atoms: C_6  and  OXT_8
REMARK                            x       y       z     vdW  Elec       q    Type
REMARK                         _______ _______ _______ _____ _____    ______ ____
ROOT
ATOM      1  CA  UNL     1       4.423   3.784  18.959  0.00  0.00    +0.000 C 
ENDROOT
BRANCH   1   2
ATOM      2  N   UNL     1       5.900   3.812  18.727  0.00  0.00    +0.000 NA
ATOM      3  H1  UNL     1       6.279   4.719  19.008  0.00  0.00    +0.000 HD
ATOM      4  H2  UNL     1       6.083   3.738  17.721  0.00  0.00    +0.000 HD
ENDBRANCH   1   2
BRANCH   1   5
ATOM      5  C   UNL     1       4.133   2.643  19.951  0.00  0.00    +0.000 C 
ATOM      6  O   UNL     1       3.160   2.559  20.680  0.00  0.00    +0.000 OA
BRANCH   5   7
ATOM      7  OXT UNL     1       5.126   1.714  19.924  0.00  0.00    +0.000 OA
ATOM      8  HXT UNL     1       5.416   1.581  20.860  0.00  0.00    +0.000 HD
ENDBRANCH   5   7
ENDBRANCH   1   5
BRANCH   1   9
ATOM      9  C   UNL     1       3.603   3.602  17.685  0.00  0.00    +0.000 C 
BRANCH   9  10
ATOM     10  C   UNL     1       2.318   4.381  17.744  0.00  0.00    +0.000 C 
ATOM     11  O   UNL     1       1.225   3.911  17.449  0.00  0.00    +0.000 OA
ENDBRANCH   9  10
ENDBRANCH   1   9
TORSDOF 5
ENDMDL
