MODEL 1
REMARK VINA RESULT:      -7.6      0.000      0.000
REMARK  Name = 
REMARK  9 active torsions:
REMARK  status: ('A' for Active; 'I' for Inactive)
REMARK    1  A    between atoms: C_1  and  C_2
REMARK    2  A    between atoms: C_2  and  C_3
REMARK    3  A    between atoms: C_2  and  C_4
REMARK    4  A    between atoms: C_4  and  N_5
REMARK    5  A    between atoms: C_4  and  C_19
REMARK    6  A    between atoms: C_6  and  C_8
REMARK    7  A    between atoms: C_8  and  N_9
REMARK    8  A    between atoms: C_13  and  N_14
REMARK    9  A    between atoms: C_19  and  C_21
REMARK                            x       y       z     vdW  Elec       q    Type
REMARK                         _______ _______ _______ _____ _____    ______ ____
ROOT
ATOM      1  N   UNL     1       4.542   6.077  17.707  0.00  0.00    +0.000 N 
ATOM      2  C   UNL     1       3.510   6.992  17.727  0.00  0.00    +0.000 C 
ATOM      3  O   UNL     1       3.349   7.830  16.842  0.00  0.00    +0.000 OA
ATOM      4  H   UNL     1       4.656   5.454  18.508  0.00  0.00    +0.000 HD
ENDROOT
BRANCH   1   5
ATOM      5  C   UNL     1       5.622   6.129  16.717  0.00  0.00    +0.000 C 
BRANCH   5   7
ATOM      6  C   UNL     1       4.951   3.647  16.555  0.00  0.00    +0.000 C 
ATOM      7  C   UNL     1       5.933   4.739  16.118  0.00  0.00    +0.000 C 
ATOM      8  C   UNL     1       5.975   4.808  14.587  0.00  0.00    +0.000 C 
ENDBRANCH   5   7
BRANCH   5   9
ATOM      9  C   UNL     1       6.852   6.760  17.377  0.00  0.00    +0.000 C 
ATOM     10  O   UNL     1       7.274   7.866  17.014  0.00  0.00    +0.000 OA
BRANCH   9  11
ATOM     11  C   UNL     1       7.484   5.969  18.510  0.00  0.00    +0.000 C 
ATOM     12  F   UNL     1       6.602   5.634  19.493  0.00  0.00    +0.000 F 
ATOM     13  F   UNL     1       8.032   4.801  18.081  0.00  0.00    +0.000 F 
ATOM     14  F   UNL     1       8.481   6.661  19.127  0.00  0.00    +0.000 F 
ENDBRANCH   9  11
ENDBRANCH   5   9
ENDBRANCH   1   5
BRANCH   2  15
ATOM     15  C   UNL     1       2.525   6.827  18.883  0.00  0.00    +0.000 C 
BRANCH  15  16
ATOM     16  N   UNL     1       2.153   5.420  19.032  0.00  0.00    +0.000 N 
ATOM     17  C   UNL     1       1.769   4.697  17.914  0.00  0.00    +0.000 A 
ATOM     18  C   UNL     1       1.442   3.400  18.003  0.00  0.00    +0.000 A 
ATOM     19  C   UNL     1       1.530   2.720  19.272  0.00  0.00    +0.000 A 
ATOM     20  C   UNL     1       1.915   3.397  20.367  0.00  0.00    +0.000 A 
ATOM     21  C   UNL     1       2.232   4.849  20.316  0.00  0.00    +0.000 A 
ATOM     22  O   UNL     1       2.529   5.518  21.299  0.00  0.00    +0.000 OA
BRANCH  20  23
ATOM     23  N   UNL     1       2.047   2.669  21.605  0.00  0.00    +0.000 N 
ATOM     24  O   UNL     1       3.164   2.231  21.908  0.00  0.00    +0.000 OA
ATOM     25  O   UNL     1       1.016   2.475  22.268  0.00  0.00    +0.000 OA
ENDBRANCH  20  23
ENDBRANCH  15  16
ENDBRANCH   2  15
TORSDOF 7
ENDMDL
MODEL 2
REMARK VINA RESULT:      -7.5      1.424      1.525
REMARK  Name = 
REMARK  9 active torsions:
REMARK  status: ('A' for Active; 'I' for Inactive)
REMARK    1  A    between atoms: C_1  and  C_2
REMARK    2  A    between atoms: C_2  and  C_3
REMARK    3  A    between atoms: C_2  and  C_4
REMARK    4  A    between atoms: C_4  and  N_5
REMARK    5  A    between atoms: C_4  and  C_19
REMARK    6  A    between atoms: C_6  and  C_8
REMARK    7  A    between atoms: C_8  and  N_9
REMARK    8  A    between atoms: C_13  and  N_14
REMARK    9  A    between atoms: C_19  and  C_21
REMARK                            x       y       z     vdW  Elec       q    Type
REMARK                         _______ _______ _______ _____ _____    ______ ____
ROOT
ATOM      1  N   UNL     1       5.358   5.232  17.347  0.00  0.00    +0.000 N 
ATOM      2  C   UNL     1       4.427   6.206  17.051  0.00  0.00    +0.000 C 
ATOM      3  O   UNL     1       4.609   7.057  16.182  0.00  0.00    +0.000 OA
ATOM      4  H   UNL     1       5.171   4.600  18.126  0.00  0.00    +0.000 HD
ENDROOT
BRANCH   1   5
ATOM      5  C   UNL     1       6.703   5.226  16.765  0.00  0.00    +0.000 C 
BRANCH   5   7
ATOM      6  C   UNL     1       5.596   3.355  15.381  0.00  0.00    +0.000 C 
ATOM      7  C   UNL     1       6.809   4.277  15.550  0.00  0.00    +0.000 C 
ATOM      8  C   UNL     1       7.032   5.074  14.259  0.00  0.00    +0.000 C 
ENDBRANCH   5   7
BRANCH   5   9
ATOM      9  C   UNL     1       7.705   4.865  17.866  0.00  0.00    +0.000 C 
ATOM     10  O   UNL     1       8.482   3.910  17.734  0.00  0.00    +0.000 OA
BRANCH   9  11
ATOM     11  C   UNL     1       7.706   5.764  19.091  0.00  0.00    +0.000 C 
ATOM     12  F   UNL     1       6.539   5.721  19.792  0.00  0.00    +0.000 F 
ATOM     13  F   UNL     1       8.688   5.433  19.972  0.00  0.00    +0.000 F 
ATOM     14  F   UNL     1       7.899   7.072  18.770  0.00  0.00    +0.000 F 
ENDBRANCH   9  11
ENDBRANCH   5   9
ENDBRANCH   1   5
BRANCH   2  15
ATOM     15  C   UNL     1       3.111   6.094  17.820  0.00  0.00    +0.000 C 
BRANCH  15  16
ATOM     16  N   UNL     1       2.884   4.709  18.231  0.00  0.00    +0.000 N 
ATOM     17  C   UNL     1       2.644   3.744  17.265  0.00  0.00    +0.000 A 
ATOM     18  C   UNL     1       2.453   2.459  17.598  0.00  0.00    +0.000 A 
ATOM     19  C   UNL     1       2.540   2.052  18.978  0.00  0.00    +0.000 A 
ATOM     20  C   UNL     1       2.788   2.967  19.930  0.00  0.00    +0.000 A 
ATOM     21  C   UNL     1       2.951   4.408  19.604  0.00  0.00    +0.000 A 
ATOM     22  O   UNL     1       3.118   5.284  20.445  0.00  0.00    +0.000 OA
BRANCH  20  23
ATOM     23  N   UNL     1       2.926   2.511  21.292  0.00  0.00    +0.000 N 
ATOM     24  O   UNL     1       3.980   1.950  21.615  0.00  0.00    +0.000 OA
ATOM     25  O   UNL     1       1.952   2.658  22.046  0.00  0.00    +0.000 OA
ENDBRANCH  20  23
ENDBRANCH  15  16
ENDBRANCH   2  15
TORSDOF 7
ENDMDL
MODEL 3
REMARK VINA RESULT:      -7.3      0.397      1.260
REMARK  Name = 
REMARK  9 active torsions:
REMARK  status: ('A' for Active; 'I' for Inactive)
REMARK    1  A    between atoms: C_1  and  C_2
REMARK    2  A    between atoms: C_2  and  C_3
REMARK    3  A    between atoms: C_2  and  C_4
REMARK    4  A    between atoms: C_4  and  N_5
REMARK    5  A    between atoms: C_4  and  C_19
REMARK    6  A    between atoms: C_6  and  C_8
REMARK    7  A    between atoms: C_8  and  N_9
REMARK    8  A    between atoms: C_13  and  N_14
REMARK    9  A    between atoms: C_19  and  C_21
REMARK                            x       y       z     vdW  Elec       q    Type
REMARK                         _______ _______ _______ _____ _____    ______ ____
ROOT
ATOM      1  N   UNL     1       4.435   6.267  17.617  0.00  0.00    +0.000 N 
ATOM      2  C   UNL     1       3.398   7.163  17.774  0.00  0.00    +0.000 C 
ATOM      3  O   UNL     1       3.179   8.072  16.976  0.00  0.00    +0.000 OA
ATOM      4  H   UNL     1       4.600   5.580  18.353  0.00  0.00    +0.000 HD
ENDROOT
BRANCH   1   5
ATOM      5  C   UNL     1       5.457   6.420  16.577  0.00  0.00    +0.000 C 
BRANCH   5   7
ATOM      6  C   UNL     1       6.902   4.938  15.042  0.00  0.00    +0.000 C 
ATOM      7  C   UNL     1       5.511   5.201  15.629  0.00  0.00    +0.000 C 
ATOM      8  C   UNL     1       5.007   3.939  16.340  0.00  0.00    +0.000 C 
ENDBRANCH   5   7
BRANCH   5   9
ATOM      9  C   UNL     1       6.804   6.681  17.257  0.00  0.00    +0.000 C 
ATOM     10  O   UNL     1       7.555   7.581  16.860  0.00  0.00    +0.000 OA
BRANCH   9  11
ATOM     11  C   UNL     1       7.133   5.801  18.452  0.00  0.00    +0.000 C 
ATOM     12  F   UNL     1       7.515   4.541  18.105  0.00  0.00    +0.000 F 
ATOM     13  F   UNL     1       8.147   6.310  19.202  0.00  0.00    +0.000 F 
ATOM     14  F   UNL     1       6.070   5.650  19.288  0.00  0.00    +0.000 F 
ENDBRANCH   9  11
ENDBRANCH   5   9
ENDBRANCH   1   5
BRANCH   2  15
ATOM     15  C   UNL     1       2.482   6.886  18.965  0.00  0.00    +0.000 C 
BRANCH  15  16
ATOM     16  N   UNL     1       2.179   5.457  19.046  0.00  0.00    +0.000 N 
ATOM     17  C   UNL     1       1.821   4.771  17.895  0.00  0.00    +0.000 A 
ATOM     18  C   UNL     1       1.557   3.457  17.923  0.00  0.00    +0.000 A 
ATOM     19  C   UNL     1       1.688   2.721  19.155  0.00  0.00    +0.000 A 
ATOM     20  C   UNL     1       2.050   3.361  20.280  0.00  0.00    +0.000 A 
ATOM     21  C   UNL     1       2.297   4.827  20.299  0.00  0.00    +0.000 A 
ATOM     22  O   UNL     1       2.570   5.461  21.312  0.00  0.00    +0.000 OA
BRANCH  20  23
ATOM     23  N   UNL     1       2.228   2.580  21.480  0.00  0.00    +0.000 N 
ATOM     24  O   UNL     1       1.261   2.451  22.240  0.00  0.00    +0.000 OA
ATOM     25  O   UNL     1       3.362   2.131  21.707  0.00  0.00    +0.000 OA
ENDBRANCH  20  23
ENDBRANCH  15  16
ENDBRANCH   2  15
TORSDOF 7
ENDMDL
MODEL 4
REMARK VINA RESULT:      -7.3      2.706      6.059
REMARK  Name = 
REMARK  9 active torsions:
REMARK  status: ('A' for Active; 'I' for Inactive)
REMARK    1  A    between atoms: C_1  and  C_2
REMARK    2  A    between atoms: C_2  and  C_3
REMARK    3  A    between atoms: C_2  and  C_4
REMARK    4  A    between atoms: C_4  and  N_5
REMARK    5  A    between atoms: C_4  and  C_19
REMARK    6  A    between atoms: C_6  and  C_8
REMARK    7  A    between atoms: C_8  and  N_9
REMARK    8  A    between atoms: C_13  and  N_14
REMARK    9  A    between atoms: C_19  and  C_21
REMARK                            x       y       z     vdW  Elec       q    Type
REMARK                         _______ _______ _______ _____ _____    ______ ____
ROOT
ATOM      1  N   UNL     1       3.343   5.420  18.466  0.00  0.00    +0.000 N 
ATOM      2  C   UNL     1       3.191   6.717  18.023  0.00  0.00    +0.000 C 
ATOM      3  O   UNL     1       2.098   7.277  17.968  0.00  0.00    +0.000 OA
ATOM      4  H   UNL     1       4.270   4.996  18.420  0.00  0.00    +0.000 HD
ENDROOT
BRANCH   1   5
ATOM      5  C   UNL     1       2.201   4.548  18.756  0.00  0.00    +0.000 C 
BRANCH   5   7
ATOM      6  C   UNL     1       1.521   5.600  21.008  0.00  0.00    +0.000 C 
ATOM      7  C   UNL     1       1.995   4.342  20.273  0.00  0.00    +0.000 C 
ATOM      8  C   UNL     1       1.011   3.194  20.534  0.00  0.00    +0.000 C 
ENDBRANCH   5   7
BRANCH   5   9
ATOM      9  C   UNL     1       2.404   3.223  18.016  0.00  0.00    +0.000 C 
ATOM     10  O   UNL     1       1.478   2.696  17.384  0.00  0.00    +0.000 OA
BRANCH   9  11
ATOM     11  C   UNL     1       3.801   2.628  18.077  0.00  0.00    +0.000 C 
ATOM     12  F   UNL     1       3.809   1.267  18.045  0.00  0.00    +0.000 F 
ATOM     13  F   UNL     1       4.581   3.036  17.040  0.00  0.00    +0.000 F 
ATOM     14  F   UNL     1       4.459   2.976  19.217  0.00  0.00    +0.000 F 
ENDBRANCH   9  11
ENDBRANCH   5   9
ENDBRANCH   1   5
BRANCH   2  15
ATOM     15  C   UNL     1       4.495   7.442  17.692  0.00  0.00    +0.000 C 
BRANCH  15  16
ATOM     16  N   UNL     1       5.535   6.474  17.343  0.00  0.00    +0.000 N 
ATOM     17  C   UNL     1       6.227   5.825  18.354  0.00  0.00    +0.000 A 
ATOM     18  C   UNL     1       7.172   4.915  18.078  0.00  0.00    +0.000 A 
ATOM     19  C   UNL     1       7.452   4.561  16.709  0.00  0.00    +0.000 A 
ATOM     20  C   UNL     1       6.783   5.165  15.711  0.00  0.00    +0.000 A 
ATOM     21  C   UNL     1       5.768   6.218  15.979  0.00  0.00    +0.000 A 
ATOM     22  O   UNL     1       5.178   6.836  15.100  0.00  0.00    +0.000 OA
BRANCH  20  23
ATOM     23  N   UNL     1       7.050   4.742  14.359  0.00  0.00    +0.000 N 
ATOM     24  O   UNL     1       7.870   5.389  13.697  0.00  0.00    +0.000 OA
ATOM     25  O   UNL     1       6.395   3.784  13.919  0.00  0.00    +0.000 OA
ENDBRANCH  20  23
ENDBRANCH  15  16
ENDBRANCH   2  15
TORSDOF 7
ENDMDL
MODEL 5
REMARK VINA RESULT:      -7.3      1.218      1.434
REMARK  Name = 
REMARK  9 active torsions:
REMARK  status: ('A' for Active; 'I' for Inactive)
REMARK    1  A    between atoms: C_1  and  C_2
REMARK    2  A    between atoms: C_2  and  C_3
REMARK    3  A    between atoms: C_2  and  C_4
REMARK    4  A    between atoms: C_4  and  N_5
REMARK    5  A    between atoms: C_4  and  C_19
REMARK    6  A    between atoms: C_6  and  C_8
REMARK    7  A    between atoms: C_8  and  N_9
REMARK    8  A    between atoms: C_13  and  N_14
REMARK    9  A    between atoms: C_19  and  C_21
REMARK                            x       y       z     vdW  Elec       q    Type
REMARK                         _______ _______ _______ _____ _____    ______ ____
ROOT
ATOM      1  N   UNL     1       4.789   5.529  16.830  0.00  0.00    +0.000 N 
ATOM      2  C   UNL     1       3.936   6.525  17.256  0.00  0.00    +0.000 C 
ATOM      3  O   UNL     1       4.135   7.715  17.023  0.00  0.00    +0.000 OA
ATOM      4  H   UNL     1       4.598   4.569  17.117  0.00  0.00    +0.000 HD
ENDROOT
BRANCH   1   5
ATOM      5  C   UNL     1       6.084   5.816  16.205  0.00  0.00    +0.000 C 
BRANCH   5   7
ATOM      6  C   UNL     1       5.734   3.366  15.486  0.00  0.00    +0.000 C 
ATOM      7  C   UNL     1       6.661   4.587  15.468  0.00  0.00    +0.000 C 
ATOM      8  C   UNL     1       7.012   4.942  14.017  0.00  0.00    +0.000 C 
ENDBRANCH   5   7
BRANCH   5   9
ATOM      9  C   UNL     1       7.036   6.340  17.283  0.00  0.00    +0.000 C 
ATOM     10  O   UNL     1       7.427   7.515  17.273  0.00  0.00    +0.000 OA
BRANCH   9  11
ATOM     11  C   UNL     1       7.431   5.351  18.367  0.00  0.00    +0.000 C 
ATOM     12  F   UNL     1       6.364   4.811  19.020  0.00  0.00    +0.000 F 
ATOM     13  F   UNL     1       8.141   4.301  17.873  0.00  0.00    +0.000 F 
ATOM     14  F   UNL     1       8.204   5.923  19.330  0.00  0.00    +0.000 F 
ENDBRANCH   9  11
ENDBRANCH   5   9
ENDBRANCH   1   5
BRANCH   2  15
ATOM     15  C   UNL     1       2.672   6.033  17.961  0.00  0.00    +0.000 C 
BRANCH  15  16
ATOM     16  N   UNL     1       2.782   4.603  18.250  0.00  0.00    +0.000 N 
ATOM     17  C   UNL     1       2.526   3.684  17.244  0.00  0.00    +0.000 A 
ATOM     18  C   UNL     1       2.636   2.366  17.462  0.00  0.00    +0.000 A 
ATOM     19  C   UNL     1       3.072   1.882  18.748  0.00  0.00    +0.000 A 
ATOM     20  C   UNL     1       3.341   2.755  19.735  0.00  0.00    +0.000 A 
ATOM     21  C   UNL     1       3.176   4.220  19.546  0.00  0.00    +0.000 A 
ATOM     22  O   UNL     1       3.352   5.047  20.434  0.00  0.00    +0.000 OA
BRANCH  20  23
ATOM     23  N   UNL     1       3.830   2.235  20.988  0.00  0.00    +0.000 N 
ATOM     24  O   UNL     1       3.067   2.247  21.962  0.00  0.00    +0.000 OA
ATOM     25  O   UNL     1       5.012   1.859  21.029  0.00  0.00    +0.000 OA
ENDBRANCH  20  23
ENDBRANCH  15  16
ENDBRANCH   2  15
TORSDOF 7
ENDMDL
MODEL 6
REMARK VINA RESULT:      -7.3      1.130      1.446
REMARK  Name = 
REMARK  9 active torsions:
REMARK  status: ('A' for Active; 'I' for Inactive)
REMARK    1  A    between atoms: C_1  and  C_2
REMARK    2  A    between atoms: C_2  and  C_3
REMARK    3  A    between atoms: C_2  and  C_4
REMARK    4  A    between atoms: C_4  and  N_5
REMARK    5  A    between atoms: C_4  and  C_19
REMARK    6  A    between atoms: C_6  and  C_8
REMARK    7  A    between atoms: C_8  and  N_9
REMARK    8  A    between atoms: C_13  and  N_14
REMARK    9  A    between atoms: C_19  and  C_21
REMARK                            x       y       z     vdW  Elec       q    Type
REMARK                         _______ _______ _______ _____ _____    ______ ____
ROOT
ATOM      1  N   UNL     1       4.619   5.771  17.919  0.00  0.00    +0.000 N 
ATOM      2  C   UNL     1       3.659   6.759  17.847  0.00  0.00    +0.000 C 
ATOM      3  O   UNL     1       3.641   7.603  16.954  0.00  0.00    +0.000 OA
ATOM      4  H   UNL     1       4.614   5.145  18.725  0.00  0.00    +0.000 HD
ENDROOT
BRANCH   1   5
ATOM      5  C   UNL     1       5.786   5.741  17.033  0.00  0.00    +0.000 C 
BRANCH   5   7
ATOM      6  C   UNL     1       4.797   3.401  16.602  0.00  0.00    +0.000 C 
ATOM      7  C   UNL     1       5.870   4.428  16.223  0.00  0.00    +0.000 C 
ATOM      8  C   UNL     1       5.797   4.715  14.718  0.00  0.00    +0.000 C 
ENDBRANCH   5   7
BRANCH   5   9
ATOM      9  C   UNL     1       7.041   5.978  17.878  0.00  0.00    +0.000 C 
ATOM     10  O   UNL     1       7.533   5.068  18.559  0.00  0.00    +0.000 OA
BRANCH   9  11
ATOM     11  C   UNL     1       7.651   7.367  17.797  0.00  0.00    +0.000 C 
ATOM     12  F   UNL     1       6.731   8.367  17.889  0.00  0.00    +0.000 F 
ATOM     13  F   UNL     1       8.554   7.592  18.790  0.00  0.00    +0.000 F 
ATOM     14  F   UNL     1       8.308   7.573  16.623  0.00  0.00    +0.000 F 
ENDBRANCH   9  11
ENDBRANCH   5   9
ENDBRANCH   1   5
BRANCH   2  15
ATOM     15  C   UNL     1       2.563   6.671  18.908  0.00  0.00    +0.000 C 
BRANCH  15  16
ATOM     16  N   UNL     1       2.135   5.282  19.076  0.00  0.00    +0.000 N 
ATOM     17  C   UNL     1       1.683   4.572  17.975  0.00  0.00    +0.000 A 
ATOM     18  C   UNL     1       1.302   3.291  18.082  0.00  0.00    +0.000 A 
ATOM     19  C   UNL     1       1.402   2.613  19.350  0.00  0.00    +0.000 A 
ATOM     20  C   UNL     1       1.852   3.277  20.429  0.00  0.00    +0.000 A 
ATOM     21  C   UNL     1       2.231   4.713  20.359  0.00  0.00    +0.000 A 
ATOM     22  O   UNL     1       2.589   5.372  21.329  0.00  0.00    +0.000 OA
BRANCH  20  23
ATOM     23  N   UNL     1       1.993   2.548  21.666  0.00  0.00    +0.000 N 
ATOM     24  O   UNL     1       0.991   2.411  22.379  0.00  0.00    +0.000 OA
ATOM     25  O   UNL     1       3.128   2.152  21.971  0.00  0.00    +0.000 OA
ENDBRANCH  20  23
ENDBRANCH  15  16
ENDBRANCH   2  15
TORSDOF 7
ENDMDL
MODEL 7
REMARK VINA RESULT:      -7.2      2.648      6.079
REMARK  Name = 
REMARK  9 active torsions:
REMARK  status: ('A' for Active; 'I' for Inactive)
REMARK    1  A    between atoms: C_1  and  C_2
REMARK    2  A    between atoms: C_2  and  C_3
REMARK    3  A    between atoms: C_2  and  C_4
REMARK    4  A    between atoms: C_4  and  N_5
REMARK    5  A    between atoms: C_4  and  C_19
REMARK    6  A    between atoms: C_6  and  C_8
REMARK    7  A    between atoms: C_8  and  N_9
REMARK    8  A    between atoms: C_13  and  N_14
REMARK    9  A    between atoms: C_19  and  C_21
REMARK                            x       y       z     vdW  Elec       q    Type
REMARK                         _______ _______ _______ _____ _____    ______ ____
ROOT
ATOM      1  N   UNL     1       3.056   5.218  18.682  0.00  0.00    +0.000 N 
ATOM      2  C   UNL     1       3.064   6.442  18.045  0.00  0.00    +0.000 C 
ATOM      3  O   UNL     1       2.052   6.946  17.562  0.00  0.00    +0.000 OA
ATOM      4  H   UNL     1       3.945   4.829  18.998  0.00  0.00    +0.000 HD
ENDROOT
BRANCH   1   5
ATOM      5  C   UNL     1       1.879   4.345  18.696  0.00  0.00    +0.000 C 
BRANCH   5   7
ATOM      6  C   UNL     1       1.377   2.803  20.698  0.00  0.00    +0.000 C 
ATOM      7  C   UNL     1       1.268   4.214  20.109  0.00  0.00    +0.000 C 
ATOM      8  C   UNL     1       1.907   5.222  21.071  0.00  0.00    +0.000 C 
ENDBRANCH   5   7
BRANCH   5   9
ATOM      9  C   UNL     1       2.277   2.987  18.112  0.00  0.00    +0.000 C 
ATOM     10  O   UNL     1       1.435   2.249  17.582  0.00  0.00    +0.000 OA
BRANCH   9  11
ATOM     11  C   UNL     1       3.751   2.629  18.191  0.00  0.00    +0.000 C 
ATOM     12  F   UNL     1       4.491   3.161  17.178  0.00  0.00    +0.000 F 
ATOM     13  F   UNL     1       4.325   3.063  19.346  0.00  0.00    +0.000 F 
ATOM     14  F   UNL     1       3.958   1.285  18.136  0.00  0.00    +0.000 F 
ENDBRANCH   9  11
ENDBRANCH   5   9
ENDBRANCH   1   5
BRANCH   2  15
ATOM     15  C   UNL     1       4.407   7.170  18.064  0.00  0.00    +0.000 C 
BRANCH  15  16
ATOM     16  N   UNL     1       5.471   6.277  17.605  0.00  0.00    +0.000 N 
ATOM     17  C   UNL     1       6.231   5.589  18.539  0.00  0.00    +0.000 A 
ATOM     18  C   UNL     1       7.201   4.745  18.159  0.00  0.00    +0.000 A 
ATOM     19  C   UNL     1       7.438   4.503  16.758  0.00  0.00    +0.000 A 
ATOM     20  C   UNL     1       6.703   5.146  15.835  0.00  0.00    +0.000 A 
ATOM     21  C   UNL     1       5.657   6.131  16.218  0.00  0.00    +0.000 A 
ATOM     22  O   UNL     1       5.005   6.784  15.411  0.00  0.00    +0.000 OA
BRANCH  20  23
ATOM     23  N   UNL     1       6.931   4.834  14.445  0.00  0.00    +0.000 N 
ATOM     24  O   UNL     1       6.284   3.908  13.942  0.00  0.00    +0.000 OA
ATOM     25  O   UNL     1       7.810   5.478  13.851  0.00  0.00    +0.000 OA
ENDBRANCH  20  23
ENDBRANCH  15  16
ENDBRANCH   2  15
TORSDOF 7
ENDMDL
MODEL 8
REMARK VINA RESULT:      -7.2      2.919      6.385
REMARK  Name = 
REMARK  9 active torsions:
REMARK  status: ('A' for Active; 'I' for Inactive)
REMARK    1  A    between atoms: C_1  and  C_2
REMARK    2  A    between atoms: C_2  and  C_3
REMARK    3  A    between atoms: C_2  and  C_4
REMARK    4  A    between atoms: C_4  and  N_5
REMARK    5  A    between atoms: C_4  and  C_19
REMARK    6  A    between atoms: C_6  and  C_8
REMARK    7  A    between atoms: C_8  and  N_9
REMARK    8  A    between atoms: C_13  and  N_14
REMARK    9  A    between atoms: C_19  and  C_21
REMARK                            x       y       z     vdW  Elec       q    Type
REMARK                         _______ _______ _______ _____ _____    ______ ____
ROOT
ATOM      1  N   UNL     1       3.670   5.014  19.074  0.00  0.00    +0.000 N 
ATOM      2  C   UNL     1       3.283   5.980  18.168  0.00  0.00    +0.000 C 
ATOM      3  O   UNL     1       2.118   6.115  17.798  0.00  0.00    +0.000 OA
ATOM      4  H   UNL     1       4.663   4.915  19.284  0.00  0.00    +0.000 HD
ENDROOT
BRANCH   1   5
ATOM      5  C   UNL     1       2.758   3.968  19.548  0.00  0.00    +0.000 C 
BRANCH   5   7
ATOM      6  C   UNL     1       1.455   5.625  21.030  0.00  0.00    +0.000 C 
ATOM      7  C   UNL     1       2.189   4.282  20.949  0.00  0.00    +0.000 C 
ATOM      8  C   UNL     1       1.256   3.159  21.418  0.00  0.00    +0.000 C 
ENDBRANCH   5   7
BRANCH   5   9
ATOM      9  C   UNL     1       3.500   2.629  19.514  0.00  0.00    +0.000 C 
ATOM     10  O   UNL     1       4.091   2.201  20.514  0.00  0.00    +0.000 OA
BRANCH   9  11
ATOM     11  C   UNL     1       3.431   1.858  18.206  0.00  0.00    +0.000 C 
ATOM     12  F   UNL     1       3.898   0.582  18.308  0.00  0.00    +0.000 F 
ATOM     13  F   UNL     1       2.160   1.759  17.732  0.00  0.00    +0.000 F 
ATOM     14  F   UNL     1       4.167   2.445  17.223  0.00  0.00    +0.000 F 
ENDBRANCH   9  11
ENDBRANCH   5   9
ENDBRANCH   1   5
BRANCH   2  15
ATOM     15  C   UNL     1       4.393   6.932  17.727  0.00  0.00    +0.000 C 
BRANCH  15  16
ATOM     16  N   UNL     1       5.560   6.172  17.278  0.00  0.00    +0.000 N 
ATOM     17  C   UNL     1       6.391   5.583  18.219  0.00  0.00    +0.000 A 
ATOM     18  C   UNL     1       7.457   4.860  17.850  0.00  0.00    +0.000 A 
ATOM     19  C   UNL     1       7.732   4.644  16.451  0.00  0.00    +0.000 A 
ATOM     20  C   UNL     1       6.931   5.191  15.520  0.00  0.00    +0.000 A 
ATOM     21  C   UNL     1       5.772   6.044  15.893  0.00  0.00    +0.000 A 
ATOM     22  O   UNL     1       5.051   6.611  15.079  0.00  0.00    +0.000 OA
BRANCH  20  23
ATOM     23  N   UNL     1       7.204   4.904  14.134  0.00  0.00    +0.000 N 
ATOM     24  O   UNL     1       8.043   5.599  13.548  0.00  0.00    +0.000 OA
ATOM     25  O   UNL     1       6.536   4.010  13.592  0.00  0.00    +0.000 OA
ENDBRANCH  20  23
ENDBRANCH  15  16
ENDBRANCH   2  15
TORSDOF 7
ENDMDL
MODEL 9
REMARK VINA RESULT:      -7.1      3.045      6.481
REMARK  Name = 
REMARK  9 active torsions:
REMARK  status: ('A' for Active; 'I' for Inactive)
REMARK    1  A    between atoms: C_1  and  C_2
REMARK    2  A    between atoms: C_2  and  C_3
REMARK    3  A    between atoms: C_2  and  C_4
REMARK    4  A    between atoms: C_4  and  N_5
REMARK    5  A    between atoms: C_4  and  C_19
REMARK    6  A    between atoms: C_6  and  C_8
REMARK    7  A    between atoms: C_8  and  N_9
REMARK    8  A    between atoms: C_13  and  N_14
REMARK    9  A    between atoms: C_19  and  C_21
REMARK                            x       y       z     vdW  Elec       q    Type
REMARK                         _______ _______ _______ _____ _____    ______ ____
ROOT
ATOM      1  N   UNL     1       3.720   5.143  19.104  0.00  0.00    +0.000 N 
ATOM      2  C   UNL     1       3.371   6.127  18.203  0.00  0.00    +0.000 C 
ATOM      3  O   UNL     1       2.213   6.309  17.833  0.00  0.00    +0.000 OA
ATOM      4  H   UNL     1       4.709   5.004  19.314  0.00  0.00    +0.000 HD
ENDROOT
BRANCH   1   5
ATOM      5  C   UNL     1       2.768   4.130  19.571  0.00  0.00    +0.000 C 
BRANCH   5   7
ATOM      6  C   UNL     1       1.400   5.752  21.033  0.00  0.00    +0.000 C 
ATOM      7  C   UNL     1       2.214   4.454  20.976  0.00  0.00    +0.000 C 
ATOM      8  C   UNL     1       1.364   3.292  21.504  0.00  0.00    +0.000 C 
ENDBRANCH   5   7
BRANCH   5   9
ATOM      9  C   UNL     1       3.456   2.763  19.525  0.00  0.00    +0.000 C 
ATOM     10  O   UNL     1       4.415   2.505  20.264  0.00  0.00    +0.000 OA
BRANCH   9  11
ATOM     11  C   UNL     1       2.870   1.750  18.555  0.00  0.00    +0.000 C 
ATOM     12  F   UNL     1       2.573   2.280  17.336  0.00  0.00    +0.000 F 
ATOM     13  F   UNL     1       3.717   0.712  18.319  0.00  0.00    +0.000 F 
ATOM     14  F   UNL     1       1.711   1.207  19.016  0.00  0.00    +0.000 F 
ENDBRANCH   9  11
ENDBRANCH   5   9
ENDBRANCH   1   5
BRANCH   2  15
ATOM     15  C   UNL     1       4.518   7.039  17.769  0.00  0.00    +0.000 C 
BRANCH  15  16
ATOM     16  N   UNL     1       5.644   6.238  17.291  0.00  0.00    +0.000 N 
ATOM     17  C   UNL     1       6.489   5.635  18.210  0.00  0.00    +0.000 A 
ATOM     18  C   UNL     1       7.520   4.875  17.814  0.00  0.00    +0.000 A 
ATOM     19  C   UNL     1       7.739   4.634  16.410  0.00  0.00    +0.000 A 
ATOM     20  C   UNL     1       6.924   5.194  15.500  0.00  0.00    +0.000 A 
ATOM     21  C   UNL     1       5.805   6.087  15.901  0.00  0.00    +0.000 A 
ATOM     22  O   UNL     1       5.075   6.666  15.104  0.00  0.00    +0.000 OA
BRANCH  20  23
ATOM     23  N   UNL     1       7.141   4.882  14.108  0.00  0.00    +0.000 N 
ATOM     24  O   UNL     1       6.503   3.944  13.616  0.00  0.00    +0.000 OA
ATOM     25  O   UNL     1       8.001   5.539  13.502  0.00  0.00    +0.000 OA
ENDBRANCH  20  23
ENDBRANCH  15  16
ENDBRANCH   2  15
TORSDOF 7
ENDMDL
