MODEL 1
REMARK VINA RESULT:      -8.7      0.000      0.000
REMARK  Name = 
REMARK  5 active torsions:
REMARK  status: ('A' for Active; 'I' for Inactive)
REMARK    1  A    between atoms: C_1  and  N_2
REMARK    2  A    between atoms: N_12  and  C_13
REMARK    3  A    between atoms: C_13  and  C_14
REMARK    4  A    between atoms: N_16  and  C_17
REMARK    5  A    between atoms: C_22  and  C_23
REMARK                            x       y       z     vdW  Elec       q    Type
REMARK                         _______ _______ _______ _____ _____    ______ ____
ROOT
ATOM      1  C   UNL     1      -0.089  12.301  18.575  0.00  0.00    +0.000 C 
ATOM      2  N   UNL     1       0.009  11.328  19.643  0.00  0.00    +0.000 N 
ATOM      3  C   UNL     1      -0.621  11.402  20.876  0.00  0.00    +0.000 A 
ATOM      4  C   UNL     1      -1.470  12.376  21.424  0.00  0.00    +0.000 A 
ATOM      5  C   UNL     1      -1.962  12.174  22.716  0.00  0.00    +0.000 A 
ATOM      6  C   UNL     1      -1.624  11.037  23.442  0.00  0.00    +0.000 A 
ATOM      7  C   UNL     1      -0.776  10.069  22.893  0.00  0.00    +0.000 A 
ATOM      8  C   UNL     1      -0.263  10.251  21.593  0.00  0.00    +0.000 A 
ATOM      9  C   UNL     1       0.601   9.500  20.758  0.00  0.00    +0.000 A 
ATOM     10  C   UNL     1       1.285   8.250  20.940  0.00  0.00    +0.000 A 
ATOM     11  N   UNL     1       2.045   7.755  20.005  0.00  0.00    +0.000 NA
ATOM     12  N   UNL     1       2.172   8.447  18.792  0.00  0.00    +0.000 N 
ATOM     13  C   UNL     1       1.561   9.678  18.497  0.00  0.00    +0.000 A 
ATOM     14  O   UNL     1       1.705  10.260  17.431  0.00  0.00    +0.000 OA
ATOM     15  C   UNL     1       0.749  10.179  19.575  0.00  0.00    +0.000 A 
ENDROOT
BRANCH  12  16
ATOM     16  C   UNL     1       2.941   7.785  17.743  0.00  0.00    +0.000 C 
BRANCH  16  17
ATOM     17  C   UNL     1       3.430   6.390  18.116  0.00  0.00    +0.000 C 
ATOM     18  O   UNL     1       4.638   6.157  18.176  0.00  0.00    +0.000 OA
ATOM     19  N   UNL     1       2.444   5.414  18.200  0.00  0.00    +0.000 N 
ATOM     20  H   UNL     1       1.586   5.649  17.698  0.00  0.00    +0.000 HD
BRANCH  19  21
ATOM     21  C   UNL     1       2.758   4.056  18.426  0.00  0.00    +0.000 A 
ATOM     22  C   UNL     1       3.421   3.328  17.422  0.00  0.00    +0.000 A 
ATOM     23  C   UNL     1       3.664   1.963  17.564  0.00  0.00    +0.000 A 
ATOM     24  C   UNL     1       3.258   1.307  18.718  0.00  0.00    +0.000 A 
ATOM     25  C   UNL     1       2.641   2.027  19.742  0.00  0.00    +0.000 A 
ATOM     26  C   UNL     1       2.393   3.412  19.618  0.00  0.00    +0.000 A 
BRANCH  26  27
ATOM     27  C   UNL     1       1.644   4.091  20.731  0.00  0.00    +0.000 C 
ATOM     28  F   UNL     1       0.545   4.792  20.327  0.00  0.00    +0.000 F 
ATOM     29  F   UNL     1       1.193   3.211  21.668  0.00  0.00    +0.000 F 
ATOM     30  F   UNL     1       2.413   4.990  21.407  0.00  0.00    +0.000 F 
ENDBRANCH  26  27
ENDBRANCH  19  21
ENDBRANCH  16  17
ENDBRANCH  12  16
TORSDOF 4
ENDMDL
MODEL 2
REMARK VINA RESULT:      -8.6      3.232      8.319
REMARK  Name = 
REMARK  5 active torsions:
REMARK  status: ('A' for Active; 'I' for Inactive)
REMARK    1  A    between atoms: C_1  and  N_2
REMARK    2  A    between atoms: N_12  and  C_13
REMARK    3  A    between atoms: C_13  and  C_14
REMARK    4  A    between atoms: N_16  and  C_17
REMARK    5  A    between atoms: C_22  and  C_23
REMARK                            x       y       z     vdW  Elec       q    Type
REMARK                         _______ _______ _______ _____ _____    ______ ____
ROOT
ATOM      1  C   UNL     1       7.458   6.269  17.484  0.00  0.00    +0.000 C 
ATOM      2  N   UNL     1       6.527   5.420  16.769  0.00  0.00    +0.000 N 
ATOM      3  C   UNL     1       6.643   5.010  15.450  0.00  0.00    +0.000 A 
ATOM      4  C   UNL     1       7.618   5.284  14.478  0.00  0.00    +0.000 A 
ATOM      5  C   UNL     1       7.464   4.720  13.209  0.00  0.00    +0.000 A 
ATOM      6  C   UNL     1       6.379   3.903  12.915  0.00  0.00    +0.000 A 
ATOM      7  C   UNL     1       5.408   3.633  13.885  0.00  0.00    +0.000 A 
ATOM      8  C   UNL     1       5.536   4.194  15.172  0.00  0.00    +0.000 A 
ATOM      9  C   UNL     1       4.760   4.140  16.356  0.00  0.00    +0.000 A 
ATOM     10  C   UNL     1       3.528   3.475  16.680  0.00  0.00    +0.000 A 
ATOM     11  N   UNL     1       2.996   3.582  17.865  0.00  0.00    +0.000 NA
ATOM     12  N   UNL     1       3.657   4.340  18.843  0.00  0.00    +0.000 N 
ATOM     13  C   UNL     1       4.860   5.039  18.646  0.00  0.00    +0.000 A 
ATOM     14  O   UNL     1       5.403   5.701  19.520  0.00  0.00    +0.000 OA
ATOM     15  C   UNL     1       5.387   4.894  17.314  0.00  0.00    +0.000 A 
ENDROOT
BRANCH  12  16
ATOM     16  C   UNL     1       3.074   4.325  20.181  0.00  0.00    +0.000 C 
BRANCH  16  17
ATOM     17  C   UNL     1       2.049   5.427  20.425  0.00  0.00    +0.000 C 
ATOM     18  O   UNL     1       0.848   5.155  20.456  0.00  0.00    +0.000 OA
ATOM     19  N   UNL     1       2.554   6.722  20.428  0.00  0.00    +0.000 N 
ATOM     20  H   UNL     1       3.454   6.816  19.954  0.00  0.00    +0.000 HD
BRANCH  19  21
ATOM     21  C   UNL     1       1.709   7.850  20.529  0.00  0.00    +0.000 A 
ATOM     22  C   UNL     1       1.082   8.132  21.755  0.00  0.00    +0.000 A 
ATOM     23  C   UNL     1       0.168   9.176  21.873  0.00  0.00    +0.000 A 
ATOM     24  C   UNL     1      -0.126   9.963  20.768  0.00  0.00    +0.000 A 
ATOM     25  C   UNL     1       0.525   9.724  19.556  0.00  0.00    +0.000 A 
ATOM     26  C   UNL     1       1.459   8.674  19.421  0.00  0.00    +0.000 A 
BRANCH  26  27
ATOM     27  C   UNL     1       2.045   8.430  18.058  0.00  0.00    +0.000 C 
ATOM     28  F   UNL     1       1.673   9.342  17.112  0.00  0.00    +0.000 F 
ATOM     29  F   UNL     1       3.407   8.446  18.065  0.00  0.00    +0.000 F 
ATOM     30  F   UNL     1       1.692   7.218  17.545  0.00  0.00    +0.000 F 
ENDBRANCH  26  27
ENDBRANCH  19  21
ENDBRANCH  16  17
ENDBRANCH  12  16
TORSDOF 4
ENDMDL
MODEL 3
REMARK VINA RESULT:      -8.2      3.017      8.538
REMARK  Name = 
REMARK  5 active torsions:
REMARK  status: ('A' for Active; 'I' for Inactive)
REMARK    1  A    between atoms: C_1  and  N_2
REMARK    2  A    between atoms: N_12  and  C_13
REMARK    3  A    between atoms: C_13  and  C_14
REMARK    4  A    between atoms: N_16  and  C_17
REMARK    5  A    between atoms: C_22  and  C_23
REMARK                            x       y       z     vdW  Elec       q    Type
REMARK                         _______ _______ _______ _____ _____    ______ ____
ROOT
ATOM      1  C   UNL     1       3.970   3.080  19.358  0.00  0.00    +0.000 C 
ATOM      2  N   UNL     1       3.986   4.314  18.599  0.00  0.00    +0.000 N 
ATOM      3  C   UNL     1       4.665   4.533  17.411  0.00  0.00    +0.000 A 
ATOM      4  C   UNL     1       5.489   3.691  16.647  0.00  0.00    +0.000 A 
ATOM      5  C   UNL     1       6.045   4.199  15.470  0.00  0.00    +0.000 A 
ATOM      6  C   UNL     1       5.788   5.503  15.061  0.00  0.00    +0.000 A 
ATOM      7  C   UNL     1       4.967   6.340  15.825  0.00  0.00    +0.000 A 
ATOM      8  C   UNL     1       4.398   5.853  17.019  0.00  0.00    +0.000 A 
ATOM      9  C   UNL     1       3.553   6.411  18.010  0.00  0.00    +0.000 A 
ATOM     10  C   UNL     1       2.957   7.710  18.160  0.00  0.00    +0.000 A 
ATOM     11  N   UNL     1       2.203   7.991  19.185  0.00  0.00    +0.000 NA
ATOM     12  N   UNL     1       1.952   6.995  20.140  0.00  0.00    +0.000 N 
ATOM     13  C   UNL     1       2.480   5.694  20.107  0.00  0.00    +0.000 A 
ATOM     14  O   UNL     1       2.250   4.854  20.967  0.00  0.00    +0.000 OA
ATOM     15  C   UNL     1       3.317   5.451  18.961  0.00  0.00    +0.000 A 
ENDROOT
BRANCH  12  16
ATOM     16  C   UNL     1       1.008   7.334  21.200  0.00  0.00    +0.000 C 
BRANCH  16  17
ATOM     17  C   UNL     1       0.959   8.821  21.538  0.00  0.00    +0.000 C 
ATOM     18  O   UNL     1       1.775   9.300  22.326  0.00  0.00    +0.000 OA
ATOM     19  N   UNL     1      -0.142   9.509  21.043  0.00  0.00    +0.000 N 
ATOM     20  H   UNL     1      -0.933   8.909  20.806  0.00  0.00    +0.000 HD
BRANCH  19  21
ATOM     21  C   UNL     1      -0.380  10.863  21.369  0.00  0.00    +0.000 A 
ATOM     22  C   UNL     1      -0.923  11.183  22.625  0.00  0.00    +0.000 A 
ATOM     23  C   UNL     1      -1.263  12.495  22.950  0.00  0.00    +0.000 A 
ATOM     24  C   UNL     1      -1.055  13.510  22.026  0.00  0.00    +0.000 A 
ATOM     25  C   UNL     1      -0.474  13.213  20.793  0.00  0.00    +0.000 A 
ATOM     26  C   UNL     1      -0.117  11.890  20.450  0.00  0.00    +0.000 A 
BRANCH  26  27
ATOM     27  C   UNL     1       0.421  11.648  19.066  0.00  0.00    +0.000 C 
ATOM     28  F   UNL     1       0.492  12.764  18.284  0.00  0.00    +0.000 F 
ATOM     29  F   UNL     1       1.680  11.130  19.080  0.00  0.00    +0.000 F 
ATOM     30  F   UNL     1      -0.336  10.762  18.359  0.00  0.00    +0.000 F 
ENDBRANCH  26  27
ENDBRANCH  19  21
ENDBRANCH  16  17
ENDBRANCH  12  16
TORSDOF 4
ENDMDL
MODEL 4
REMARK VINA RESULT:      -7.8      2.388      7.872
REMARK  Name = 
REMARK  5 active torsions:
REMARK  status: ('A' for Active; 'I' for Inactive)
REMARK    1  A    between atoms: C_1  and  N_2
REMARK    2  A    between atoms: N_12  and  C_13
REMARK    3  A    between atoms: C_13  and  C_14
REMARK    4  A    between atoms: N_16  and  C_17
REMARK    5  A    between atoms: C_22  and  C_23
REMARK                            x       y       z     vdW  Elec       q    Type
REMARK                         _______ _______ _______ _____ _____    ______ ____
ROOT
ATOM      1  C   UNL     1       4.231   5.478  17.099  0.00  0.00    +0.000 C 
ATOM      2  N   UNL     1       3.470   5.535  18.329  0.00  0.00    +0.000 N 
ATOM      3  C   UNL     1       3.331   4.510  19.252  0.00  0.00    +0.000 A 
ATOM      4  C   UNL     1       3.839   3.202  19.265  0.00  0.00    +0.000 A 
ATOM      5  C   UNL     1       3.524   2.380  20.351  0.00  0.00    +0.000 A 
ATOM      6  C   UNL     1       2.732   2.845  21.395  0.00  0.00    +0.000 A 
ATOM      7  C   UNL     1       2.226   4.149  21.378  0.00  0.00    +0.000 A 
ATOM      8  C   UNL     1       2.525   4.997  20.292  0.00  0.00    +0.000 A 
ATOM      9  C   UNL     1       2.183   6.330  19.956  0.00  0.00    +0.000 A 
ATOM     10  C   UNL     1       1.387   7.326  20.620  0.00  0.00    +0.000 A 
ATOM     11  N   UNL     1       1.213   8.506  20.097  0.00  0.00    +0.000 NA
ATOM     12  N   UNL     1       1.838   8.812  18.879  0.00  0.00    +0.000 N 
ATOM     13  C   UNL     1       2.633   7.924  18.134  0.00  0.00    +0.000 A 
ATOM     14  O   UNL     1       3.152   8.222  17.067  0.00  0.00    +0.000 OA
ATOM     15  C   UNL     1       2.773   6.633  18.756  0.00  0.00    +0.000 A 
ENDROOT
BRANCH  12  16
ATOM     16  C   UNL     1       1.701  10.186  18.405  0.00  0.00    +0.000 C 
BRANCH  16  17
ATOM     17  C   UNL     1       0.678  11.012  19.177  0.00  0.00    +0.000 C 
ATOM     18  O   UNL     1      -0.409  11.280  18.665  0.00  0.00    +0.000 OA
ATOM     19  N   UNL     1       1.130  11.556  20.373  0.00  0.00    +0.000 N 
ATOM     20  H   UNL     1       2.147  11.623  20.438  0.00  0.00    +0.000 HD
BRANCH  19  21
ATOM     21  C   UNL     1       0.332  12.434  21.140  0.00  0.00    +0.000 A 
ATOM     22  C   UNL     1       0.416  13.818  20.909  0.00  0.00    +0.000 A 
ATOM     23  C   UNL     1      -0.279  14.725  21.705  0.00  0.00    +0.000 A 
ATOM     24  C   UNL     1      -1.080  14.261  22.740  0.00  0.00    +0.000 A 
ATOM     25  C   UNL     1      -1.209  12.887  22.951  0.00  0.00    +0.000 A 
ATOM     26  C   UNL     1      -0.516  11.954  22.149  0.00  0.00    +0.000 A 
BRANCH  26  27
ATOM     27  C   UNL     1      -0.643  10.498  22.503  0.00  0.00    +0.000 C 
ATOM     28  F   UNL     1      -1.088   9.705  21.484  0.00  0.00    +0.000 F 
ATOM     29  F   UNL     1       0.541   9.953  22.900  0.00  0.00    +0.000 F 
ATOM     30  F   UNL     1      -1.512  10.283  23.530  0.00  0.00    +0.000 F 
ENDBRANCH  26  27
ENDBRANCH  19  21
ENDBRANCH  16  17
ENDBRANCH  12  16
TORSDOF 4
ENDMDL
MODEL 5
REMARK VINA RESULT:      -7.7      2.005      2.428
REMARK  Name = 
REMARK  5 active torsions:
REMARK  status: ('A' for Active; 'I' for Inactive)
REMARK    1  A    between atoms: C_1  and  N_2
REMARK    2  A    between atoms: N_12  and  C_13
REMARK    3  A    between atoms: C_13  and  C_14
REMARK    4  A    between atoms: N_16  and  C_17
REMARK    5  A    between atoms: C_22  and  C_23
REMARK                            x       y       z     vdW  Elec       q    Type
REMARK                         _______ _______ _______ _____ _____    ______ ____
ROOT
ATOM      1  C   UNL     1      -0.790  12.352  18.415  0.00  0.00    +0.000 C 
ATOM      2  N   UNL     1      -0.639  11.598  19.641  0.00  0.00    +0.000 N 
ATOM      3  C   UNL     1      -1.284  11.852  20.842  0.00  0.00    +0.000 A 
ATOM      4  C   UNL     1      -2.201  12.850  21.206  0.00  0.00    +0.000 A 
ATOM      5  C   UNL     1      -2.691  12.854  22.514  0.00  0.00    +0.000 A 
ATOM      6  C   UNL     1      -2.287  11.893  23.433  0.00  0.00    +0.000 A 
ATOM      7  C   UNL     1      -1.371  10.900  23.068  0.00  0.00    +0.000 A 
ATOM      8  C   UNL     1      -0.858  10.876  21.755  0.00  0.00    +0.000 A 
ATOM      9  C   UNL     1       0.062  10.046  21.068  0.00  0.00    +0.000 A 
ATOM     10  C   UNL     1       0.824   8.898  21.473  0.00  0.00    +0.000 A 
ATOM     11  N   UNL     1       1.625   8.293  20.641  0.00  0.00    +0.000 NA
ATOM     12  N   UNL     1       1.718   8.761  19.323  0.00  0.00    +0.000 N 
ATOM     13  C   UNL     1       1.030   9.874  18.810  0.00  0.00    +0.000 A 
ATOM     14  O   UNL     1       1.145  10.262  17.656  0.00  0.00    +0.000 OA
ATOM     15  C   UNL     1       0.176  10.507  19.782  0.00  0.00    +0.000 A 
ENDROOT
BRANCH  12  16
ATOM     16  C   UNL     1       2.539   7.972  18.410  0.00  0.00    +0.000 C 
BRANCH  16  17
ATOM     17  C   UNL     1       2.653   6.500  18.790  0.00  0.00    +0.000 C 
ATOM     18  O   UNL     1       3.239   6.175  19.823  0.00  0.00    +0.000 OA
ATOM     19  N   UNL     1       2.219   5.599  17.826  0.00  0.00    +0.000 N 
ATOM     20  H   UNL     1       2.186   5.987  16.881  0.00  0.00    +0.000 HD
BRANCH  19  21
ATOM     21  C   UNL     1       2.367   4.204  17.990  0.00  0.00    +0.000 A 
ATOM     22  C   UNL     1       1.334   3.469  18.597  0.00  0.00    +0.000 A 
ATOM     23  C   UNL     1       1.479   2.109  18.865  0.00  0.00    +0.000 A 
ATOM     24  C   UNL     1       2.657   1.460  18.520  0.00  0.00    +0.000 A 
ATOM     25  C   UNL     1       3.672   2.167  17.875  0.00  0.00    +0.000 A 
ATOM     26  C   UNL     1       3.539   3.544  17.590  0.00  0.00    +0.000 A 
BRANCH  26  27
ATOM     27  C   UNL     1       4.717   4.247  16.974  0.00  0.00    +0.000 C 
ATOM     28  F   UNL     1       4.390   5.171  16.023  0.00  0.00    +0.000 F 
ATOM     29  F   UNL     1       5.464   4.918  17.894  0.00  0.00    +0.000 F 
ATOM     30  F   UNL     1       5.576   3.387  16.357  0.00  0.00    +0.000 F 
ENDBRANCH  26  27
ENDBRANCH  19  21
ENDBRANCH  16  17
ENDBRANCH  12  16
TORSDOF 4
ENDMDL
MODEL 6
REMARK VINA RESULT:      -7.7      3.293      8.682
REMARK  Name = 
REMARK  5 active torsions:
REMARK  status: ('A' for Active; 'I' for Inactive)
REMARK    1  A    between atoms: C_1  and  N_2
REMARK    2  A    between atoms: N_12  and  C_13
REMARK    3  A    between atoms: C_13  and  C_14
REMARK    4  A    between atoms: N_16  and  C_17
REMARK    5  A    between atoms: C_22  and  C_23
REMARK                            x       y       z     vdW  Elec       q    Type
REMARK                         _______ _______ _______ _____ _____    ______ ____
ROOT
ATOM      1  C   UNL     1       3.352   3.974  19.710  0.00  0.00    +0.000 C 
ATOM      2  N   UNL     1       3.596   5.036  18.755  0.00  0.00    +0.000 N 
ATOM      3  C   UNL     1       4.401   4.954  17.630  0.00  0.00    +0.000 A 
ATOM      4  C   UNL     1       5.175   3.899  17.121  0.00  0.00    +0.000 A 
ATOM      5  C   UNL     1       5.896   4.115  15.944  0.00  0.00    +0.000 A 
ATOM      6  C   UNL     1       5.847   5.340  15.288  0.00  0.00    +0.000 A 
ATOM      7  C   UNL     1       5.076   6.390  15.799  0.00  0.00    +0.000 A 
ATOM      8  C   UNL     1       4.343   6.199  16.988  0.00  0.00    +0.000 A 
ATOM      9  C   UNL     1       3.492   7.022  17.766  0.00  0.00    +0.000 A 
ATOM     10  C   UNL     1       3.058   8.384  17.621  0.00  0.00    +0.000 A 
ATOM     11  N   UNL     1       2.257   8.932  18.491  0.00  0.00    +0.000 NA
ATOM     12  N   UNL     1       1.795   8.165  19.570  0.00  0.00    +0.000 N 
ATOM     13  C   UNL     1       2.151   6.830  19.823  0.00  0.00    +0.000 A 
ATOM     14  O   UNL     1       1.738   6.195  20.783  0.00  0.00    +0.000 OA
ATOM     15  C   UNL     1       3.049   6.288  18.837  0.00  0.00    +0.000 A 
ENDROOT
BRANCH  12  16
ATOM     16  C   UNL     1       0.811   8.798  20.442  0.00  0.00    +0.000 C 
BRANCH  16  17
ATOM     17  C   UNL     1       0.887  10.321  20.465  0.00  0.00    +0.000 C 
ATOM     18  O   UNL     1       1.176  10.907  21.509  0.00  0.00    +0.000 OA
ATOM     19  N   UNL     1       0.447  10.958  19.311  0.00  0.00    +0.000 N 
ATOM     20  H   UNL     1      -0.165  10.384  18.730  0.00  0.00    +0.000 HD
BRANCH  19  21
ATOM     21  C   UNL     1       0.354  12.365  19.228  0.00  0.00    +0.000 A 
ATOM     22  C   UNL     1       1.489  13.110  18.866  0.00  0.00    +0.000 A 
ATOM     23  C   UNL     1       1.467  14.503  18.865  0.00  0.00    +0.000 A 
ATOM     24  C   UNL     1       0.303  15.174  19.216  0.00  0.00    +0.000 A 
ATOM     25  C   UNL     1      -0.845  14.447  19.532  0.00  0.00    +0.000 A 
ATOM     26  C   UNL     1      -0.842  13.034  19.532  0.00  0.00    +0.000 A 
BRANCH  26  27
ATOM     27  C   UNL     1      -2.097  12.332  19.972  0.00  0.00    +0.000 C 
ATOM     28  F   UNL     1      -2.494  11.316  19.150  0.00  0.00    +0.000 F 
ATOM     29  F   UNL     1      -1.976  11.776  21.209  0.00  0.00    +0.000 F 
ATOM     30  F   UNL     1      -3.168  13.172  20.046  0.00  0.00    +0.000 F 
ENDBRANCH  26  27
ENDBRANCH  19  21
ENDBRANCH  16  17
ENDBRANCH  12  16
TORSDOF 4
ENDMDL
MODEL 7
REMARK VINA RESULT:      -7.7      3.324      7.860
REMARK  Name = 
REMARK  5 active torsions:
REMARK  status: ('A' for Active; 'I' for Inactive)
REMARK    1  A    between atoms: C_1  and  N_2
REMARK    2  A    between atoms: N_12  and  C_13
REMARK    3  A    between atoms: C_13  and  C_14
REMARK    4  A    between atoms: N_16  and  C_17
REMARK    5  A    between atoms: C_22  and  C_23
REMARK                            x       y       z     vdW  Elec       q    Type
REMARK                         _______ _______ _______ _____ _____    ______ ____
ROOT
ATOM      1  C   UNL     1       3.526   7.549  17.033  0.00  0.00    +0.000 C 
ATOM      2  N   UNL     1       2.815   7.334  18.276  0.00  0.00    +0.000 N 
ATOM      3  C   UNL     1       2.769   6.151  18.997  0.00  0.00    +0.000 A 
ATOM      4  C   UNL     1       3.345   4.895  18.752  0.00  0.00    +0.000 A 
ATOM      5  C   UNL     1       3.119   3.871  19.675  0.00  0.00    +0.000 A 
ATOM      6  C   UNL     1       2.349   4.088  20.812  0.00  0.00    +0.000 A 
ATOM      7  C   UNL     1       1.775   5.341  21.053  0.00  0.00    +0.000 A 
ATOM      8  C   UNL     1       1.983   6.390  20.134  0.00  0.00    +0.000 A 
ATOM      9  C   UNL     1       1.558   7.740  20.062  0.00  0.00    +0.000 A 
ATOM     10  C   UNL     1       0.739   8.548  20.923  0.00  0.00    +0.000 A 
ATOM     11  N   UNL     1       0.482   9.792  20.634  0.00  0.00    +0.000 NA
ATOM     12  N   UNL     1       1.038  10.352  19.475  0.00  0.00    +0.000 N 
ATOM     13  C   UNL     1       1.846   9.665  18.554  0.00  0.00    +0.000 A 
ATOM     14  O   UNL     1       2.304  10.183  17.545  0.00  0.00    +0.000 OA
ATOM     15  C   UNL     1       2.080   8.292  18.921  0.00  0.00    +0.000 A 
ENDROOT
BRANCH  12  16
ATOM     16  C   UNL     1       0.809  11.779  19.268  0.00  0.00    +0.000 C 
BRANCH  16  17
ATOM     17  C   UNL     1      -0.559  12.112  18.683  0.00  0.00    +0.000 C 
ATOM     18  O   UNL     1      -0.710  13.137  18.017  0.00  0.00    +0.000 OA
ATOM     19  N   UNL     1      -1.601  11.292  19.098  0.00  0.00    +0.000 N 
ATOM     20  H   UNL     1      -1.412  10.792  19.968  0.00  0.00    +0.000 HD
BRANCH  19  21
ATOM     21  C   UNL     1      -2.941  11.547  18.729  0.00  0.00    +0.000 A 
ATOM     22  C   UNL     1      -3.764  12.285  19.596  0.00  0.00    +0.000 A 
ATOM     23  C   UNL     1      -5.116  12.477  19.316  0.00  0.00    +0.000 A 
ATOM     24  C   UNL     1      -5.663  11.943  18.158  0.00  0.00    +0.000 A 
ATOM     25  C   UNL     1      -4.846  11.248  17.265  0.00  0.00    +0.000 A 
ATOM     26  C   UNL     1      -3.473  11.050  17.529  0.00  0.00    +0.000 A 
BRANCH  26  27
ATOM     27  C   UNL     1      -2.687  10.213  16.558  0.00  0.00    +0.000 C 
ATOM     28  F   UNL     1      -3.435   9.317  15.850  0.00  0.00    +0.000 F 
ATOM     29  F   UNL     1      -2.039  10.966  15.626  0.00  0.00    +0.000 F 
ATOM     30  F   UNL     1      -1.722   9.470  17.169  0.00  0.00    +0.000 F 
ENDBRANCH  26  27
ENDBRANCH  19  21
ENDBRANCH  16  17
ENDBRANCH  12  16
TORSDOF 4
ENDMDL
MODEL 8
REMARK VINA RESULT:      -7.6      3.081      7.949
REMARK  Name = 
REMARK  5 active torsions:
REMARK  status: ('A' for Active; 'I' for Inactive)
REMARK    1  A    between atoms: C_1  and  N_2
REMARK    2  A    between atoms: N_12  and  C_13
REMARK    3  A    between atoms: C_13  and  C_14
REMARK    4  A    between atoms: N_16  and  C_17
REMARK    5  A    between atoms: C_22  and  C_23
REMARK                            x       y       z     vdW  Elec       q    Type
REMARK                         _______ _______ _______ _____ _____    ______ ____
ROOT
ATOM      1  C   UNL     1       4.242   5.226  17.104  0.00  0.00    +0.000 C 
ATOM      2  N   UNL     1       3.466   5.433  18.309  0.00  0.00    +0.000 N 
ATOM      3  C   UNL     1       3.241   4.498  19.307  0.00  0.00    +0.000 A 
ATOM      4  C   UNL     1       3.656   3.163  19.434  0.00  0.00    +0.000 A 
ATOM      5  C   UNL     1       3.267   2.454  20.574  0.00  0.00    +0.000 A 
ATOM      6  C   UNL     1       2.493   3.054  21.560  0.00  0.00    +0.000 A 
ATOM      7  C   UNL     1       2.078   4.384  21.430  0.00  0.00    +0.000 A 
ATOM      8  C   UNL     1       2.454   5.119  20.287  0.00  0.00    +0.000 A 
ATOM      9  C   UNL     1       2.211   6.442  19.839  0.00  0.00    +0.000 A 
ATOM     10  C   UNL     1       1.476   7.539  20.404  0.00  0.00    +0.000 A 
ATOM     11  N   UNL     1       1.393   8.683  19.786  0.00  0.00    +0.000 NA
ATOM     12  N   UNL     1       2.057   8.847  18.562  0.00  0.00    +0.000 N 
ATOM     13  C   UNL     1       2.801   7.851  17.908  0.00  0.00    +0.000 A 
ATOM     14  O   UNL     1       3.358   8.025  16.833  0.00  0.00    +0.000 OA
ATOM     15  C   UNL     1       2.841   6.607  18.632  0.00  0.00    +0.000 A 
ENDROOT
BRANCH  12  16
ATOM     16  C   UNL     1       2.025  10.184  17.979  0.00  0.00    +0.000 C 
BRANCH  16  17
ATOM     17  C   UNL     1       0.945  11.091  18.561  0.00  0.00    +0.000 C 
ATOM     18  O   UNL     1       1.259  12.027  19.297  0.00  0.00    +0.000 OA
ATOM     19  N   UNL     1      -0.363  10.677  18.343  0.00  0.00    +0.000 N 
ATOM     20  H   UNL     1      -0.451   9.684  18.121  0.00  0.00    +0.000 HD
BRANCH  19  21
ATOM     21  C   UNL     1      -1.463  11.353  18.917  0.00  0.00    +0.000 A 
ATOM     22  C   UNL     1      -1.333  11.911  20.200  0.00  0.00    +0.000 A 
ATOM     23  C   UNL     1      -2.420  12.501  20.842  0.00  0.00    +0.000 A 
ATOM     24  C   UNL     1      -3.652  12.553  20.205  0.00  0.00    +0.000 A 
ATOM     25  C   UNL     1      -3.783  12.045  18.912  0.00  0.00    +0.000 A 
ATOM     26  C   UNL     1      -2.690  11.449  18.244  0.00  0.00    +0.000 A 
BRANCH  26  27
ATOM     27  C   UNL     1      -2.943  10.848  16.889  0.00  0.00    +0.000 C 
ATOM     28  F   UNL     1      -2.156  11.350  15.892  0.00  0.00    +0.000 F 
ATOM     29  F   UNL     1      -2.741   9.501  16.871  0.00  0.00    +0.000 F 
ATOM     30  F   UNL     1      -4.224  11.036  16.464  0.00  0.00    +0.000 F 
ENDBRANCH  26  27
ENDBRANCH  19  21
ENDBRANCH  16  17
ENDBRANCH  12  16
TORSDOF 4
ENDMDL
MODEL 9
REMARK VINA RESULT:      -7.5      3.099      8.501
REMARK  Name = 
REMARK  5 active torsions:
REMARK  status: ('A' for Active; 'I' for Inactive)
REMARK    1  A    between atoms: C_1  and  N_2
REMARK    2  A    between atoms: N_12  and  C_13
REMARK    3  A    between atoms: C_13  and  C_14
REMARK    4  A    between atoms: N_16  and  C_17
REMARK    5  A    between atoms: C_22  and  C_23
REMARK                            x       y       z     vdW  Elec       q    Type
REMARK                         _______ _______ _______ _____ _____    ______ ____
ROOT
ATOM      1  C   UNL     1       3.954   3.179  19.251  0.00  0.00    +0.000 C 
ATOM      2  N   UNL     1       4.073   4.343  18.398  0.00  0.00    +0.000 N 
ATOM      3  C   UNL     1       4.774   4.414  17.205  0.00  0.00    +0.000 A 
ATOM      4  C   UNL     1       5.535   3.452  16.520  0.00  0.00    +0.000 A 
ATOM      5  C   UNL     1       6.137   3.821  15.315  0.00  0.00    +0.000 A 
ATOM      6  C   UNL     1       5.986   5.104  14.801  0.00  0.00    +0.000 A 
ATOM      7  C   UNL     1       5.229   6.060  15.486  0.00  0.00    +0.000 A 
ATOM      8  C   UNL     1       4.614   5.715  16.707  0.00  0.00    +0.000 A 
ATOM      9  C   UNL     1       3.809   6.414  17.641  0.00  0.00    +0.000 A 
ATOM     10  C   UNL     1       3.316   7.764  17.680  0.00  0.00    +0.000 A 
ATOM     11  N   UNL     1       2.580   8.183  18.670  0.00  0.00    +0.000 NA
ATOM     12  N   UNL     1       2.245   7.289  19.697  0.00  0.00    +0.000 N 
ATOM     13  C   UNL     1       2.670   5.951  19.774  0.00  0.00    +0.000 A 
ATOM     14  O   UNL     1       2.368   5.203  20.693  0.00  0.00    +0.000 OA
ATOM     15  C   UNL     1       3.492   5.555  18.661  0.00  0.00    +0.000 A 
ENDROOT
BRANCH  12  16
ATOM     16  C   UNL     1       1.323   7.783  20.714  0.00  0.00    +0.000 C 
BRANCH  16  17
ATOM     17  C   UNL     1       1.124   9.295  20.691  0.00  0.00    +0.000 C 
ATOM     18  O   UNL     1       1.114   9.931  21.747  0.00  0.00    +0.000 OA
ATOM     19  N   UNL     1       0.792   9.835  19.455  0.00  0.00    +0.000 N 
ATOM     20  H   UNL     1       0.404   9.156  18.798  0.00  0.00    +0.000 HD
BRANCH  19  21
ATOM     21  C   UNL     1       0.468  11.201  19.302  0.00  0.00    +0.000 A 
ATOM     22  C   UNL     1       1.311  12.175  19.864  0.00  0.00    +0.000 A 
ATOM     23  C   UNL     1       0.978  13.528  19.820  0.00  0.00    +0.000 A 
ATOM     24  C   UNL     1      -0.199  13.929  19.203  0.00  0.00    +0.000 A 
ATOM     25  C   UNL     1      -1.021  12.976  18.599  0.00  0.00    +0.000 A 
ATOM     26  C   UNL     1      -0.696  11.603  18.629  0.00  0.00    +0.000 A 
BRANCH  26  27
ATOM     27  C   UNL     1      -1.684  10.637  18.032  0.00  0.00    +0.000 C 
ATOM     28  F   UNL     1      -2.184   9.724  18.915  0.00  0.00    +0.000 F 
ATOM     29  F   UNL     1      -2.769  11.265  17.499  0.00  0.00    +0.000 F 
ATOM     30  F   UNL     1      -1.147   9.900  17.019  0.00  0.00    +0.000 F 
ENDBRANCH  26  27
ENDBRANCH  19  21
ENDBRANCH  16  17
ENDBRANCH  12  16
TORSDOF 4
ENDMDL
