MODEL 1
REMARK VINA RESULT:      -8.8      0.000      0.000
REMARK  Name = 
REMARK  9 active torsions:
REMARK  status: ('A' for Active; 'I' for Inactive)
REMARK    1  A    between atoms: C_1  and  C_2
REMARK    2  A    between atoms: C_9  and  N_10
REMARK    3  A    between atoms: C_11  and  C_13
REMARK    4  A    between atoms: C_13  and  C_14
REMARK    5  A    between atoms: C_14  and  C_15
REMARK    6  A    between atoms: C_18  and  N_19
REMARK    7  A    between atoms: C_20  and  C_22
REMARK    8  A    between atoms: C_22  and  C_23
REMARK    9  A    between atoms: C_23  and  C_24
REMARK                            x       y       z     vdW  Elec       q    Type
REMARK                         _______ _______ _______ _____ _____    ______ ____
ROOT
ATOM      1  C   UNL     1       5.143   3.962  17.827  0.00  0.00    +0.000 C 
ENDROOT
BRANCH   1   2
ATOM      2  C   UNL     1       6.099   5.107  17.985  0.00  0.00    +0.000 A 
ATOM      3  C   UNL     1       5.985   6.266  17.224  0.00  0.00    +0.000 A 
ATOM      4  C   UNL     1       6.862   7.325  17.428  0.00  0.00    +0.000 A 
ATOM      5  C   UNL     1       7.848   7.264  18.415  0.00  0.00    +0.000 A 
ATOM      6  C   UNL     1       7.971   6.105  19.180  0.00  0.00    +0.000 A 
ATOM      7  C   UNL     1       7.088   5.040  18.978  0.00  0.00    +0.000 A 
BRANCH   5   8
ATOM      8  N   UNL     1       8.715   8.343  18.680  0.00  0.00    +0.000 N 
ATOM      9  C   UNL     1       8.518   9.632  18.220  0.00  0.00    +0.000 C 
ATOM     10  O   UNL     1       7.581  10.011  17.520  0.00  0.00    +0.000 OA
ATOM     11  H   UNL     1       9.433   8.190  19.377  0.00  0.00    +0.000 HD
BRANCH   9  12
ATOM     12  C   UNL     1       9.586  10.606  18.657  0.00  0.00    +0.000 C 
BRANCH  12  13
ATOM     13  C   UNL     1       9.695  10.536  20.180  0.00  0.00    +0.000 C 
BRANCH  13  14
ATOM     14  C   UNL     1       9.673  11.893  20.819  0.00  0.00    +0.000 A 
ATOM     15  C   UNL     1      10.556  12.891  20.392  0.00  0.00    +0.000 A 
ATOM     16  C   UNL     1      10.530  14.151  20.987  0.00  0.00    +0.000 A 
ATOM     17  C   UNL     1       9.624  14.421  22.010  0.00  0.00    +0.000 A 
ATOM     18  C   UNL     1       8.740  13.433  22.440  0.00  0.00    +0.000 A 
ATOM     19  C   UNL     1       8.764  12.172  21.848  0.00  0.00    +0.000 A 
ENDBRANCH  13  14
ENDBRANCH  12  13
ENDBRANCH   9  12
ENDBRANCH   5   8
ENDBRANCH   1   2
BRANCH   1  20
ATOM     20  C   UNL     1       4.048   3.840  18.898  0.00  0.00    +0.000 C 
BRANCH  20  22
ATOM     21  N   UNL     1       3.236   5.991  19.697  0.00  0.00    +0.000 N 
ATOM     22  C   UNL     1       3.109   5.010  18.728  0.00  0.00    +0.000 C 
ATOM     23  O   UNL     1       2.319   5.030  17.793  0.00  0.00    +0.000 OA
ATOM     24  H   UNL     1       3.930   5.858  20.423  0.00  0.00    +0.000 HD
BRANCH  21  33
ATOM     25  C   UNL     1      -0.120  11.667  18.741  0.00  0.00    +0.000 C 
ATOM     26  C   UNL     1       0.072  10.766  19.921  0.00  0.00    +0.000 A 
ATOM     27  C   UNL     1      -0.483  11.050  21.110  0.00  0.00    +0.000 A 
ATOM     28  C   UNL     1      -0.325  10.207  22.303  0.00  0.00    +0.000 A 
ATOM     29  O   UNL     1      -0.860  10.510  23.359  0.00  0.00    +0.000 OA
ATOM     30  O   UNL     1       0.451   9.076  22.155  0.00  0.00    +0.000 OA
ATOM     31  C   UNL     1       1.045   8.760  20.922  0.00  0.00    +0.000 A 
ATOM     32  C   UNL     1       1.804   7.596  20.907  0.00  0.00    +0.000 A 
ATOM     33  C   UNL     1       2.447   7.168  19.746  0.00  0.00    +0.000 A 
ATOM     34  C   UNL     1       2.299   7.947  18.593  0.00  0.00    +0.000 A 
ATOM     35  C   UNL     1       1.526   9.128  18.619  0.00  0.00    +0.000 A 
ATOM     36  C   UNL     1       0.888   9.552  19.793  0.00  0.00    +0.000 A 
ENDBRANCH  21  33
ENDBRANCH  20  22
ENDBRANCH   1  20
TORSDOF 8
ENDMDL
MODEL 2
REMARK VINA RESULT:      -8.8      1.589      2.328
REMARK  Name = 
REMARK  9 active torsions:
REMARK  status: ('A' for Active; 'I' for Inactive)
REMARK    1  A    between atoms: C_1  and  C_2
REMARK    2  A    between atoms: C_9  and  N_10
REMARK    3  A    between atoms: C_11  and  C_13
REMARK    4  A    between atoms: C_13  and  C_14
REMARK    5  A    between atoms: C_14  and  C_15
REMARK    6  A    between atoms: C_18  and  N_19
REMARK    7  A    between atoms: C_20  and  C_22
REMARK    8  A    between atoms: C_22  and  C_23
REMARK    9  A    between atoms: C_23  and  C_24
REMARK                            x       y       z     vdW  Elec       q    Type
REMARK                         _______ _______ _______ _____ _____    ______ ____
ROOT
ATOM      1  C   UNL     1       4.235   3.138  17.755  0.00  0.00    +0.000 C 
ENDROOT
BRANCH   1   2
ATOM      2  C   UNL     1       5.324   4.164  17.865  0.00  0.00    +0.000 A 
ATOM      3  C   UNL     1       6.018   4.618  16.747  0.00  0.00    +0.000 A 
ATOM      4  C   UNL     1       6.990   5.603  16.881  0.00  0.00    +0.000 A 
ATOM      5  C   UNL     1       7.267   6.178  18.123  0.00  0.00    +0.000 A 
ATOM      6  C   UNL     1       6.578   5.727  19.248  0.00  0.00    +0.000 A 
ATOM      7  C   UNL     1       5.599   4.739  19.115  0.00  0.00    +0.000 A 
BRANCH   5   8
ATOM      8  N   UNL     1       8.209   7.215  18.278  0.00  0.00    +0.000 N 
ATOM      9  C   UNL     1       8.009   8.518  17.860  0.00  0.00    +0.000 C 
ATOM     10  O   UNL     1       7.004   8.946  17.296  0.00  0.00    +0.000 OA
ATOM     11  H   UNL     1       9.006   7.022  18.872  0.00  0.00    +0.000 HD
BRANCH   9  12
ATOM     12  C   UNL     1       9.167   9.439  18.158  0.00  0.00    +0.000 C 
BRANCH  12  13
ATOM     13  C   UNL     1       8.955  10.030  19.552  0.00  0.00    +0.000 C 
BRANCH  13  14
ATOM     14  C   UNL     1       9.774  11.265  19.781  0.00  0.00    +0.000 A 
ATOM     15  C   UNL     1       9.468  12.131  20.837  0.00  0.00    +0.000 A 
ATOM     16  C   UNL     1      10.234  13.276  21.049  0.00  0.00    +0.000 A 
ATOM     17  C   UNL     1      11.308  13.563  20.209  0.00  0.00    +0.000 A 
ATOM     18  C   UNL     1      11.620  12.704  19.156  0.00  0.00    +0.000 A 
ATOM     19  C   UNL     1      10.857  11.559  18.942  0.00  0.00    +0.000 A 
ENDBRANCH  13  14
ENDBRANCH  12  13
ENDBRANCH   9  12
ENDBRANCH   5   8
ENDBRANCH   1   2
BRANCH   1  20
ATOM     20  C   UNL     1       2.948   3.587  17.047  0.00  0.00    +0.000 C 
BRANCH  20  22
ATOM     21  N   UNL     1       2.695   5.842  17.928  0.00  0.00    +0.000 N 
ATOM     22  C   UNL     1       2.226   4.540  17.969  0.00  0.00    +0.000 C 
ATOM     23  O   UNL     1       1.313   4.133  18.675  0.00  0.00    +0.000 OA
ATOM     24  H   UNL     1       3.460   6.055  17.299  0.00  0.00    +0.000 HD
BRANCH  21  33
ATOM     25  C   UNL     1       0.230   9.955  22.555  0.00  0.00    +0.000 C 
ATOM     26  C   UNL     1       0.576  10.116  21.107  0.00  0.00    +0.000 A 
ATOM     27  C   UNL     1       0.387  11.284  20.473  0.00  0.00    +0.000 A 
ATOM     28  C   UNL     1       0.702  11.500  19.054  0.00  0.00    +0.000 A 
ATOM     29  O   UNL     1       0.515  12.587  18.530  0.00  0.00    +0.000 OA
ATOM     30  O   UNL     1       1.211  10.416  18.369  0.00  0.00    +0.000 OA
ATOM     31  C   UNL     1       1.414   9.182  19.010  0.00  0.00    +0.000 A 
ATOM     32  C   UNL     1       1.929   8.172  18.207  0.00  0.00    +0.000 A 
ATOM     33  C   UNL     1       2.179   6.899  18.720  0.00  0.00    +0.000 A 
ATOM     34  C   UNL     1       1.900   6.674  20.072  0.00  0.00    +0.000 A 
ATOM     35  C   UNL     1       1.377   7.708  20.879  0.00  0.00    +0.000 A 
ATOM     36  C   UNL     1       1.125   8.982  20.352  0.00  0.00    +0.000 A 
ENDBRANCH  21  33
ENDBRANCH  20  22
ENDBRANCH   1  20
TORSDOF 8
ENDMDL
MODEL 3
REMARK VINA RESULT:      -8.7      4.295      9.562
REMARK  Name = 
REMARK  9 active torsions:
REMARK  status: ('A' for Active; 'I' for Inactive)
REMARK    1  A    between atoms: C_1  and  C_2
REMARK    2  A    between atoms: C_9  and  N_10
REMARK    3  A    between atoms: C_11  and  C_13
REMARK    4  A    between atoms: C_13  and  C_14
REMARK    5  A    between atoms: C_14  and  C_15
REMARK    6  A    between atoms: C_18  and  N_19
REMARK    7  A    between atoms: C_20  and  C_22
REMARK    8  A    between atoms: C_22  and  C_23
REMARK    9  A    between atoms: C_23  and  C_24
REMARK                            x       y       z     vdW  Elec       q    Type
REMARK                         _______ _______ _______ _____ _____    ______ ____
ROOT
ATOM      1  C   UNL     1       8.854   8.821  18.758  0.00  0.00    +0.000 C 
ENDROOT
BRANCH   1   2
ATOM      2  C   UNL     1       8.012   7.650  18.344  0.00  0.00    +0.000 A 
ATOM      3  C   UNL     1       8.020   6.455  19.057  0.00  0.00    +0.000 A 
ATOM      4  C   UNL     1       7.193   5.406  18.671  0.00  0.00    +0.000 A 
ATOM      5  C   UNL     1       6.320   5.537  17.589  0.00  0.00    +0.000 A 
ATOM      6  C   UNL     1       6.308   6.731  16.868  0.00  0.00    +0.000 A 
ATOM      7  C   UNL     1       7.136   7.787  17.257  0.00  0.00    +0.000 A 
BRANCH   5   8
ATOM      8  N   UNL     1       5.433   4.510  17.209  0.00  0.00    +0.000 N 
ATOM      9  C   UNL     1       4.055   4.605  17.281  0.00  0.00    +0.000 C 
ATOM     10  O   UNL     1       3.421   5.577  17.688  0.00  0.00    +0.000 OA
ATOM     11  H   UNL     1       5.832   3.726  16.709  0.00  0.00    +0.000 HD
BRANCH   9  12
ATOM     12  C   UNL     1       3.332   3.370  16.799  0.00  0.00    +0.000 C 
BRANCH  12  13
ATOM     13  C   UNL     1       3.534   2.268  17.838  0.00  0.00    +0.000 C 
BRANCH  13  14
ATOM     14  C   UNL     1       2.768   2.523  19.101  0.00  0.00    +0.000 A 
ATOM     15  C   UNL     1       3.415   2.488  20.341  0.00  0.00    +0.000 A 
ATOM     16  C   UNL     1       2.700   2.728  21.513  0.00  0.00    +0.000 A 
ATOM     17  C   UNL     1       1.335   3.004  21.453  0.00  0.00    +0.000 A 
ATOM     18  C   UNL     1       0.684   3.043  20.222  0.00  0.00    +0.000 A 
ATOM     19  C   UNL     1       1.396   2.803  19.049  0.00  0.00    +0.000 A 
ENDBRANCH  13  14
ENDBRANCH  12  13
ENDBRANCH   9  12
ENDBRANCH   5   8
ENDBRANCH   1   2
BRANCH   1  20
ATOM     20  C   UNL     1       8.867  10.021  17.800  0.00  0.00    +0.000 C 
BRANCH  20  22
ATOM     21  N   UNL     1       8.897  12.452  17.918  0.00  0.00    +0.000 N 
ATOM     22  C   UNL     1       9.000  11.272  18.634  0.00  0.00    +0.000 C 
ATOM     23  O   UNL     1       9.188  11.185  19.841  0.00  0.00    +0.000 OA
ATOM     24  H   UNL     1       8.739  12.392  16.918  0.00  0.00    +0.000 HD
BRANCH  21  33
ATOM     25  C   UNL     1      10.624  18.234  20.742  0.00  0.00    +0.000 C 
ATOM     26  C   UNL     1       9.323  17.663  20.268  0.00  0.00    +0.000 A 
ATOM     27  C   UNL     1       8.177  18.351  20.388  0.00  0.00    +0.000 A 
ATOM     28  C   UNL     1       6.873  17.841  19.945  0.00  0.00    +0.000 A 
ATOM     29  O   UNL     1       5.861  18.514  20.073  0.00  0.00    +0.000 OA
ATOM     30  O   UNL     1       6.865  16.579  19.389  0.00  0.00    +0.000 OA
ATOM     31  C   UNL     1       8.053  15.838  19.255  0.00  0.00    +0.000 A 
ATOM     32  C   UNL     1       7.908  14.581  18.682  0.00  0.00    +0.000 A 
ATOM     33  C   UNL     1       9.008  13.744  18.491  0.00  0.00    +0.000 A 
ATOM     34  C   UNL     1      10.263  14.214  18.892  0.00  0.00    +0.000 A 
ATOM     35  C   UNL     1      10.398  15.493  19.474  0.00  0.00    +0.000 A 
ATOM     36  C   UNL     1       9.286  16.325  19.665  0.00  0.00    +0.000 A 
ENDBRANCH  21  33
ENDBRANCH  20  22
ENDBRANCH   1  20
TORSDOF 8
ENDMDL
MODEL 4
REMARK VINA RESULT:      -8.6      4.793      7.287
REMARK  Name = 
REMARK  9 active torsions:
REMARK  status: ('A' for Active; 'I' for Inactive)
REMARK    1  A    between atoms: C_1  and  C_2
REMARK    2  A    between atoms: C_9  and  N_10
REMARK    3  A    between atoms: C_11  and  C_13
REMARK    4  A    between atoms: C_13  and  C_14
REMARK    5  A    between atoms: C_14  and  C_15
REMARK    6  A    between atoms: C_18  and  N_19
REMARK    7  A    between atoms: C_20  and  C_22
REMARK    8  A    between atoms: C_22  and  C_23
REMARK    9  A    between atoms: C_23  and  C_24
REMARK                            x       y       z     vdW  Elec       q    Type
REMARK                         _______ _______ _______ _____ _____    ______ ____
ROOT
ATOM      1  C   UNL     1       3.334   2.463  21.045  0.00  0.00    +0.000 C 
ENDROOT
BRANCH   1   2
ATOM      2  C   UNL     1       3.874   2.871  19.706  0.00  0.00    +0.000 A 
ATOM      3  C   UNL     1       3.494   2.223  18.535  0.00  0.00    +0.000 A 
ATOM      4  C   UNL     1       3.979   2.657  17.307  0.00  0.00    +0.000 A 
ATOM      5  C   UNL     1       4.824   3.765  17.217  0.00  0.00    +0.000 A 
ATOM      6  C   UNL     1       5.211   4.419  18.386  0.00  0.00    +0.000 A 
ATOM      7  C   UNL     1       4.723   3.985  19.621  0.00  0.00    +0.000 A 
BRANCH   5   8
ATOM      8  N   UNL     1       5.287   4.260  15.981  0.00  0.00    +0.000 N 
ATOM      9  C   UNL     1       6.612   4.542  15.702  0.00  0.00    +0.000 C 
ATOM     10  O   UNL     1       7.554   4.412  16.481  0.00  0.00    +0.000 OA
ATOM     11  H   UNL     1       4.628   4.254  15.213  0.00  0.00    +0.000 HD
BRANCH   9  12
ATOM     12  C   UNL     1       6.846   5.047  14.299  0.00  0.00    +0.000 C 
BRANCH  12  13
ATOM     13  C   UNL     1       5.676   4.589  13.429  0.00  0.00    +0.000 C 
BRANCH  13  14
ATOM     14  C   UNL     1       6.058   3.486  12.489  0.00  0.00    +0.000 A 
ATOM     15  C   UNL     1       5.096   2.574  12.039  0.00  0.00    +0.000 A 
ATOM     16  C   UNL     1       5.455   1.552  11.162  0.00  0.00    +0.000 A 
ATOM     17  C   UNL     1       6.775   1.434  10.731  0.00  0.00    +0.000 A 
ATOM     18  C   UNL     1       7.738   2.339  11.173  0.00  0.00    +0.000 A 
ATOM     19  C   UNL     1       7.382   3.362  12.049  0.00  0.00    +0.000 A 
ENDBRANCH  13  14
ENDBRANCH  12  13
ENDBRANCH   9  12
ENDBRANCH   5   8
ENDBRANCH   1   2
BRANCH   1  20
ATOM     20  C   UNL     1       1.836   2.709  21.277  0.00  0.00    +0.000 C 
BRANCH  20  22
ATOM     21  N   UNL     1       2.047   5.128  21.102  0.00  0.00    +0.000 N 
ATOM     22  C   UNL     1       1.467   3.990  20.568  0.00  0.00    +0.000 C 
ATOM     23  O   UNL     1       0.707   3.960  19.608  0.00  0.00    +0.000 OA
ATOM     24  H   UNL     1       2.661   5.021  21.901  0.00  0.00    +0.000 HD
BRANCH  21  33
ATOM     25  C   UNL     1       1.799  10.949  17.871  0.00  0.00    +0.000 C 
ATOM     26  C   UNL     1       1.183  10.444  19.139  0.00  0.00    +0.000 A 
ATOM     27  C   UNL     1       0.401  11.231  19.894  0.00  0.00    +0.000 A 
ATOM     28  C   UNL     1      -0.225  10.792  21.148  0.00  0.00    +0.000 A 
ATOM     29  O   UNL     1      -0.934  11.549  21.793  0.00  0.00    +0.000 OA
ATOM     30  O   UNL     1       0.035   9.496  21.542  0.00  0.00    +0.000 OA
ATOM     31  C   UNL     1       0.854   8.654  20.769  0.00  0.00    +0.000 A 
ATOM     32  C   UNL     1       1.039   7.374  21.278  0.00  0.00    +0.000 A 
ATOM     33  C   UNL     1       1.828   6.439  20.608  0.00  0.00    +0.000 A 
ATOM     34  C   UNL     1       2.424   6.830  19.404  0.00  0.00    +0.000 A 
ATOM     35  C   UNL     1       2.229   8.132  18.897  0.00  0.00    +0.000 A 
ATOM     36  C   UNL     1       1.437   9.066  19.580  0.00  0.00    +0.000 A 
ENDBRANCH  21  33
ENDBRANCH  20  22
ENDBRANCH   1  20
TORSDOF 8
ENDMDL
MODEL 5
REMARK VINA RESULT:      -8.5      4.896      8.693
REMARK  Name = 
REMARK  9 active torsions:
REMARK  status: ('A' for Active; 'I' for Inactive)
REMARK    1  A    between atoms: C_1  and  C_2
REMARK    2  A    between atoms: C_9  and  N_10
REMARK    3  A    between atoms: C_11  and  C_13
REMARK    4  A    between atoms: C_13  and  C_14
REMARK    5  A    between atoms: C_14  and  C_15
REMARK    6  A    between atoms: C_18  and  N_19
REMARK    7  A    between atoms: C_20  and  C_22
REMARK    8  A    between atoms: C_22  and  C_23
REMARK    9  A    between atoms: C_23  and  C_24
REMARK                            x       y       z     vdW  Elec       q    Type
REMARK                         _______ _______ _______ _____ _____    ______ ____
ROOT
ATOM      1  C   UNL     1       0.918  10.989  19.261  0.00  0.00    +0.000 C 
ENDROOT
BRANCH   1   2
ATOM      2  C   UNL     1       1.444   9.624  18.926  0.00  0.00    +0.000 A 
ATOM      3  C   UNL     1       1.976   9.332  17.673  0.00  0.00    +0.000 A 
ATOM      4  C   UNL     1       2.496   8.070  17.412  0.00  0.00    +0.000 A 
ATOM      5  C   UNL     1       2.525   7.084  18.401  0.00  0.00    +0.000 A 
ATOM      6  C   UNL     1       1.991   7.368  19.658  0.00  0.00    +0.000 A 
ATOM      7  C   UNL     1       1.472   8.637  19.923  0.00  0.00    +0.000 A 
BRANCH   5   8
ATOM      8  N   UNL     1       3.095   5.814  18.180  0.00  0.00    +0.000 N 
ATOM      9  C   UNL     1       4.453   5.556  18.190  0.00  0.00    +0.000 C 
ATOM     10  O   UNL     1       5.341   6.386  18.379  0.00  0.00    +0.000 OA
ATOM     11  H   UNL     1       2.460   5.025  18.174  0.00  0.00    +0.000 HD
BRANCH   9  12
ATOM     12  C   UNL     1       4.802   4.109  17.941  0.00  0.00    +0.000 C 
BRANCH  12  13
ATOM     13  C   UNL     1       3.498   3.328  17.787  0.00  0.00    +0.000 C 
BRANCH  13  14
ATOM     14  C   UNL     1       2.813   3.090  19.099  0.00  0.00    +0.000 A 
ATOM     15  C   UNL     1       3.552   2.701  20.222  0.00  0.00    +0.000 A 
ATOM     16  C   UNL     1       2.912   2.483  21.441  0.00  0.00    +0.000 A 
ATOM     17  C   UNL     1       1.533   2.652  21.546  0.00  0.00    +0.000 A 
ATOM     18  C   UNL     1       0.790   3.041  20.432  0.00  0.00    +0.000 A 
ATOM     19  C   UNL     1       1.427   3.259  19.213  0.00  0.00    +0.000 A 
ENDBRANCH  13  14
ENDBRANCH  12  13
ENDBRANCH   9  12
ENDBRANCH   5   8
ENDBRANCH   1   2
BRANCH   1  20
ATOM     20  C   UNL     1      -0.496  11.314  18.759  0.00  0.00    +0.000 C 
BRANCH  20  22
ATOM     21  N   UNL     1      -2.315  12.680  19.626  0.00  0.00    +0.000 N 
ATOM     22  C   UNL     1      -1.304  11.790  19.943  0.00  0.00    +0.000 C 
ATOM     23  O   UNL     1      -1.034  11.388  21.068  0.00  0.00    +0.000 OA
ATOM     24  H   UNL     1      -2.439  12.936  18.653  0.00  0.00    +0.000 HD
BRANCH  21  33
ATOM     25  C   UNL     1      -5.673  16.444  23.980  0.00  0.00    +0.000 C 
ATOM     26  C   UNL     1      -5.821  15.032  23.504  0.00  0.00    +0.000 A 
ATOM     27  C   UNL     1      -6.789  14.235  23.984  0.00  0.00    +0.000 A 
ATOM     28  C   UNL     1      -6.979  12.842  23.559  0.00  0.00    +0.000 A 
ATOM     29  O   UNL     1      -7.882  12.163  24.024  0.00  0.00    +0.000 OA
ATOM     30  O   UNL     1      -6.091  12.361  22.619  0.00  0.00    +0.000 OA
ATOM     31  C   UNL     1      -5.068  13.176  22.105  0.00  0.00    +0.000 A 
ATOM     32  C   UNL     1      -4.239  12.570  21.168  0.00  0.00    +0.000 A 
ATOM     33  C   UNL     1      -3.186  13.268  20.578  0.00  0.00    +0.000 A 
ATOM     34  C   UNL     1      -2.993  14.601  20.957  0.00  0.00    +0.000 A 
ATOM     35  C   UNL     1      -3.840  15.206  21.910  0.00  0.00    +0.000 A 
ATOM     36  C   UNL     1      -4.894  14.494  22.500  0.00  0.00    +0.000 A 
ENDBRANCH  21  33
ENDBRANCH  20  22
ENDBRANCH   1  20
TORSDOF 8
ENDMDL
MODEL 6
REMARK VINA RESULT:      -8.5      1.552      2.060
REMARK  Name = 
REMARK  9 active torsions:
REMARK  status: ('A' for Active; 'I' for Inactive)
REMARK    1  A    between atoms: C_1  and  C_2
REMARK    2  A    between atoms: C_9  and  N_10
REMARK    3  A    between atoms: C_11  and  C_13
REMARK    4  A    between atoms: C_13  and  C_14
REMARK    5  A    between atoms: C_14  and  C_15
REMARK    6  A    between atoms: C_18  and  N_19
REMARK    7  A    between atoms: C_20  and  C_22
REMARK    8  A    between atoms: C_22  and  C_23
REMARK    9  A    between atoms: C_23  and  C_24
REMARK                            x       y       z     vdW  Elec       q    Type
REMARK                         _______ _______ _______ _____ _____    ______ ____
ROOT
ATOM      1  C   UNL     1       5.324   3.973  17.680  0.00  0.00    +0.000 C 
ENDROOT
BRANCH   1   2
ATOM      2  C   UNL     1       6.295   5.087  17.936  0.00  0.00    +0.000 A 
ATOM      3  C   UNL     1       6.620   6.016  16.952  0.00  0.00    +0.000 A 
ATOM      4  C   UNL     1       7.489   7.062  17.238  0.00  0.00    +0.000 A 
ATOM      5  C   UNL     1       8.026   7.224  18.517  0.00  0.00    +0.000 A 
ATOM      6  C   UNL     1       7.707   6.296  19.508  0.00  0.00    +0.000 A 
ATOM      7  C   UNL     1       6.832   5.245  19.223  0.00  0.00    +0.000 A 
BRANCH   5   8
ATOM      8  N   UNL     1       8.867   8.305  18.849  0.00  0.00    +0.000 N 
ATOM      9  C   UNL     1       8.621   9.620  18.498  0.00  0.00    +0.000 C 
ATOM     10  O   UNL     1       7.656  10.023  17.850  0.00  0.00    +0.000 OA
ATOM     11  H   UNL     1       9.604   8.119  19.517  0.00  0.00    +0.000 HD
BRANCH   9  12
ATOM     12  C   UNL     1       9.668  10.589  18.990  0.00  0.00    +0.000 C 
BRANCH  12  13
ATOM     13  C   UNL     1      10.444  11.103  17.777  0.00  0.00    +0.000 C 
BRANCH  13  14
ATOM     14  C   UNL     1      11.033  12.462  18.007  0.00  0.00    +0.000 A 
ATOM     15  C   UNL     1      11.504  12.824  19.274  0.00  0.00    +0.000 A 
ATOM     16  C   UNL     1      12.054  14.088  19.483  0.00  0.00    +0.000 A 
ATOM     17  C   UNL     1      12.135  14.996  18.429  0.00  0.00    +0.000 A 
ATOM     18  C   UNL     1      11.669  14.643  17.164  0.00  0.00    +0.000 A 
ATOM     19  C   UNL     1      11.119  13.381  16.952  0.00  0.00    +0.000 A 
ENDBRANCH  13  14
ENDBRANCH  12  13
ENDBRANCH   9  12
ENDBRANCH   5   8
ENDBRANCH   1   2
BRANCH   1  20
ATOM     20  C   UNL     1       3.978   4.375  17.058  0.00  0.00    +0.000 C 
BRANCH  20  22
ATOM     21  N   UNL     1       3.017   6.573  17.468  0.00  0.00    +0.000 N 
ATOM     22  C   UNL     1       3.301   5.332  18.010  0.00  0.00    +0.000 C 
ATOM     23  O   UNL     1       3.056   4.982  19.157  0.00  0.00    +0.000 OA
ATOM     24  H   UNL     1       3.270   6.742  16.501  0.00  0.00    +0.000 HD
BRANCH  21  33
ATOM     25  C   UNL     1       0.130  12.138  19.726  0.00  0.00    +0.000 C 
ATOM     26  C   UNL     1       0.560  10.859  20.376  0.00  0.00    +0.000 A 
ATOM     27  C   UNL     1       0.400  10.661  21.694  0.00  0.00    +0.000 A 
ATOM     28  C   UNL     1       0.806   9.431  22.387  0.00  0.00    +0.000 A 
ATOM     29  O   UNL     1       0.631   9.302  23.589  0.00  0.00    +0.000 OA
ATOM     30  O   UNL     1       1.387   8.452  21.607  0.00  0.00    +0.000 OA
ATOM     31  C   UNL     1       1.566   8.637  20.225  0.00  0.00    +0.000 A 
ATOM     32  C   UNL     1       2.165   7.577  19.556  0.00  0.00    +0.000 A 
ATOM     33  C   UNL     1       2.400   7.632  18.182  0.00  0.00    +0.000 A 
ATOM     34  C   UNL     1       2.009   8.788  17.498  0.00  0.00    +0.000 A 
ATOM     35  C   UNL     1       1.402   9.859  18.189  0.00  0.00    +0.000 A 
ATOM     36  C   UNL     1       1.174   9.796  19.571  0.00  0.00    +0.000 A 
ENDBRANCH  21  33
ENDBRANCH  20  22
ENDBRANCH   1  20
TORSDOF 8
ENDMDL
MODEL 7
REMARK VINA RESULT:      -8.4      5.125      8.253
REMARK  Name = 
REMARK  9 active torsions:
REMARK  status: ('A' for Active; 'I' for Inactive)
REMARK    1  A    between atoms: C_1  and  C_2
REMARK    2  A    between atoms: C_9  and  N_10
REMARK    3  A    between atoms: C_11  and  C_13
REMARK    4  A    between atoms: C_13  and  C_14
REMARK    5  A    between atoms: C_14  and  C_15
REMARK    6  A    between atoms: C_18  and  N_19
REMARK    7  A    between atoms: C_20  and  C_22
REMARK    8  A    between atoms: C_22  and  C_23
REMARK    9  A    between atoms: C_23  and  C_24
REMARK                            x       y       z     vdW  Elec       q    Type
REMARK                         _______ _______ _______ _____ _____    ______ ____
ROOT
ATOM      1  C   UNL     1       0.468   9.872  19.589  0.00  0.00    +0.000 C 
ENDROOT
BRANCH   1   2
ATOM      2  C   UNL     1       1.472   8.851  19.140  0.00  0.00    +0.000 A 
ATOM      3  C   UNL     1       1.803   7.754  19.930  0.00  0.00    +0.000 A 
ATOM      4  C   UNL     1       2.704   6.804  19.463  0.00  0.00    +0.000 A 
ATOM      5  C   UNL     1       3.267   6.909  18.189  0.00  0.00    +0.000 A 
ATOM      6  C   UNL     1       2.941   8.007  17.393  0.00  0.00    +0.000 A 
ATOM      7  C   UNL     1       2.034   8.961  17.859  0.00  0.00    +0.000 A 
BRANCH   5   8
ATOM      8  N   UNL     1       4.140   5.933  17.669  0.00  0.00    +0.000 N 
ATOM      9  C   UNL     1       3.749   4.666  17.278  0.00  0.00    +0.000 C 
ATOM     10  O   UNL     1       2.606   4.217  17.337  0.00  0.00    +0.000 OA
ATOM     11  H   UNL     1       5.073   6.241  17.424  0.00  0.00    +0.000 HD
BRANCH   9  12
ATOM     12  C   UNL     1       4.876   3.818  16.742  0.00  0.00    +0.000 C 
BRANCH  12  13
ATOM     13  C   UNL     1       5.970   4.753  16.230  0.00  0.00    +0.000 C 
BRANCH  13  14
ATOM     14  C   UNL     1       6.296   4.519  14.785  0.00  0.00    +0.000 A 
ATOM     15  C   UNL     1       5.503   3.665  14.011  0.00  0.00    +0.000 A 
ATOM     16  C   UNL     1       5.808   3.452  12.667  0.00  0.00    +0.000 A 
ATOM     17  C   UNL     1       6.906   4.088  12.091  0.00  0.00    +0.000 A 
ATOM     18  C   UNL     1       7.700   4.941  12.856  0.00  0.00    +0.000 A 
ATOM     19  C   UNL     1       7.397   5.156  14.198  0.00  0.00    +0.000 A 
ENDBRANCH  13  14
ENDBRANCH  12  13
ENDBRANCH   9  12
ENDBRANCH   5   8
ENDBRANCH   1   2
BRANCH   1  20
ATOM     20  C   UNL     1       0.366  11.145  18.737  0.00  0.00    +0.000 C 
BRANCH  20  22
ATOM     21  N   UNL     1      -1.081  11.805  20.579  0.00  0.00    +0.000 N 
ATOM     22  C   UNL     1      -0.189  12.241  19.615  0.00  0.00    +0.000 C 
ATOM     23  O   UNL     1       0.157  13.402  19.436  0.00  0.00    +0.000 OA
ATOM     24  H   UNL     1      -1.287  10.814  20.627  0.00  0.00    +0.000 HD
BRANCH  21  33
ATOM     25  C   UNL     1      -5.149  15.686  24.155  0.00  0.00    +0.000 C 
ATOM     26  C   UNL     1      -3.712  15.290  24.294  0.00  0.00    +0.000 A 
ATOM     27  C   UNL     1      -2.958  15.752  25.303  0.00  0.00    +0.000 A 
ATOM     28  C   UNL     1      -1.543  15.402  25.488  0.00  0.00    +0.000 A 
ATOM     29  O   UNL     1      -0.905  15.848  26.430  0.00  0.00    +0.000 OA
ATOM     30  O   UNL     1      -0.994  14.556  24.547  0.00  0.00    +0.000 OA
ATOM     31  C   UNL     1      -1.763  14.060  23.480  0.00  0.00    +0.000 A 
ATOM     32  C   UNL     1      -1.090  13.220  22.602  0.00  0.00    +0.000 A 
ATOM     33  C   UNL     1      -1.738  12.660  21.501  0.00  0.00    +0.000 A 
ATOM     34  C   UNL     1      -3.090  12.968  21.312  0.00  0.00    +0.000 A 
ATOM     35  C   UNL     1      -3.763  13.823  22.211  0.00  0.00    +0.000 A 
ATOM     36  C   UNL     1      -3.101  14.384  23.312  0.00  0.00    +0.000 A 
ENDBRANCH  21  33
ENDBRANCH  20  22
ENDBRANCH   1  20
TORSDOF 8
ENDMDL
MODEL 8
REMARK VINA RESULT:      -8.4      4.623      8.429
REMARK  Name = 
REMARK  9 active torsions:
REMARK  status: ('A' for Active; 'I' for Inactive)
REMARK    1  A    between atoms: C_1  and  C_2
REMARK    2  A    between atoms: C_9  and  N_10
REMARK    3  A    between atoms: C_11  and  C_13
REMARK    4  A    between atoms: C_13  and  C_14
REMARK    5  A    between atoms: C_14  and  C_15
REMARK    6  A    between atoms: C_18  and  N_19
REMARK    7  A    between atoms: C_20  and  C_22
REMARK    8  A    between atoms: C_22  and  C_23
REMARK    9  A    between atoms: C_23  and  C_24
REMARK                            x       y       z     vdW  Elec       q    Type
REMARK                         _______ _______ _______ _____ _____    ______ ____
ROOT
ATOM      1  C   UNL     1       0.190  10.793  19.782  0.00  0.00    +0.000 C 
ENDROOT
BRANCH   1   2
ATOM      2  C   UNL     1       0.983   9.522  19.695  0.00  0.00    +0.000 A 
ATOM      3  C   UNL     1       1.075   8.642  20.769  0.00  0.00    +0.000 A 
ATOM      4  C   UNL     1       1.781   7.452  20.638  0.00  0.00    +0.000 A 
ATOM      5  C   UNL     1       2.381   7.099  19.428  0.00  0.00    +0.000 A 
ATOM      6  C   UNL     1       2.296   7.977  18.347  0.00  0.00    +0.000 A 
ATOM      7  C   UNL     1       1.584   9.173  18.476  0.00  0.00    +0.000 A 
BRANCH   5   8
ATOM      8  N   UNL     1       3.057   5.875  19.251  0.00  0.00    +0.000 N 
ATOM      9  C   UNL     1       2.428   4.652  19.107  0.00  0.00    +0.000 C 
ATOM     10  O   UNL     1       1.214   4.462  19.122  0.00  0.00    +0.000 OA
ATOM     11  H   UNL     1       4.050   5.926  19.061  0.00  0.00    +0.000 HD
BRANCH   9  12
ATOM     12  C   UNL     1       3.379   3.495  18.916  0.00  0.00    +0.000 C 
BRANCH  12  13
ATOM     13  C   UNL     1       4.806   4.035  19.015  0.00  0.00    +0.000 C 
BRANCH  13  14
ATOM     14  C   UNL     1       5.349   4.467  17.686  0.00  0.00    +0.000 A 
ATOM     15  C   UNL     1       5.928   5.732  17.536  0.00  0.00    +0.000 A 
ATOM     16  C   UNL     1       6.434   6.129  16.299  0.00  0.00    +0.000 A 
ATOM     17  C   UNL     1       6.363   5.268  15.207  0.00  0.00    +0.000 A 
ATOM     18  C   UNL     1       5.788   4.006  15.348  0.00  0.00    +0.000 A 
ATOM     19  C   UNL     1       5.282   3.606  16.583  0.00  0.00    +0.000 A 
ENDBRANCH  13  14
ENDBRANCH  12  13
ENDBRANCH   9  12
ENDBRANCH   5   8
ENDBRANCH   1   2
BRANCH   1  20
ATOM     20  C   UNL     1       0.722  11.861  20.749  0.00  0.00    +0.000 C 
BRANCH  20  22
ATOM     21  N   UNL     1      -1.412  12.997  21.032  0.00  0.00    +0.000 N 
ATOM     22  C   UNL     1      -0.416  12.265  21.656  0.00  0.00    +0.000 C 
ATOM     23  O   UNL     1      -0.399  11.947  22.838  0.00  0.00    +0.000 OA
ATOM     24  H   UNL     1      -1.311  13.197  20.043  0.00  0.00    +0.000 HD
BRANCH  21  33
ATOM     25  C   UNL     1      -6.185  16.407  24.191  0.00  0.00    +0.000 C 
ATOM     26  C   UNL     1      -6.063  14.989  23.726  0.00  0.00    +0.000 A 
ATOM     27  C   UNL     1      -7.048  14.102  23.936  0.00  0.00    +0.000 A 
ATOM     28  C   UNL     1      -6.982  12.698  23.507  0.00  0.00    +0.000 A 
ATOM     29  O   UNL     1      -7.912  11.935  23.719  0.00  0.00    +0.000 OA
ATOM     30  O   UNL     1      -5.827  12.308  22.864  0.00  0.00    +0.000 OA
ATOM     31  C   UNL     1      -4.781  13.219  22.635  0.00  0.00    +0.000 A 
ATOM     32  C   UNL     1      -3.671  12.698  21.980  0.00  0.00    +0.000 A 
ATOM     33  C   UNL     1      -2.564  13.496  21.691  0.00  0.00    +0.000 A 
ATOM     34  C   UNL     1      -2.609  14.840  22.077  0.00  0.00    +0.000 A 
ATOM     35  C   UNL     1      -3.741  15.358  22.742  0.00  0.00    +0.000 A 
ATOM     36  C   UNL     1      -4.847  14.546  23.032  0.00  0.00    +0.000 A 
ENDBRANCH  21  33
ENDBRANCH  20  22
ENDBRANCH   1  20
TORSDOF 8
ENDMDL
MODEL 9
REMARK VINA RESULT:      -8.4      4.813      8.621
REMARK  Name = 
REMARK  9 active torsions:
REMARK  status: ('A' for Active; 'I' for Inactive)
REMARK    1  A    between atoms: C_1  and  C_2
REMARK    2  A    between atoms: C_9  and  N_10
REMARK    3  A    between atoms: C_11  and  C_13
REMARK    4  A    between atoms: C_13  and  C_14
REMARK    5  A    between atoms: C_14  and  C_15
REMARK    6  A    between atoms: C_18  and  N_19
REMARK    7  A    between atoms: C_20  and  C_22
REMARK    8  A    between atoms: C_22  and  C_23
REMARK    9  A    between atoms: C_23  and  C_24
REMARK                            x       y       z     vdW  Elec       q    Type
REMARK                         _______ _______ _______ _____ _____    ______ ____
ROOT
ATOM      1  C   UNL     1       1.031  10.893  19.504  0.00  0.00    +0.000 C 
ENDROOT
BRANCH   1   2
ATOM      2  C   UNL     1       1.581   9.542  19.152  0.00  0.00    +0.000 A 
ATOM      3  C   UNL     1       1.642   8.511  20.084  0.00  0.00    +0.000 A 
ATOM      4  C   UNL     1       2.115   7.259  19.711  0.00  0.00    +0.000 A 
ATOM      5  C   UNL     1       2.506   6.999  18.395  0.00  0.00    +0.000 A 
ATOM      6  C   UNL     1       2.450   8.028  17.456  0.00  0.00    +0.000 A 
ATOM      7  C   UNL     1       1.972   9.287  17.829  0.00  0.00    +0.000 A 
BRANCH   5   8
ATOM      8  N   UNL     1       2.939   5.725  17.976  0.00  0.00    +0.000 N 
ATOM      9  C   UNL     1       4.266   5.352  17.860  0.00  0.00    +0.000 C 
ATOM     10  O   UNL     1       5.237   6.069  18.092  0.00  0.00    +0.000 OA
ATOM     11  H   UNL     1       2.233   5.002  17.913  0.00  0.00    +0.000 HD
BRANCH   9  12
ATOM     12  C   UNL     1       4.461   3.926  17.405  0.00  0.00    +0.000 C 
BRANCH  12  13
ATOM     13  C   UNL     1       3.105   3.222  17.458  0.00  0.00    +0.000 C 
BRANCH  13  14
ATOM     14  C   UNL     1       2.587   3.080  18.858  0.00  0.00    +0.000 A 
ATOM     15  C   UNL     1       3.430   2.632  19.881  0.00  0.00    +0.000 A 
ATOM     16  C   UNL     1       2.945   2.504  21.182  0.00  0.00    +0.000 A 
ATOM     17  C   UNL     1       1.618   2.820  21.467  0.00  0.00    +0.000 A 
ATOM     18  C   UNL     1       0.773   3.267  20.453  0.00  0.00    +0.000 A 
ATOM     19  C   UNL     1       1.255   3.397  19.152  0.00  0.00    +0.000 A 
ENDBRANCH  13  14
ENDBRANCH  12  13
ENDBRANCH   9  12
ENDBRANCH   5   8
ENDBRANCH   1   2
BRANCH   1  20
ATOM     20  C   UNL     1       1.048  11.266  20.994  0.00  0.00    +0.000 C 
BRANCH  20  22
ATOM     21  N   UNL     1      -1.111  12.376  21.173  0.00  0.00    +0.000 N 
ATOM     22  C   UNL     1      -0.379  11.245  21.488  0.00  0.00    +0.000 C 
ATOM     23  O   UNL     1      -0.794  10.278  22.115  0.00  0.00    +0.000 OA
ATOM     24  H   UNL     1      -0.652  13.111  20.647  0.00  0.00    +0.000 HD
BRANCH  21  33
ATOM     25  C   UNL     1      -7.035  13.207  24.106  0.00  0.00    +0.000 C 
ATOM     26  C   UNL     1      -6.585  13.167  22.679  0.00  0.00    +0.000 A 
ATOM     27  C   UNL     1      -7.460  13.301  21.670  0.00  0.00    +0.000 A 
ATOM     28  C   UNL     1      -7.078  13.265  20.252  0.00  0.00    +0.000 A 
ATOM     29  O   UNL     1      -7.917  13.399  19.374  0.00  0.00    +0.000 OA
ATOM     30  O   UNL     1      -5.738  13.073  19.983  0.00  0.00    +0.000 OA
ATOM     31  C   UNL     1      -4.804  12.928  21.023  0.00  0.00    +0.000 A 
ATOM     32  C   UNL     1      -3.488  12.738  20.618  0.00  0.00    +0.000 A 
ATOM     33  C   UNL     1      -2.462  12.581  21.550  0.00  0.00    +0.000 A 
ATOM     34  C   UNL     1      -2.800  12.626  22.907  0.00  0.00    +0.000 A 
ATOM     35  C   UNL     1      -4.140  12.819  23.307  0.00  0.00    +0.000 A 
ATOM     36  C   UNL     1      -5.164  12.971  22.362  0.00  0.00    +0.000 A 
ENDBRANCH  21  33
ENDBRANCH  20  22
ENDBRANCH   1  20
TORSDOF 8
ENDMDL
