MODEL 1
REMARK VINA RESULT:      -8.3      0.000      0.000
REMARK  Name = 
REMARK  7 active torsions:
REMARK  status: ('A' for Active; 'I' for Inactive)
REMARK    1  A    between atoms: C_1  and  C_2
REMARK    2  A    between atoms: C_2  and  N_3
REMARK    3  A    between atoms: C_2  and  C_18
REMARK    4  A    between atoms: N_3  and  C_4
REMARK    5  A    between atoms: C_7  and  C_8
REMARK    6  A    between atoms: C_11  and  C_12
REMARK    7  A    between atoms: C_12  and  O_14
REMARK                            x       y       z     vdW  Elec       q    Type
REMARK                         _______ _______ _______ _____ _____    ______ ____
ROOT
ATOM      1  C   UNL     1       0.275   9.302  19.905  0.00  0.00    +0.000 C 
ATOM      2  C   UNL     1       1.066   9.791  18.695  0.00  0.00    +0.000 C 
ATOM      3  C   UNL     1       2.044   8.677  18.372  0.00  0.00    +0.000 C 
ATOM      4  C   UNL     1       2.307   7.950  19.701  0.00  0.00    +0.000 C 
ATOM      5  C   UNL     1       1.384   8.633  20.732  0.00  0.00    +0.000 C 
ENDROOT
BRANCH   4   6
ATOM      6  C   UNL     1       2.120   6.462  19.492  0.00  0.00    +0.000 A 
ATOM      7  C   UNL     1       2.331   5.926  18.208  0.00  0.00    +0.000 A 
ATOM      8  C   UNL     1       2.065   4.583  17.945  0.00  0.00    +0.000 A 
ATOM      9  C   UNL     1       1.565   3.751  18.956  0.00  0.00    +0.000 A 
ATOM     10  C   UNL     1       1.373   4.268  20.241  0.00  0.00    +0.000 A 
ATOM     11  C   UNL     1       1.643   5.611  20.500  0.00  0.00    +0.000 A 
BRANCH   9  12
ATOM     12  C   UNL     1       1.293   2.332  18.629  0.00  0.00    +0.000 C 
ATOM     13  O   UNL     1       0.167   1.894  18.465  0.00  0.00    +0.000 OA
BRANCH  12  14
ATOM     14  O   UNL     1       2.398   1.557  18.572  0.00  0.00    +0.000 OA
ATOM     15  H   UNL     1       2.359   0.740  19.101  0.00  0.00    +0.000 HD
ENDBRANCH  12  14
ENDBRANCH   9  12
ENDBRANCH   4   6
BRANCH   1  16
ATOM     16  N   UNL     1      -0.418  10.320  20.696  0.00  0.00    +0.000 NA
ATOM     17  H   UNL     1      -1.325   9.956  20.986  0.00  0.00    +0.000 HD
BRANCH  16  19
ATOM     18  C   UNL     1       0.193  12.714  20.857  0.00  0.00    +0.000 C 
ATOM     19  C   UNL     1      -0.618  11.657  20.083  0.00  0.00    +0.000 C 
BRANCH  19  20
ATOM     20  C   UNL     1      -2.086  12.007  19.794  0.00  0.00    +0.000 A 
ATOM     21  C   UNL     1      -2.892  12.553  20.816  0.00  0.00    +0.000 A 
ATOM     22  C   UNL     1      -4.253  12.775  20.631  0.00  0.00    +0.000 A 
ATOM     23  C   UNL     1      -4.853  12.418  19.432  0.00  0.00    +0.000 A 
ATOM     24  C   UNL     1      -4.099  11.865  18.391  0.00  0.00    +0.000 A 
ATOM     25  C   UNL     1      -4.753  11.422  17.230  0.00  0.00    +0.000 A 
ATOM     26  C   UNL     1      -4.044  10.847  16.180  0.00  0.00    +0.000 A 
ATOM     27  C   UNL     1      -2.662  10.760  16.256  0.00  0.00    +0.000 A 
ATOM     28  C   UNL     1      -1.998  11.197  17.405  0.00  0.00    +0.000 A 
ATOM     29  C   UNL     1      -2.693  11.711  18.527  0.00  0.00    +0.000 A 
ENDBRANCH  19  20
ENDBRANCH  16  19
ENDBRANCH   1  16
TORSDOF 6
ENDMDL
MODEL 2
REMARK VINA RESULT:      -8.2      2.808      3.939
REMARK  Name = 
REMARK  7 active torsions:
REMARK  status: ('A' for Active; 'I' for Inactive)
REMARK    1  A    between atoms: C_1  and  C_2
REMARK    2  A    between atoms: C_2  and  N_3
REMARK    3  A    between atoms: C_2  and  C_18
REMARK    4  A    between atoms: N_3  and  C_4
REMARK    5  A    between atoms: C_7  and  C_8
REMARK    6  A    between atoms: C_11  and  C_12
REMARK    7  A    between atoms: C_12  and  O_14
REMARK                            x       y       z     vdW  Elec       q    Type
REMARK                         _______ _______ _______ _____ _____    ______ ____
ROOT
ATOM      1  C   UNL     1       2.206   7.591  19.538  0.00  0.00    +0.000 C 
ATOM      2  C   UNL     1       2.194   6.469  20.573  0.00  0.00    +0.000 C 
ATOM      3  C   UNL     1       2.686   5.235  19.839  0.00  0.00    +0.000 C 
ATOM      4  C   UNL     1       2.306   5.443  18.365  0.00  0.00    +0.000 C 
ATOM      5  C   UNL     1       1.681   6.853  18.296  0.00  0.00    +0.000 C 
ENDROOT
BRANCH   4   6
ATOM      6  C   UNL     1       3.525   5.191  17.503  0.00  0.00    +0.000 A 
ATOM      7  C   UNL     1       4.242   6.293  17.004  0.00  0.00    +0.000 A 
ATOM      8  C   UNL     1       5.304   6.110  16.118  0.00  0.00    +0.000 A 
ATOM      9  C   UNL     1       5.660   4.821  15.700  0.00  0.00    +0.000 A 
ATOM     10  C   UNL     1       4.968   3.716  16.209  0.00  0.00    +0.000 A 
ATOM     11  C   UNL     1       3.909   3.904  17.096  0.00  0.00    +0.000 A 
BRANCH   9  12
ATOM     12  C   UNL     1       6.792   4.674  14.756  0.00  0.00    +0.000 C 
ATOM     13  O   UNL     1       7.738   5.443  14.733  0.00  0.00    +0.000 OA
BRANCH  12  14
ATOM     14  O   UNL     1       6.664   3.641  13.895  0.00  0.00    +0.000 OA
ATOM     15  H   UNL     1       6.196   2.863  14.249  0.00  0.00    +0.000 HD
ENDBRANCH  12  14
ENDBRANCH   9  12
ENDBRANCH   4   6
BRANCH   1  16
ATOM     16  N   UNL     1       1.382   8.765  19.829  0.00  0.00    +0.000 NA
ATOM     17  H   UNL     1       0.568   8.475  20.370  0.00  0.00    +0.000 HD
BRANCH  16  19
ATOM     18  C   UNL     1       2.134  10.138  17.910  0.00  0.00    +0.000 C 
ATOM     19  C   UNL     1       0.920   9.588  18.684  0.00  0.00    +0.000 C 
BRANCH  19  20
ATOM     20  C   UNL     1      -0.175  10.607  19.038  0.00  0.00    +0.000 A 
ATOM     21  C   UNL     1      -0.025  11.434  20.172  0.00  0.00    +0.000 A 
ATOM     22  C   UNL     1      -1.042  12.285  20.593  0.00  0.00    +0.000 A 
ATOM     23  C   UNL     1      -2.252  12.302  19.915  0.00  0.00    +0.000 A 
ATOM     24  C   UNL     1      -2.453  11.494  18.790  0.00  0.00    +0.000 A 
ATOM     25  C   UNL     1      -3.722  11.460  18.189  0.00  0.00    +0.000 A 
ATOM     26  C   UNL     1      -3.971  10.655  17.082  0.00  0.00    +0.000 A 
ATOM     27  C   UNL     1      -2.936   9.916  16.528  0.00  0.00    +0.000 A 
ATOM     28  C   UNL     1      -1.670   9.941  17.116  0.00  0.00    +0.000 A 
ATOM     29  C   UNL     1      -1.399  10.683  18.292  0.00  0.00    +0.000 A 
ENDBRANCH  19  20
ENDBRANCH  16  19
ENDBRANCH   1  16
TORSDOF 6
ENDMDL
MODEL 3
REMARK VINA RESULT:      -8.2      3.480      8.685
REMARK  Name = 
REMARK  7 active torsions:
REMARK  status: ('A' for Active; 'I' for Inactive)
REMARK    1  A    between atoms: C_1  and  C_2
REMARK    2  A    between atoms: C_2  and  N_3
REMARK    3  A    between atoms: C_2  and  C_18
REMARK    4  A    between atoms: N_3  and  C_4
REMARK    5  A    between atoms: C_7  and  C_8
REMARK    6  A    between atoms: C_11  and  C_12
REMARK    7  A    between atoms: C_12  and  O_14
REMARK                            x       y       z     vdW  Elec       q    Type
REMARK                         _______ _______ _______ _____ _____    ______ ____
ROOT
ATOM      1  C   UNL     1       2.080   7.876  18.159  0.00  0.00    +0.000 C 
ATOM      2  C   UNL     1       2.059   7.835  19.684  0.00  0.00    +0.000 C 
ATOM      3  C   UNL     1       1.115   8.947  20.106  0.00  0.00    +0.000 C 
ATOM      4  C   UNL     1       1.173   9.996  18.984  0.00  0.00    +0.000 C 
ATOM      5  C   UNL     1       2.094   9.392  17.903  0.00  0.00    +0.000 C 
ENDROOT
BRANCH   4   6
ATOM      6  C   UNL     1      -0.240  10.345  18.565  0.00  0.00    +0.000 A 
ATOM      7  C   UNL     1      -0.925  11.355  19.266  0.00  0.00    +0.000 A 
ATOM      8  C   UNL     1      -2.263  11.632  18.987  0.00  0.00    +0.000 A 
ATOM      9  C   UNL     1      -2.949  10.894  18.014  0.00  0.00    +0.000 A 
ATOM     10  C   UNL     1      -2.271   9.904  17.295  0.00  0.00    +0.000 A 
ATOM     11  C   UNL     1      -0.932   9.632  17.576  0.00  0.00    +0.000 A 
BRANCH   9  12
ATOM     12  C   UNL     1      -4.370  11.222  17.754  0.00  0.00    +0.000 C 
ATOM     13  O   UNL     1      -5.294  10.576  18.218  0.00  0.00    +0.000 OA
BRANCH  12  14
ATOM     14  O   UNL     1      -4.552  12.272  16.924  0.00  0.00    +0.000 OA
ATOM     15  H   UNL     1      -3.798  12.885  16.860  0.00  0.00    +0.000 HD
ENDBRANCH  12  14
ENDBRANCH   9  12
ENDBRANCH   4   6
BRANCH   1  16
ATOM     16  N   UNL     1       3.214   7.230  17.498  0.00  0.00    +0.000 NA
ATOM     17  H   UNL     1       2.890   6.787  16.639  0.00  0.00    +0.000 HD
BRANCH  16  19
ATOM     18  C   UNL     1       5.505   6.456  18.032  0.00  0.00    +0.000 C 
ATOM     19  C   UNL     1       3.998   6.240  18.276  0.00  0.00    +0.000 C 
BRANCH  19  20
ATOM     20  C   UNL     1       3.493   4.794  18.151  0.00  0.00    +0.000 A 
ATOM     21  C   UNL     1       3.557   4.132  16.906  0.00  0.00    +0.000 A 
ATOM     22  C   UNL     1       3.005   2.868  16.724  0.00  0.00    +0.000 A 
ATOM     23  C   UNL     1       2.338   2.249  17.770  0.00  0.00    +0.000 A 
ATOM     24  C   UNL     1       2.240   2.867  19.022  0.00  0.00    +0.000 A 
ATOM     25  C   UNL     1       1.473   2.259  20.029  0.00  0.00    +0.000 A 
ATOM     26  C   UNL     1       1.331   2.851  21.280  0.00  0.00    +0.000 A 
ATOM     27  C   UNL     1       2.004   4.031  21.558  0.00  0.00    +0.000 A 
ATOM     28  C   UNL     1       2.771   4.646  20.566  0.00  0.00    +0.000 A 
ATOM     29  C   UNL     1       2.871   4.118  19.255  0.00  0.00    +0.000 A 
ENDBRANCH  19  20
ENDBRANCH  16  19
ENDBRANCH   1  16
TORSDOF 6
ENDMDL
MODEL 4
REMARK VINA RESULT:      -8.1      3.531      8.699
REMARK  Name = 
REMARK  7 active torsions:
REMARK  status: ('A' for Active; 'I' for Inactive)
REMARK    1  A    between atoms: C_1  and  C_2
REMARK    2  A    between atoms: C_2  and  N_3
REMARK    3  A    between atoms: C_2  and  C_18
REMARK    4  A    between atoms: N_3  and  C_4
REMARK    5  A    between atoms: C_7  and  C_8
REMARK    6  A    between atoms: C_11  and  C_12
REMARK    7  A    between atoms: C_12  and  O_14
REMARK                            x       y       z     vdW  Elec       q    Type
REMARK                         _______ _______ _______ _____ _____    ______ ____
ROOT
ATOM      1  C   UNL     1       2.046   7.866  18.211  0.00  0.00    +0.000 C 
ATOM      2  C   UNL     1       2.084   7.816  19.736  0.00  0.00    +0.000 C 
ATOM      3  C   UNL     1       1.162   8.929  20.200  0.00  0.00    +0.000 C 
ATOM      4  C   UNL     1       1.180   9.984  19.083  0.00  0.00    +0.000 C 
ATOM      5  C   UNL     1       2.056   9.383  17.964  0.00  0.00    +0.000 C 
ENDROOT
BRANCH   4   6
ATOM      6  C   UNL     1      -0.247  10.341  18.722  0.00  0.00    +0.000 A 
ATOM      7  C   UNL     1      -0.813   9.779  17.563  0.00  0.00    +0.000 A 
ATOM      8  C   UNL     1      -2.082  10.164  17.133  0.00  0.00    +0.000 A 
ATOM      9  C   UNL     1      -2.804  11.132  17.842  0.00  0.00    +0.000 A 
ATOM     10  C   UNL     1      -2.261  11.679  19.009  0.00  0.00    +0.000 A 
ATOM     11  C   UNL     1      -0.992  11.290  19.437  0.00  0.00    +0.000 A 
BRANCH   9  12
ATOM     12  C   UNL     1      -4.148  11.512  17.346  0.00  0.00    +0.000 C 
ATOM     13  O   UNL     1      -4.614  11.082  16.305  0.00  0.00    +0.000 OA
BRANCH  12  14
ATOM     14  O   UNL     1      -4.792  12.407  18.126  0.00  0.00    +0.000 OA
ATOM     15  H   UNL     1      -4.434  12.506  19.026  0.00  0.00    +0.000 HD
ENDBRANCH  12  14
ENDBRANCH   9  12
ENDBRANCH   4   6
BRANCH   1  16
ATOM     16  N   UNL     1       3.151   7.219  17.502  0.00  0.00    +0.000 NA
ATOM     17  H   UNL     1       2.791   6.774  16.659  0.00  0.00    +0.000 HD
BRANCH  16  19
ATOM     18  C   UNL     1       5.464   6.457  17.949  0.00  0.00    +0.000 C 
ATOM     19  C   UNL     1       3.969   6.231  18.248  0.00  0.00    +0.000 C 
BRANCH  19  20
ATOM     20  C   UNL     1       3.468   4.782  18.137  0.00  0.00    +0.000 A 
ATOM     21  C   UNL     1       3.510   4.118  16.893  0.00  0.00    +0.000 A 
ATOM     22  C   UNL     1       2.960   2.851  16.725  0.00  0.00    +0.000 A 
ATOM     23  C   UNL     1       2.317   2.232  17.786  0.00  0.00    +0.000 A 
ATOM     24  C   UNL     1       2.241   2.853  19.038  0.00  0.00    +0.000 A 
ATOM     25  C   UNL     1       1.497   2.245  20.062  0.00  0.00    +0.000 A 
ATOM     26  C   UNL     1       1.377   2.839  21.314  0.00  0.00    +0.000 A 
ATOM     27  C   UNL     1       2.051   4.023  21.575  0.00  0.00    +0.000 A 
ATOM     28  C   UNL     1       2.795   4.639  20.566  0.00  0.00    +0.000 A 
ATOM     29  C   UNL     1       2.871   4.108  19.255  0.00  0.00    +0.000 A 
ENDBRANCH  19  20
ENDBRANCH  16  19
ENDBRANCH   1  16
TORSDOF 6
ENDMDL
MODEL 5
REMARK VINA RESULT:      -8.0      2.691      3.693
REMARK  Name = 
REMARK  7 active torsions:
REMARK  status: ('A' for Active; 'I' for Inactive)
REMARK    1  A    between atoms: C_1  and  C_2
REMARK    2  A    between atoms: C_2  and  N_3
REMARK    3  A    between atoms: C_2  and  C_18
REMARK    4  A    between atoms: N_3  and  C_4
REMARK    5  A    between atoms: C_7  and  C_8
REMARK    6  A    between atoms: C_11  and  C_12
REMARK    7  A    between atoms: C_12  and  O_14
REMARK                            x       y       z     vdW  Elec       q    Type
REMARK                         _______ _______ _______ _____ _____    ______ ____
ROOT
ATOM      1  C   UNL     1       1.947   8.061  19.702  0.00  0.00    +0.000 C 
ATOM      2  C   UNL     1       1.649   6.834  20.560  0.00  0.00    +0.000 C 
ATOM      3  C   UNL     1       2.168   5.649  19.767  0.00  0.00    +0.000 C 
ATOM      4  C   UNL     1       2.090   6.065  18.289  0.00  0.00    +0.000 C 
ATOM      5  C   UNL     1       1.606   7.530  18.300  0.00  0.00    +0.000 C 
ENDROOT
BRANCH   4   6
ATOM      6  C   UNL     1       3.425   5.788  17.630  0.00  0.00    +0.000 A 
ATOM      7  C   UNL     1       3.927   4.474  17.640  0.00  0.00    +0.000 A 
ATOM      8  C   UNL     1       5.199   4.194  17.143  0.00  0.00    +0.000 A 
ATOM      9  C   UNL     1       6.004   5.225  16.643  0.00  0.00    +0.000 A 
ATOM     10  C   UNL     1       5.506   6.532  16.606  0.00  0.00    +0.000 A 
ATOM     11  C   UNL     1       4.233   6.807  17.102  0.00  0.00    +0.000 A 
BRANCH   9  12
ATOM     12  C   UNL     1       7.350   4.881  16.128  0.00  0.00    +0.000 C 
ATOM     13  O   UNL     1       7.753   5.241  15.035  0.00  0.00    +0.000 OA
BRANCH  12  14
ATOM     14  O   UNL     1       8.076   4.100  16.958  0.00  0.00    +0.000 OA
ATOM     15  H   UNL     1       8.941   3.819  16.611  0.00  0.00    +0.000 HD
ENDBRANCH  12  14
ENDBRANCH   9  12
ENDBRANCH   4   6
BRANCH   1  16
ATOM     16  N   UNL     1       1.181   9.272  19.997  0.00  0.00    +0.000 NA
ATOM     17  H   UNL     1       0.348   9.019  20.527  0.00  0.00    +0.000 HD
BRANCH  16  19
ATOM     18  C   UNL     1       2.005  10.866  18.290  0.00  0.00    +0.000 C 
ATOM     19  C   UNL     1       0.775  10.130  18.857  0.00  0.00    +0.000 C 
BRANCH  19  20
ATOM     20  C   UNL     1      -0.466  10.996  19.126  0.00  0.00    +0.000 A 
ATOM     21  C   UNL     1      -0.503  11.839  20.258  0.00  0.00    +0.000 A 
ATOM     22  C   UNL     1      -1.649  12.549  20.601  0.00  0.00    +0.000 A 
ATOM     23  C   UNL     1      -2.803  12.402  19.846  0.00  0.00    +0.000 A 
ATOM     24  C   UNL     1      -2.820  11.572  18.719  0.00  0.00    +0.000 A 
ATOM     25  C   UNL     1      -4.031  11.367  18.037  0.00  0.00    +0.000 A 
ATOM     26  C   UNL     1      -4.097  10.532  16.926  0.00  0.00    +0.000 A 
ATOM     27  C   UNL     1      -2.939   9.936  16.449  0.00  0.00    +0.000 A 
ATOM     28  C   UNL     1      -1.729  10.131  17.119  0.00  0.00    +0.000 A 
ATOM     29  C   UNL     1      -1.637  10.906  18.301  0.00  0.00    +0.000 A 
ENDBRANCH  19  20
ENDBRANCH  16  19
ENDBRANCH   1  16
TORSDOF 6
ENDMDL
MODEL 6
REMARK VINA RESULT:      -7.8      4.004      8.824
REMARK  Name = 
REMARK  7 active torsions:
REMARK  status: ('A' for Active; 'I' for Inactive)
REMARK    1  A    between atoms: C_1  and  C_2
REMARK    2  A    between atoms: C_2  and  N_3
REMARK    3  A    between atoms: C_2  and  C_18
REMARK    4  A    between atoms: N_3  and  C_4
REMARK    5  A    between atoms: C_7  and  C_8
REMARK    6  A    between atoms: C_11  and  C_12
REMARK    7  A    between atoms: C_12  and  O_14
REMARK                            x       y       z     vdW  Elec       q    Type
REMARK                         _______ _______ _______ _____ _____    ______ ____
ROOT
ATOM      1  C   UNL     1       1.333   9.930  18.633  0.00  0.00    +0.000 C 
ATOM      2  C   UNL     1       1.898  11.306  18.290  0.00  0.00    +0.000 C 
ATOM      3  C   UNL     1       0.850  12.301  18.754  0.00  0.00    +0.000 C 
ATOM      4  C   UNL     1      -0.494  11.560  18.684  0.00  0.00    +0.000 C 
ATOM      5  C   UNL     1      -0.147  10.117  18.261  0.00  0.00    +0.000 C 
ENDROOT
BRANCH   4   6
ATOM      6  C   UNL     1      -1.220  11.734  20.002  0.00  0.00    +0.000 A 
ATOM      7  C   UNL     1      -2.443  12.429  20.016  0.00  0.00    +0.000 A 
ATOM      8  C   UNL     1      -3.089  12.707  21.220  0.00  0.00    +0.000 A 
ATOM      9  C   UNL     1      -2.517  12.312  22.436  0.00  0.00    +0.000 A 
ATOM     10  C   UNL     1      -1.313  11.599  22.432  0.00  0.00    +0.000 A 
ATOM     11  C   UNL     1      -0.672  11.321  21.225  0.00  0.00    +0.000 A 
BRANCH   9  12
ATOM     12  C   UNL     1      -3.238  12.633  23.690  0.00  0.00    +0.000 C 
ATOM     13  O   UNL     1      -4.094  11.907  24.165  0.00  0.00    +0.000 OA
BRANCH  12  14
ATOM     14  O   UNL     1      -2.893  13.818  24.238  0.00  0.00    +0.000 OA
ATOM     15  H   UNL     1      -2.035  14.175  23.948  0.00  0.00    +0.000 HD
ENDBRANCH  12  14
ENDBRANCH   9  12
ENDBRANCH   4   6
BRANCH   1  16
ATOM     16  N   UNL     1       1.904   8.786  17.921  0.00  0.00    +0.000 NA
ATOM     17  H   UNL     1       1.409   8.663  17.038  0.00  0.00    +0.000 HD
BRANCH  16  19
ATOM     18  C   UNL     1       1.982   7.711  20.150  0.00  0.00    +0.000 C 
ATOM     19  C   UNL     1       1.948   7.482  18.626  0.00  0.00    +0.000 C 
BRANCH  19  20
ATOM     20  C   UNL     1       2.985   6.494  18.067  0.00  0.00    +0.000 A 
ATOM     21  C   UNL     1       4.128   6.980  17.398  0.00  0.00    +0.000 A 
ATOM     22  C   UNL     1       5.029   6.120  16.777  0.00  0.00    +0.000 A 
ATOM     23  C   UNL     1       4.788   4.754  16.773  0.00  0.00    +0.000 A 
ATOM     24  C   UNL     1       3.663   4.224  17.415  0.00  0.00    +0.000 A 
ATOM     25  C   UNL     1       3.396   2.850  17.305  0.00  0.00    +0.000 A 
ATOM     26  C   UNL     1       2.276   2.285  17.909  0.00  0.00    +0.000 A 
ATOM     27  C   UNL     1       1.442   3.081  18.680  0.00  0.00    +0.000 A 
ATOM     28  C   UNL     1       1.697   4.449  18.798  0.00  0.00    +0.000 A 
ATOM     29  C   UNL     1       2.778   5.075  18.129  0.00  0.00    +0.000 A 
ENDBRANCH  19  20
ENDBRANCH  16  19
ENDBRANCH   1  16
TORSDOF 6
ENDMDL
MODEL 7
REMARK VINA RESULT:      -7.8      3.091      4.545
REMARK  Name = 
REMARK  7 active torsions:
REMARK  status: ('A' for Active; 'I' for Inactive)
REMARK    1  A    between atoms: C_1  and  C_2
REMARK    2  A    between atoms: C_2  and  N_3
REMARK    3  A    between atoms: C_2  and  C_18
REMARK    4  A    between atoms: N_3  and  C_4
REMARK    5  A    between atoms: C_7  and  C_8
REMARK    6  A    between atoms: C_11  and  C_12
REMARK    7  A    between atoms: C_12  and  O_14
REMARK                            x       y       z     vdW  Elec       q    Type
REMARK                         _______ _______ _______ _____ _____    ______ ____
ROOT
ATOM      1  C   UNL     1       1.837   9.364  18.620  0.00  0.00    +0.000 C 
ATOM      2  C   UNL     1       1.382   8.804  19.965  0.00  0.00    +0.000 C 
ATOM      3  C   UNL     1       1.984   7.413  20.050  0.00  0.00    +0.000 C 
ATOM      4  C   UNL     1       2.141   6.933  18.598  0.00  0.00    +0.000 C 
ATOM      5  C   UNL     1       1.699   8.124  17.722  0.00  0.00    +0.000 C 
ENDROOT
BRANCH   4   6
ATOM      6  C   UNL     1       3.553   6.422  18.400  0.00  0.00    +0.000 A 
ATOM      7  C   UNL     1       4.230   6.745  17.210  0.00  0.00    +0.000 A 
ATOM      8  C   UNL     1       5.487   6.207  16.938  0.00  0.00    +0.000 A 
ATOM      9  C   UNL     1       6.086   5.319  17.841  0.00  0.00    +0.000 A 
ATOM     10  C   UNL     1       5.432   5.010  19.039  0.00  0.00    +0.000 A 
ATOM     11  C   UNL     1       4.176   5.553  19.308  0.00  0.00    +0.000 A 
BRANCH   9  12
ATOM     12  C   UNL     1       7.420   4.769  17.508  0.00  0.00    +0.000 C 
ATOM     13  O   UNL     1       8.226   4.429  18.357  0.00  0.00    +0.000 OA
BRANCH  12  14
ATOM     14  O   UNL     1       7.682   4.716  16.184  0.00  0.00    +0.000 OA
ATOM     15  H   UNL     1       8.206   5.459  15.835  0.00  0.00    +0.000 HD
ENDBRANCH  12  14
ENDBRANCH   9  12
ENDBRANCH   4   6
BRANCH   1  16
ATOM     16  N   UNL     1       1.068  10.484  18.078  0.00  0.00    +0.000 NA
ATOM     17  H   UNL     1       1.634  11.331  18.126  0.00  0.00    +0.000 HD
BRANCH  16  19
ATOM     18  C   UNL     1      -1.374  10.217  17.763  0.00  0.00    +0.000 C 
ATOM     19  C   UNL     1      -0.261  10.767  18.676  0.00  0.00    +0.000 C 
BRANCH  19  20
ATOM     20  C   UNL     1      -0.440  12.212  19.166  0.00  0.00    +0.000 A 
ATOM     21  C   UNL     1      -0.134  13.289  18.305  0.00  0.00    +0.000 A 
ATOM     22  C   UNL     1      -0.171  14.608  18.747  0.00  0.00    +0.000 A 
ATOM     23  C   UNL     1      -0.473  14.883  20.072  0.00  0.00    +0.000 A 
ATOM     24  C   UNL     1      -0.775  13.850  20.967  0.00  0.00    +0.000 A 
ATOM     25  C   UNL     1      -0.977  14.155  22.323  0.00  0.00    +0.000 A 
ATOM     26  C   UNL     1      -1.256  13.155  23.250  0.00  0.00    +0.000 A 
ATOM     27  C   UNL     1      -1.395  11.844  22.821  0.00  0.00    +0.000 A 
ATOM     28  C   UNL     1      -1.197  11.527  21.475  0.00  0.00    +0.000 A 
ATOM     29  C   UNL     1      -0.828  12.504  20.517  0.00  0.00    +0.000 A 
ENDBRANCH  19  20
ENDBRANCH  16  19
ENDBRANCH   1  16
TORSDOF 6
ENDMDL
MODEL 8
REMARK VINA RESULT:      -7.8      3.393      8.385
REMARK  Name = 
REMARK  7 active torsions:
REMARK  status: ('A' for Active; 'I' for Inactive)
REMARK    1  A    between atoms: C_1  and  C_2
REMARK    2  A    between atoms: C_2  and  N_3
REMARK    3  A    between atoms: C_2  and  C_18
REMARK    4  A    between atoms: N_3  and  C_4
REMARK    5  A    between atoms: C_7  and  C_8
REMARK    6  A    between atoms: C_11  and  C_12
REMARK    7  A    between atoms: C_12  and  O_14
REMARK                            x       y       z     vdW  Elec       q    Type
REMARK                         _______ _______ _______ _____ _____    ______ ____
ROOT
ATOM      1  C   UNL     1       0.953   8.433  20.792  0.00  0.00    +0.000 C 
ATOM      2  C   UNL     1       0.418   8.905  22.141  0.00  0.00    +0.000 C 
ATOM      3  C   UNL     1      -0.481  10.088  21.830  0.00  0.00    +0.000 C 
ATOM      4  C   UNL     1       0.068  10.702  20.532  0.00  0.00    +0.000 C 
ATOM      5  C   UNL     1       1.223   9.777  20.095  0.00  0.00    +0.000 C 
ENDROOT
BRANCH   4   6
ATOM      6  C   UNL     1      -1.074  10.882  19.553  0.00  0.00    +0.000 A 
ATOM      7  C   UNL     1      -1.030  10.195  18.326  0.00  0.00    +0.000 A 
ATOM      8  C   UNL     1      -2.002  10.416  17.352  0.00  0.00    +0.000 A 
ATOM      9  C   UNL     1      -3.029  11.342  17.576  0.00  0.00    +0.000 A 
ATOM     10  C   UNL     1      -3.096  12.013  18.802  0.00  0.00    +0.000 A 
ATOM     11  C   UNL     1      -2.122  11.788  19.774  0.00  0.00    +0.000 A 
BRANCH   9  12
ATOM     12  C   UNL     1      -4.038  11.547  16.511  0.00  0.00    +0.000 C 
ATOM     13  O   UNL     1      -5.224  11.706  16.744  0.00  0.00    +0.000 OA
BRANCH  12  14
ATOM     14  O   UNL     1      -3.536  11.500  15.258  0.00  0.00    +0.000 OA
ATOM     15  H   UNL     1      -2.723  12.017  15.117  0.00  0.00    +0.000 HD
ENDBRANCH  12  14
ENDBRANCH   9  12
ENDBRANCH   4   6
BRANCH   1  16
ATOM     16  N   UNL     1       2.163   7.610  20.815  0.00  0.00    +0.000 NA
ATOM     17  H   UNL     1       2.954   8.189  21.096  0.00  0.00    +0.000 HD
BRANCH  16  19
ATOM     18  C   UNL     1       2.068   7.679  18.341  0.00  0.00    +0.000 C 
ATOM     19  C   UNL     1       2.528   6.880  19.576  0.00  0.00    +0.000 C 
BRANCH  19  20
ATOM     20  C   UNL     1       2.162   5.387  19.590  0.00  0.00    +0.000 A 
ATOM     21  C   UNL     1       1.303   4.883  20.590  0.00  0.00    +0.000 A 
ATOM     22  C   UNL     1       1.040   3.522  20.708  0.00  0.00    +0.000 A 
ATOM     23  C   UNL     1       1.663   2.624  19.854  0.00  0.00    +0.000 A 
ATOM     24  C   UNL     1       2.530   3.072  18.851  0.00  0.00    +0.000 A 
ATOM     25  C   UNL     1       3.221   2.131  18.071  0.00  0.00    +0.000 A 
ATOM     26  C   UNL     1       4.110   2.533  17.079  0.00  0.00    +0.000 A 
ATOM     27  C   UNL     1       4.274   3.886  16.816  0.00  0.00    +0.000 A 
ATOM     28  C   UNL     1       3.592   4.832  17.585  0.00  0.00    +0.000 A 
ATOM     29  C   UNL     1       2.744   4.463  18.658  0.00  0.00    +0.000 A 
ENDBRANCH  19  20
ENDBRANCH  16  19
ENDBRANCH   1  16
TORSDOF 6
ENDMDL
MODEL 9
REMARK VINA RESULT:      -7.7      0.776      2.219
REMARK  Name = 
REMARK  7 active torsions:
REMARK  status: ('A' for Active; 'I' for Inactive)
REMARK    1  A    between atoms: C_1  and  C_2
REMARK    2  A    between atoms: C_2  and  N_3
REMARK    3  A    between atoms: C_2  and  C_18
REMARK    4  A    between atoms: N_3  and  C_4
REMARK    5  A    between atoms: C_7  and  C_8
REMARK    6  A    between atoms: C_11  and  C_12
REMARK    7  A    between atoms: C_12  and  O_14
REMARK                            x       y       z     vdW  Elec       q    Type
REMARK                         _______ _______ _______ _____ _____    ______ ____
ROOT
ATOM      1  C   UNL     1       0.565   9.375  18.893  0.00  0.00    +0.000 C 
ATOM      2  C   UNL     1       1.661   9.675  17.874  0.00  0.00    +0.000 C 
ATOM      3  C   UNL     1       2.603   8.487  17.929  0.00  0.00    +0.000 C 
ATOM      4  C   UNL     1       2.480   7.919  19.352  0.00  0.00    +0.000 C 
ATOM      5  C   UNL     1       1.387   8.764  20.039  0.00  0.00    +0.000 C 
ENDROOT
BRANCH   4   6
ATOM      6  C   UNL     1       2.240   6.426  19.266  0.00  0.00    +0.000 A 
ATOM      7  C   UNL     1       2.368   5.790  18.017  0.00  0.00    +0.000 A 
ATOM      8  C   UNL     1       2.050   4.441  17.870  0.00  0.00    +0.000 A 
ATOM      9  C   UNL     1       1.580   3.702  18.964  0.00  0.00    +0.000 A 
ATOM     10  C   UNL     1       1.473   4.319  20.216  0.00  0.00    +0.000 A 
ATOM     11  C   UNL     1       1.794   5.668  20.358  0.00  0.00    +0.000 A 
BRANCH   9  12
ATOM     12  C   UNL     1       1.252   2.272  18.760  0.00  0.00    +0.000 C 
ATOM     13  O   UNL     1       0.106   1.857  18.711  0.00  0.00    +0.000 OA
BRANCH  12  14
ATOM     14  O   UNL     1       2.331   1.464  18.676  0.00  0.00    +0.000 OA
ATOM     15  H   UNL     1       3.023   1.626  19.341  0.00  0.00    +0.000 HD
ENDBRANCH  12  14
ENDBRANCH   9  12
ENDBRANCH   4   6
BRANCH   1  16
ATOM     16  N   UNL     1      -0.222  10.513  19.370  0.00  0.00    +0.000 NA
ATOM     17  H   UNL     1      -1.035  10.166  19.877  0.00  0.00    +0.000 HD
BRANCH  16  19
ATOM     18  C   UNL     1      -0.244  12.923  18.804  0.00  0.00    +0.000 C 
ATOM     19  C   UNL     1      -0.677  11.509  18.369  0.00  0.00    +0.000 C 
BRANCH  19  20
ATOM     20  C   UNL     1      -2.145  11.353  17.942  0.00  0.00    +0.000 A 
ATOM     21  C   UNL     1      -2.455  10.813  16.676  0.00  0.00    +0.000 A 
ATOM     22  C   UNL     1      -3.763  10.762  16.205  0.00  0.00    +0.000 A 
ATOM     23  C   UNL     1      -4.792  11.289  16.972  0.00  0.00    +0.000 A 
ATOM     24  C   UNL     1      -4.536  11.844  18.231  0.00  0.00    +0.000 A 
ATOM     25  C   UNL     1      -5.583  12.458  18.936  0.00  0.00    +0.000 A 
ATOM     26  C   UNL     1      -5.367  13.042  20.180  0.00  0.00    +0.000 A 
ATOM     27  C   UNL     1      -4.110  12.965  20.761  0.00  0.00    +0.000 A 
ATOM     28  C   UNL     1      -3.059  12.356  20.071  0.00  0.00    +0.000 A 
ATOM     29  C   UNL     1      -3.221  11.826  18.767  0.00  0.00    +0.000 A 
ENDBRANCH  19  20
ENDBRANCH  16  19
ENDBRANCH   1  16
TORSDOF 6
ENDMDL
