MODEL 1
REMARK VINA RESULT:      -7.0      0.000      0.000
REMARK  Name = 
REMARK  4 active torsions:
REMARK  status: ('A' for Active; 'I' for Inactive)
REMARK    1  A    between atoms: C_1  and  O_2
REMARK    2  A    between atoms: O_2  and  C_3
REMARK    3  A    between atoms: C_8  and  C_9
REMARK    4  A    between atoms: C_14  and  C_15
REMARK                            x       y       z     vdW  Elec       q    Type
REMARK                         _______ _______ _______ _____ _____    ______ ____
ROOT
ATOM      1  C   UNL     1       6.398   4.659  17.923  0.00  0.00    +0.000 A 
ATOM      2  C   UNL     1       7.285   4.545  16.836  0.00  0.00    +0.000 A 
ATOM      3  C   UNL     1       6.812   4.400  15.535  0.00  0.00    +0.000 A 
ATOM      4  C   UNL     1       5.449   4.338  15.303  0.00  0.00    +0.000 A 
ATOM      5  C   UNL     1       4.563   4.383  16.384  0.00  0.00    +0.000 A 
ATOM      6  C   UNL     1       5.001   4.546  17.724  0.00  0.00    +0.000 A 
ENDROOT
BRANCH   6   7
ATOM      7  C   UNL     1       3.969   4.658  18.810  0.00  0.00    +0.000 A 
ATOM      8  C   UNL     1       3.274   5.891  18.936  0.00  0.00    +0.000 A 
ATOM      9  C   UNL     1       2.245   6.094  19.862  0.00  0.00    +0.000 A 
ATOM     10  C   UNL     1       1.892   5.076  20.731  0.00  0.00    +0.000 A 
ATOM     11  C   UNL     1       2.565   3.860  20.664  0.00  0.00    +0.000 A 
ATOM     12  C   UNL     1       3.573   3.636  19.705  0.00  0.00    +0.000 A 
BRANCH  12  13
ATOM     13  C   UNL     1       4.127   2.264  19.672  0.00  0.00    +0.000 C 
ATOM     14  O   UNL     1       5.018   1.908  20.438  0.00  0.00    +0.000 OA
ENDBRANCH  12  13
ENDBRANCH   6   7
BRANCH   1  16
ATOM     15  C   UNL     1       7.873   5.814  19.411  0.00  0.00    +0.000 C 
ATOM     16  O   UNL     1       6.833   4.864  19.208  0.00  0.00    +0.000 OA
ENDBRANCH   1  16
TORSDOF 3
ENDMDL
MODEL 2
REMARK VINA RESULT:      -6.9      1.819      4.849
REMARK  Name = 
REMARK  4 active torsions:
REMARK  status: ('A' for Active; 'I' for Inactive)
REMARK    1  A    between atoms: C_1  and  O_2
REMARK    2  A    between atoms: O_2  and  C_3
REMARK    3  A    between atoms: C_8  and  C_9
REMARK    4  A    between atoms: C_14  and  C_15
REMARK                            x       y       z     vdW  Elec       q    Type
REMARK                         _______ _______ _______ _____ _____    ______ ____
ROOT
ATOM      1  C   UNL     1       2.563   4.629  18.021  0.00  0.00    +0.000 A 
ATOM      2  C   UNL     1       1.359   4.135  18.558  0.00  0.00    +0.000 A 
ATOM      3  C   UNL     1       1.181   2.773  18.788  0.00  0.00    +0.000 A 
ATOM      4  C   UNL     1       2.190   1.884  18.461  0.00  0.00    +0.000 A 
ATOM      5  C   UNL     1       3.362   2.361  17.866  0.00  0.00    +0.000 A 
ATOM      6  C   UNL     1       3.593   3.741  17.628  0.00  0.00    +0.000 A 
ENDROOT
BRANCH   6   7
ATOM      7  C   UNL     1       4.914   4.161  17.051  0.00  0.00    +0.000 A 
ATOM      8  C   UNL     1       5.086   4.048  15.645  0.00  0.00    +0.000 A 
ATOM      9  C   UNL     1       6.245   4.471  14.984  0.00  0.00    +0.000 A 
ATOM     10  C   UNL     1       7.300   4.994  15.712  0.00  0.00    +0.000 A 
ATOM     11  C   UNL     1       7.187   5.097  17.094  0.00  0.00    +0.000 A 
ATOM     12  C   UNL     1       6.007   4.712  17.761  0.00  0.00    +0.000 A 
BRANCH  12  13
ATOM     13  C   UNL     1       5.982   4.979  19.216  0.00  0.00    +0.000 C 
ATOM     14  O   UNL     1       6.981   5.357  19.822  0.00  0.00    +0.000 OA
ENDBRANCH  12  13
ENDBRANCH   6   7
BRANCH   1  16
ATOM     15  C   UNL     1       2.550   6.838  18.942  0.00  0.00    +0.000 C 
ATOM     16  O   UNL     1       2.790   5.971  17.839  0.00  0.00    +0.000 OA
ENDBRANCH   1  16
TORSDOF 3
ENDMDL
MODEL 3
REMARK VINA RESULT:      -6.7      1.747      2.600
REMARK  Name = 
REMARK  4 active torsions:
REMARK  status: ('A' for Active; 'I' for Inactive)
REMARK    1  A    between atoms: C_1  and  O_2
REMARK    2  A    between atoms: O_2  and  C_3
REMARK    3  A    between atoms: C_8  and  C_9
REMARK    4  A    between atoms: C_14  and  C_15
REMARK                            x       y       z     vdW  Elec       q    Type
REMARK                         _______ _______ _______ _____ _____    ______ ____
ROOT
ATOM      1  C   UNL     1       6.130   4.397  17.426  0.00  0.00    +0.000 A 
ATOM      2  C   UNL     1       7.259   4.692  16.641  0.00  0.00    +0.000 A 
ATOM      3  C   UNL     1       7.169   4.773  15.254  0.00  0.00    +0.000 A 
ATOM      4  C   UNL     1       5.956   4.535  14.630  0.00  0.00    +0.000 A 
ATOM      5  C   UNL     1       4.845   4.176  15.399  0.00  0.00    +0.000 A 
ATOM      6  C   UNL     1       4.888   4.096  16.815  0.00  0.00    +0.000 A 
ENDROOT
BRANCH   6   7
ATOM      7  C   UNL     1       3.623   3.775  17.557  0.00  0.00    +0.000 A 
ATOM      8  C   UNL     1       3.324   2.405  17.788  0.00  0.00    +0.000 A 
ATOM      9  C   UNL     1       2.212   1.982  18.526  0.00  0.00    +0.000 A 
ATOM     10  C   UNL     1       1.329   2.919  19.035  0.00  0.00    +0.000 A 
ATOM     11  C   UNL     1       1.566   4.270  18.809  0.00  0.00    +0.000 A 
ATOM     12  C   UNL     1       2.706   4.704  18.103  0.00  0.00    +0.000 A 
BRANCH  12  13
ATOM     13  C   UNL     1       2.892   6.170  18.032  0.00  0.00    +0.000 C 
ATOM     14  O   UNL     1       2.833   6.879  19.034  0.00  0.00    +0.000 OA
ENDBRANCH  12  13
ENDBRANCH   6   7
BRANCH   1  16
ATOM     15  C   UNL     1       6.866   5.425  19.458  0.00  0.00    +0.000 C 
ATOM     16  O   UNL     1       6.175   4.370  18.798  0.00  0.00    +0.000 OA
ENDBRANCH   1  16
TORSDOF 3
ENDMDL
MODEL 4
REMARK VINA RESULT:      -6.7      2.469      4.892
REMARK  Name = 
REMARK  4 active torsions:
REMARK  status: ('A' for Active; 'I' for Inactive)
REMARK    1  A    between atoms: C_1  and  O_2
REMARK    2  A    between atoms: O_2  and  C_3
REMARK    3  A    between atoms: C_8  and  C_9
REMARK    4  A    between atoms: C_14  and  C_15
REMARK                            x       y       z     vdW  Elec       q    Type
REMARK                         _______ _______ _______ _____ _____    ______ ____
ROOT
ATOM      1  C   UNL     1       2.844   5.319  18.543  0.00  0.00    +0.000 A 
ATOM      2  C   UNL     1       1.663   4.559  18.446  0.00  0.00    +0.000 A 
ATOM      3  C   UNL     1       1.692   3.237  18.011  0.00  0.00    +0.000 A 
ATOM      4  C   UNL     1       2.896   2.664  17.640  0.00  0.00    +0.000 A 
ATOM      5  C   UNL     1       4.064   3.433  17.669  0.00  0.00    +0.000 A 
ATOM      6  C   UNL     1       4.082   4.778  18.121  0.00  0.00    +0.000 A 
ENDROOT
BRANCH   6   7
ATOM      7  C   UNL     1       5.398   5.498  18.185  0.00  0.00    +0.000 A 
ATOM      8  C   UNL     1       6.238   5.238  19.302  0.00  0.00    +0.000 A 
ATOM      9  C   UNL     1       7.515   5.795  19.440  0.00  0.00    +0.000 A 
ATOM     10  C   UNL     1       7.991   6.669  18.477  0.00  0.00    +0.000 A 
ATOM     11  C   UNL     1       7.192   6.975  17.381  0.00  0.00    +0.000 A 
ATOM     12  C   UNL     1       5.923   6.385  17.216  0.00  0.00    +0.000 A 
BRANCH  12  13
ATOM     13  C   UNL     1       5.229   6.713  15.951  0.00  0.00    +0.000 C 
ATOM     14  O   UNL     1       5.410   6.063  14.925  0.00  0.00    +0.000 OA
ENDBRANCH  12  13
ENDBRANCH   6   7
BRANCH   1  16
ATOM     15  C   UNL     1       2.397   7.639  18.162  0.00  0.00    +0.000 C 
ATOM     16  O   UNL     1       2.854   6.604  19.026  0.00  0.00    +0.000 OA
ENDBRANCH   1  16
TORSDOF 3
ENDMDL
MODEL 5
REMARK VINA RESULT:      -6.7      1.424      2.354
REMARK  Name = 
REMARK  4 active torsions:
REMARK  status: ('A' for Active; 'I' for Inactive)
REMARK    1  A    between atoms: C_1  and  O_2
REMARK    2  A    between atoms: O_2  and  C_3
REMARK    3  A    between atoms: C_8  and  C_9
REMARK    4  A    between atoms: C_14  and  C_15
REMARK                            x       y       z     vdW  Elec       q    Type
REMARK                         _______ _______ _______ _____ _____    ______ ____
ROOT
ATOM      1  C   UNL     1       6.166   4.690  18.314  0.00  0.00    +0.000 A 
ATOM      2  C   UNL     1       7.047   4.763  17.219  0.00  0.00    +0.000 A 
ATOM      3  C   UNL     1       6.616   4.461  15.930  0.00  0.00    +0.000 A 
ATOM      4  C   UNL     1       5.310   4.055  15.719  0.00  0.00    +0.000 A 
ATOM      5  C   UNL     1       4.448   3.916  16.812  0.00  0.00    +0.000 A 
ATOM      6  C   UNL     1       4.839   4.228  18.140  0.00  0.00    +0.000 A 
ENDROOT
BRANCH   6   7
ATOM      7  C   UNL     1       3.819   4.116  19.236  0.00  0.00    +0.000 A 
ATOM      8  C   UNL     1       3.738   2.883  19.938  0.00  0.00    +0.000 A 
ATOM      9  C   UNL     1       2.877   2.679  21.022  0.00  0.00    +0.000 A 
ATOM     10  C   UNL     1       2.030   3.697  21.428  0.00  0.00    +0.000 A 
ATOM     11  C   UNL     1       2.055   4.912  20.752  0.00  0.00    +0.000 A 
ATOM     12  C   UNL     1       2.950   5.137  19.687  0.00  0.00    +0.000 A 
BRANCH  12  13
ATOM     13  C   UNL     1       2.947   6.509  19.131  0.00  0.00    +0.000 C 
ATOM     14  O   UNL     1       2.358   6.784  18.089  0.00  0.00    +0.000 OA
ENDBRANCH  12  13
ENDBRANCH   6   7
BRANCH   1  16
ATOM     15  C   UNL     1       7.804   5.684  19.748  0.00  0.00    +0.000 C 
ATOM     16  O   UNL     1       6.545   5.040  19.586  0.00  0.00    +0.000 OA
ENDBRANCH   1  16
TORSDOF 3
ENDMDL
MODEL 6
REMARK VINA RESULT:      -6.7      0.713      4.921
REMARK  Name = 
REMARK  4 active torsions:
REMARK  status: ('A' for Active; 'I' for Inactive)
REMARK    1  A    between atoms: C_1  and  O_2
REMARK    2  A    between atoms: O_2  and  C_3
REMARK    3  A    between atoms: C_8  and  C_9
REMARK    4  A    between atoms: C_14  and  C_15
REMARK                            x       y       z     vdW  Elec       q    Type
REMARK                         _______ _______ _______ _____ _____    ______ ____
ROOT
ATOM      1  C   UNL     1       3.518   3.947  19.477  0.00  0.00    +0.000 A 
ATOM      2  C   UNL     1       2.502   4.212  20.415  0.00  0.00    +0.000 A 
ATOM      3  C   UNL     1       1.909   5.469  20.496  0.00  0.00    +0.000 A 
ATOM      4  C   UNL     1       2.340   6.486  19.662  0.00  0.00    +0.000 A 
ATOM      5  C   UNL     1       3.394   6.250  18.775  0.00  0.00    +0.000 A 
ATOM      6  C   UNL     1       4.017   4.981  18.648  0.00  0.00    +0.000 A 
ENDROOT
BRANCH   6   7
ATOM      7  C   UNL     1       5.092   4.806  17.614  0.00  0.00    +0.000 A 
ATOM      8  C   UNL     1       4.707   4.307  16.340  0.00  0.00    +0.000 A 
ATOM      9  C   UNL     1       5.603   4.166  15.275  0.00  0.00    +0.000 A 
ATOM     10  C   UNL     1       6.939   4.485  15.454  0.00  0.00    +0.000 A 
ATOM     11  C   UNL     1       7.367   4.950  16.693  0.00  0.00    +0.000 A 
ATOM     12  C   UNL     1       6.460   5.135  17.756  0.00  0.00    +0.000 A 
BRANCH  12  13
ATOM     13  C   UNL     1       7.030   5.739  18.981  0.00  0.00    +0.000 C 
ATOM     14  O   UNL     1       7.220   5.080  20.000  0.00  0.00    +0.000 OA
ENDBRANCH  12  13
ENDBRANCH   6   7
BRANCH   1  16
ATOM     15  C   UNL     1       3.307   1.701  18.679  0.00  0.00    +0.000 C 
ATOM     16  O   UNL     1       4.079   2.703  19.333  0.00  0.00    +0.000 OA
ENDBRANCH   1  16
TORSDOF 3
ENDMDL
MODEL 7
REMARK VINA RESULT:      -6.7      1.721      2.683
REMARK  Name = 
REMARK  4 active torsions:
REMARK  status: ('A' for Active; 'I' for Inactive)
REMARK    1  A    between atoms: C_1  and  O_2
REMARK    2  A    between atoms: O_2  and  C_3
REMARK    3  A    between atoms: C_8  and  C_9
REMARK    4  A    between atoms: C_14  and  C_15
REMARK                            x       y       z     vdW  Elec       q    Type
REMARK                         _______ _______ _______ _____ _____    ______ ____
ROOT
ATOM      1  C   UNL     1       5.989   4.350  17.094  0.00  0.00    +0.000 A 
ATOM      2  C   UNL     1       7.270   4.933  17.062  0.00  0.00    +0.000 A 
ATOM      3  C   UNL     1       7.792   5.580  18.179  0.00  0.00    +0.000 A 
ATOM      4  C   UNL     1       7.033   5.678  19.333  0.00  0.00    +0.000 A 
ATOM      5  C   UNL     1       5.735   5.160  19.349  0.00  0.00    +0.000 A 
ATOM      6  C   UNL     1       5.169   4.479  18.240  0.00  0.00    +0.000 A 
ENDROOT
BRANCH   6   7
ATOM      7  C   UNL     1       3.794   3.893  18.380  0.00  0.00    +0.000 A 
ATOM      8  C   UNL     1       2.705   4.625  17.832  0.00  0.00    +0.000 A 
ATOM      9  C   UNL     1       1.389   4.151  17.839  0.00  0.00    +0.000 A 
ATOM     10  C   UNL     1       1.100   2.933  18.431  0.00  0.00    +0.000 A 
ATOM     11  C   UNL     1       2.128   2.195  19.006  0.00  0.00    +0.000 A 
ATOM     12  C   UNL     1       3.463   2.648  18.964  0.00  0.00    +0.000 A 
BRANCH  12  13
ATOM     13  C   UNL     1       4.469   1.713  19.514  0.00  0.00    +0.000 C 
ATOM     14  O   UNL     1       4.986   1.892  20.614  0.00  0.00    +0.000 OA
ENDBRANCH  12  13
ENDBRANCH   6   7
BRANCH   1  16
ATOM     15  C   UNL     1       6.044   3.887  14.746  0.00  0.00    +0.000 C 
ATOM     16  O   UNL     1       5.473   3.654  16.029  0.00  0.00    +0.000 OA
ENDBRANCH   1  16
TORSDOF 3
ENDMDL
MODEL 8
REMARK VINA RESULT:      -6.6      2.311      3.568
REMARK  Name = 
REMARK  4 active torsions:
REMARK  status: ('A' for Active; 'I' for Inactive)
REMARK    1  A    between atoms: C_1  and  O_2
REMARK    2  A    between atoms: O_2  and  C_3
REMARK    3  A    between atoms: C_8  and  C_9
REMARK    4  A    between atoms: C_14  and  C_15
REMARK                            x       y       z     vdW  Elec       q    Type
REMARK                         _______ _______ _______ _____ _____    ______ ____
ROOT
ATOM      1  C   UNL     1       5.885   5.710  16.891  0.00  0.00    +0.000 A 
ATOM      2  C   UNL     1       7.121   6.373  17.013  0.00  0.00    +0.000 A 
ATOM      3  C   UNL     1       7.809   6.391  18.223  0.00  0.00    +0.000 A 
ATOM      4  C   UNL     1       7.261   5.773  19.334  0.00  0.00    +0.000 A 
ATOM      5  C   UNL     1       6.004   5.171  19.237  0.00  0.00    +0.000 A 
ATOM      6  C   UNL     1       5.274   5.114  18.020  0.00  0.00    +0.000 A 
ENDROOT
BRANCH   6   7
ATOM      7  C   UNL     1       3.965   4.380  17.999  0.00  0.00    +0.000 A 
ATOM      8  C   UNL     1       4.004   2.964  17.879  0.00  0.00    +0.000 A 
ATOM      9  C   UNL     1       2.856   2.165  17.917  0.00  0.00    +0.000 A 
ATOM     10  C   UNL     1       1.610   2.757  18.039  0.00  0.00    +0.000 A 
ATOM     11  C   UNL     1       1.521   4.142  18.130  0.00  0.00    +0.000 A 
ATOM     12  C   UNL     1       2.676   4.949  18.136  0.00  0.00    +0.000 A 
BRANCH  12  13
ATOM     13  C   UNL     1       2.443   6.394  18.351  0.00  0.00    +0.000 C 
ATOM     14  O   UNL     1       2.585   6.916  19.453  0.00  0.00    +0.000 OA
ENDBRANCH  12  13
ENDBRANCH   6   7
BRANCH   1  16
ATOM     15  C   UNL     1       5.746   4.760  14.699  0.00  0.00    +0.000 C 
ATOM     16  O   UNL     1       5.213   5.623  15.697  0.00  0.00    +0.000 OA
ENDBRANCH   1  16
TORSDOF 3
ENDMDL
MODEL 9
REMARK VINA RESULT:      -6.6      1.386      4.977
REMARK  Name = 
REMARK  4 active torsions:
REMARK  status: ('A' for Active; 'I' for Inactive)
REMARK    1  A    between atoms: C_1  and  O_2
REMARK    2  A    between atoms: O_2  and  C_3
REMARK    3  A    between atoms: C_8  and  C_9
REMARK    4  A    between atoms: C_14  and  C_15
REMARK                            x       y       z     vdW  Elec       q    Type
REMARK                         _______ _______ _______ _____ _____    ______ ____
ROOT
ATOM      1  C   UNL     1       2.760   5.069  19.260  0.00  0.00    +0.000 A 
ATOM      2  C   UNL     1       1.762   4.858  20.229  0.00  0.00    +0.000 A 
ATOM      3  C   UNL     1       1.782   3.732  21.048  0.00  0.00    +0.000 A 
ATOM      4  C   UNL     1       2.783   2.789  20.893  0.00  0.00    +0.000 A 
ATOM      5  C   UNL     1       3.740   2.959  19.888  0.00  0.00    +0.000 A 
ATOM      6  C   UNL     1       3.767   4.097  19.042  0.00  0.00    +0.000 A 
ENDROOT
BRANCH   6   7
ATOM      7  C   UNL     1       4.879   4.225  18.041  0.00  0.00    +0.000 A 
ATOM      8  C   UNL     1       4.653   3.712  16.735  0.00  0.00    +0.000 A 
ATOM      9  C   UNL     1       5.585   3.832  15.698  0.00  0.00    +0.000 A 
ATOM     10  C   UNL     1       6.804   4.443  15.938  0.00  0.00    +0.000 A 
ATOM     11  C   UNL     1       7.081   4.934  17.209  0.00  0.00    +0.000 A 
ATOM     12  C   UNL     1       6.130   4.854  18.245  0.00  0.00    +0.000 A 
BRANCH  12  13
ATOM     13  C   UNL     1       6.512   5.515  19.513  0.00  0.00    +0.000 C 
ATOM     14  O   UNL     1       7.614   5.340  20.027  0.00  0.00    +0.000 OA
ENDBRANCH  12  13
ENDBRANCH   6   7
BRANCH   1  16
ATOM     15  C   UNL     1       2.437   7.434  19.086  0.00  0.00    +0.000 C 
ATOM     16  O   UNL     1       2.801   6.198  18.480  0.00  0.00    +0.000 OA
ENDBRANCH   1  16
TORSDOF 3
ENDMDL
