MODEL 1
REMARK VINA RESULT:      -7.4      0.000      0.000
REMARK  Name = 
REMARK  13 active torsions:
REMARK  status: ('A' for Active; 'I' for Inactive)
REMARK    1  A    between atoms: C_1  and  C_2
REMARK    2  A    between atoms: C_6  and  C_7
REMARK    3  A    between atoms: C_7  and  N_9
REMARK    4  A    between atoms: N_9  and  C_10
REMARK    5  A    between atoms: C_15  and  C_16
REMARK    6  A    between atoms: C_16  and  O_18
REMARK    7  A    between atoms: O_18  and  C_19
REMARK    8  A    between atoms: C_19  and  C_20
REMARK    9  A    between atoms: C_19  and  C_23
REMARK   10  A    between atoms: C_20  and  C_21
REMARK   11  A    between atoms: C_20  and  C_22
REMARK   12  A    between atoms: C_23  and  C_24
REMARK   13  A    between atoms: C_23  and  C_25
REMARK                            x       y       z     vdW  Elec       q    Type
REMARK                         _______ _______ _______ _____ _____    ______ ____
ROOT
ATOM      1  C   UNL     1       2.077   6.411  20.305  0.00  0.00    +0.000 A 
ATOM      2  C   UNL     1       0.995   5.552  20.485  0.00  0.00    +0.000 A 
ATOM      3  C   UNL     1       1.122   4.190  20.232  0.00  0.00    +0.000 A 
ATOM      4  C   UNL     1       2.324   3.658  19.759  0.00  0.00    +0.000 A 
ATOM      5 CL   UNL     1       2.248   1.996  19.338  0.00  0.00    +0.000 Cl
ATOM      6  C   UNL     1       3.436   4.487  19.570  0.00  0.00    +0.000 A 
ATOM      7  C   UNL     1       3.305   5.875  19.870  0.00  0.00    +0.000 A 
ENDROOT
BRANCH   1   8
ATOM      8  N   UNL     1       1.959   7.790  20.628  0.00  0.00    +0.000 N 
ATOM      9  H   UNL     1       2.195   8.050  21.580  0.00  0.00    +0.000 HD
BRANCH   8  10
ATOM     10  C   UNL     1       1.450   8.810  19.815  0.00  0.00    +0.000 C 
ATOM     11  S   UNL     1       1.733   8.917  18.157  0.00  0.00    +0.000 S 
BRANCH  10  17
ATOM     12  C   UNL     1      -0.522   8.762  22.445  0.00  0.00    +0.000 C 
ATOM     13  C   UNL     1      -0.118   9.927  21.591  0.00  0.00    +0.000 A 
ATOM     14  C   UNL     1      -0.592  11.248  21.887  0.00  0.00    +0.000 A 
ATOM     15  C   UNL     1      -0.096  12.200  21.009  0.00  0.00    +0.000 A 
ATOM     16  S   UNL     1       0.959  11.517  19.867  0.00  0.00    +0.000 S 
ATOM     17  C   UNL     1       0.743   9.915  20.483  0.00  0.00    +0.000 A 
ENDBRANCH  10  17
ENDBRANCH   8  10
ENDBRANCH   1   8
BRANCH   6  18
ATOM     18  C   UNL     1       4.681   4.026  18.880  0.00  0.00    +0.000 C 
ATOM     19  O   UNL     1       5.374   3.161  19.397  0.00  0.00    +0.000 OA
BRANCH  18  20
ATOM     20  O   UNL     1       4.933   4.656  17.697  0.00  0.00    +0.000 OA
BRANCH  20  21
ATOM     21  C   UNL     1       6.322   4.979  17.280  0.00  0.00    +0.000 C 
BRANCH  21  22
ATOM     22  C   UNL     1       6.415   5.309  15.751  0.00  0.00    +0.000 C 
ATOM     23  C   UNL     1       6.652   4.074  14.881  0.00  0.00    +0.000 C 
ATOM     24  C   UNL     1       5.272   6.167  15.194  0.00  0.00    +0.000 C 
ENDBRANCH  21  22
BRANCH  21  25
ATOM     25  C   UNL     1       6.839   6.117  18.248  0.00  0.00    +0.000 C 
ATOM     26  C   UNL     1       7.829   5.602  19.299  0.00  0.00    +0.000 C 
ATOM     27  C   UNL     1       7.520   7.318  17.583  0.00  0.00    +0.000 C 
ENDBRANCH  21  25
ENDBRANCH  20  21
ENDBRANCH  18  20
ENDBRANCH   6  18
TORSDOF 8
ENDMDL
MODEL 2
REMARK VINA RESULT:      -7.3      0.713      1.061
REMARK  Name = 
REMARK  13 active torsions:
REMARK  status: ('A' for Active; 'I' for Inactive)
REMARK    1  A    between atoms: C_1  and  C_2
REMARK    2  A    between atoms: C_6  and  C_7
REMARK    3  A    between atoms: C_7  and  N_9
REMARK    4  A    between atoms: N_9  and  C_10
REMARK    5  A    between atoms: C_15  and  C_16
REMARK    6  A    between atoms: C_16  and  O_18
REMARK    7  A    between atoms: O_18  and  C_19
REMARK    8  A    between atoms: C_19  and  C_20
REMARK    9  A    between atoms: C_19  and  C_23
REMARK   10  A    between atoms: C_20  and  C_21
REMARK   11  A    between atoms: C_20  and  C_22
REMARK   12  A    between atoms: C_23  and  C_24
REMARK   13  A    between atoms: C_23  and  C_25
REMARK                            x       y       z     vdW  Elec       q    Type
REMARK                         _______ _______ _______ _____ _____    ______ ____
ROOT
ATOM      1  C   UNL     1       2.182   6.267  20.044  0.00  0.00    +0.000 A 
ATOM      2  C   UNL     1       1.259   5.427  20.664  0.00  0.00    +0.000 A 
ATOM      3  C   UNL     1       1.318   4.049  20.481  0.00  0.00    +0.000 A 
ATOM      4  C   UNL     1       2.282   3.480  19.645  0.00  0.00    +0.000 A 
ATOM      5 CL   UNL     1       2.099   1.790  19.401  0.00  0.00    +0.000 Cl
ATOM      6  C   UNL     1       3.230   4.288  19.009  0.00  0.00    +0.000 A 
ATOM      7  C   UNL     1       3.182   5.695  19.234  0.00  0.00    +0.000 A 
ENDROOT
BRANCH   1   8
ATOM      8  N   UNL     1       2.154   7.667  20.288  0.00  0.00    +0.000 N 
ATOM      9  H   UNL     1       2.460   7.968  21.208  0.00  0.00    +0.000 HD
BRANCH   8  10
ATOM     10  C   UNL     1       1.651   8.664  19.445  0.00  0.00    +0.000 C 
ATOM     11  S   UNL     1       2.050   8.801  17.813  0.00  0.00    +0.000 S 
BRANCH  10  17
ATOM     12  C   UNL     1      -0.430   8.503  21.985  0.00  0.00    +0.000 C 
ATOM     13  C   UNL     1      -0.074   9.684  21.132  0.00  0.00    +0.000 A 
ATOM     14  C   UNL     1      -0.655  10.970  21.386  0.00  0.00    +0.000 A 
ATOM     15  C   UNL     1      -0.191  11.945  20.516  0.00  0.00    +0.000 A 
ATOM     16  S   UNL     1       0.962  11.328  19.433  0.00  0.00    +0.000 S 
ATOM     17  C   UNL     1       0.836   9.722  20.063  0.00  0.00    +0.000 A 
ENDBRANCH  10  17
ENDBRANCH   8  10
ENDBRANCH   1   8
BRANCH   6  18
ATOM     18  C   UNL     1       4.153   3.771  17.950  0.00  0.00    +0.000 C 
ATOM     19  O   UNL     1       3.692   3.186  16.980  0.00  0.00    +0.000 OA
BRANCH  18  20
ATOM     20  O   UNL     1       5.474   4.005  18.194  0.00  0.00    +0.000 OA
BRANCH  20  21
ATOM     21  C   UNL     1       6.274   4.889  17.307  0.00  0.00    +0.000 C 
BRANCH  21  22
ATOM     22  C   UNL     1       5.498   5.266  15.999  0.00  0.00    +0.000 C 
ATOM     23  C   UNL     1       4.940   6.689  16.018  0.00  0.00    +0.000 C 
ATOM     24  C   UNL     1       6.242   4.981  14.688  0.00  0.00    +0.000 C 
ENDBRANCH  21  22
BRANCH  21  25
ATOM     25  C   UNL     1       6.747   6.115  18.186  0.00  0.00    +0.000 C 
ATOM     26  C   UNL     1       7.445   5.686  19.482  0.00  0.00    +0.000 C 
ATOM     27  C   UNL     1       7.695   7.112  17.510  0.00  0.00    +0.000 C 
ENDBRANCH  21  25
ENDBRANCH  20  21
ENDBRANCH  18  20
ENDBRANCH   6  18
TORSDOF 8
ENDMDL
MODEL 3
REMARK VINA RESULT:      -7.2      1.047      2.370
REMARK  Name = 
REMARK  13 active torsions:
REMARK  status: ('A' for Active; 'I' for Inactive)
REMARK    1  A    between atoms: C_1  and  C_2
REMARK    2  A    between atoms: C_6  and  C_7
REMARK    3  A    between atoms: C_7  and  N_9
REMARK    4  A    between atoms: N_9  and  C_10
REMARK    5  A    between atoms: C_15  and  C_16
REMARK    6  A    between atoms: C_16  and  O_18
REMARK    7  A    between atoms: O_18  and  C_19
REMARK    8  A    between atoms: C_19  and  C_20
REMARK    9  A    between atoms: C_19  and  C_23
REMARK   10  A    between atoms: C_20  and  C_21
REMARK   11  A    between atoms: C_20  and  C_22
REMARK   12  A    between atoms: C_23  and  C_24
REMARK   13  A    between atoms: C_23  and  C_25
REMARK                            x       y       z     vdW  Elec       q    Type
REMARK                         _______ _______ _______ _____ _____    ______ ____
ROOT
ATOM      1  C   UNL     1       2.204   6.304  20.179  0.00  0.00    +0.000 A 
ATOM      2  C   UNL     1       1.174   5.471  20.611  0.00  0.00    +0.000 A 
ATOM      3  C   UNL     1       1.202   4.108  20.334  0.00  0.00    +0.000 A 
ATOM      4  C   UNL     1       2.243   3.550  19.589  0.00  0.00    +0.000 A 
ATOM      5 CL   UNL     1       2.026   1.893  19.196  0.00  0.00    +0.000 Cl
ATOM      6  C   UNL     1       3.299   4.352  19.141  0.00  0.00    +0.000 A 
ATOM      7  C   UNL     1       3.279   5.741  19.464  0.00  0.00    +0.000 A 
ENDROOT
BRANCH   1   8
ATOM      8  N   UNL     1       2.201   7.684  20.522  0.00  0.00    +0.000 N 
ATOM      9  H   UNL     1       2.762   7.947  21.326  0.00  0.00    +0.000 HD
BRANCH   8  10
ATOM     10  C   UNL     1       1.429   8.698  19.946  0.00  0.00    +0.000 C 
ATOM     11  S   UNL     1       1.436   9.062  18.300  0.00  0.00    +0.000 S 
BRANCH  10  17
ATOM     12  C   UNL     1       1.245  11.980  20.041  0.00  0.00    +0.000 C 
ATOM     13  C   UNL     1       0.590  10.973  20.939  0.00  0.00    +0.000 A 
ATOM     14  C   UNL     1      -0.266  11.396  22.009  0.00  0.00    +0.000 A 
ATOM     15  C   UNL     1      -0.801  10.330  22.716  0.00  0.00    +0.000 A 
ATOM     16  S   UNL     1      -0.311   8.837  22.072  0.00  0.00    +0.000 S 
ATOM     17  C   UNL     1       0.676   9.574  20.859  0.00  0.00    +0.000 A 
ENDBRANCH  10  17
ENDBRANCH   8  10
ENDBRANCH   1   8
BRANCH   6  18
ATOM     18  C   UNL     1       4.331   3.864  18.174  0.00  0.00    +0.000 C 
ATOM     19  O   UNL     1       4.027   3.029  17.335  0.00  0.00    +0.000 OA
BRANCH  18  20
ATOM     20  O   UNL     1       5.566   4.418  18.344  0.00  0.00    +0.000 OA
BRANCH  20  21
ATOM     21  C   UNL     1       5.967   5.643  17.606  0.00  0.00    +0.000 C 
BRANCH  21  22
ATOM     22  C   UNL     1       7.421   6.099  17.969  0.00  0.00    +0.000 C 
ATOM     23  C   UNL     1       7.670   7.584  17.705  0.00  0.00    +0.000 C 
ATOM     24  C   UNL     1       7.906   5.696  19.367  0.00  0.00    +0.000 C 
ENDBRANCH  21  22
BRANCH  21  25
ATOM     25  C   UNL     1       5.713   5.358  16.071  0.00  0.00    +0.000 C 
ATOM     26  C   UNL     1       5.137   6.567  15.326  0.00  0.00    +0.000 C 
ATOM     27  C   UNL     1       6.927   4.902  15.254  0.00  0.00    +0.000 C 
ENDBRANCH  21  25
ENDBRANCH  20  21
ENDBRANCH  18  20
ENDBRANCH   6  18
TORSDOF 8
ENDMDL
MODEL 4
REMARK VINA RESULT:      -7.2      1.265      1.815
REMARK  Name = 
REMARK  13 active torsions:
REMARK  status: ('A' for Active; 'I' for Inactive)
REMARK    1  A    between atoms: C_1  and  C_2
REMARK    2  A    between atoms: C_6  and  C_7
REMARK    3  A    between atoms: C_7  and  N_9
REMARK    4  A    between atoms: N_9  and  C_10
REMARK    5  A    between atoms: C_15  and  C_16
REMARK    6  A    between atoms: C_16  and  O_18
REMARK    7  A    between atoms: O_18  and  C_19
REMARK    8  A    between atoms: C_19  and  C_20
REMARK    9  A    between atoms: C_19  and  C_23
REMARK   10  A    between atoms: C_20  and  C_21
REMARK   11  A    between atoms: C_20  and  C_22
REMARK   12  A    between atoms: C_23  and  C_24
REMARK   13  A    between atoms: C_23  and  C_25
REMARK                            x       y       z     vdW  Elec       q    Type
REMARK                         _______ _______ _______ _____ _____    ______ ____
ROOT
ATOM      1  C   UNL     1       2.322   5.763  19.981  0.00  0.00    +0.000 A 
ATOM      2  C   UNL     1       1.435   4.690  19.921  0.00  0.00    +0.000 A 
ATOM      3  C   UNL     1       1.852   3.452  19.442  0.00  0.00    +0.000 A 
ATOM      4  C   UNL     1       3.156   3.266  18.978  0.00  0.00    +0.000 A 
ATOM      5 CL   UNL     1       3.443   1.732  18.265  0.00  0.00    +0.000 Cl
ATOM      6  C   UNL     1       4.079   4.318  19.027  0.00  0.00    +0.000 A 
ATOM      7  C   UNL     1       3.651   5.571  19.555  0.00  0.00    +0.000 A 
ENDROOT
BRANCH   1   8
ATOM      8  N   UNL     1       1.907   7.006  20.532  0.00  0.00    +0.000 N 
ATOM      9  H   UNL     1       1.778   7.030  21.539  0.00  0.00    +0.000 HD
BRANCH   8  10
ATOM     10  C   UNL     1       1.551   8.166  19.835  0.00  0.00    +0.000 C 
ATOM     11  S   UNL     1       2.123   8.548  18.296  0.00  0.00    +0.000 S 
BRANCH  10  17
ATOM     12  C   UNL     1      -0.708  10.260  18.686  0.00  0.00    +0.000 C 
ATOM     13  C   UNL     1      -0.219  10.080  20.092  0.00  0.00    +0.000 A 
ATOM     14  C   UNL     1      -0.757  10.872  21.159  0.00  0.00    +0.000 A 
ATOM     15  C   UNL     1      -0.205  10.552  22.390  0.00  0.00    +0.000 A 
ATOM     16  S   UNL     1       0.918   9.284  22.268  0.00  0.00    +0.000 S 
ATOM     17  C   UNL     1       0.737   9.161  20.552  0.00  0.00    +0.000 A 
ENDBRANCH  10  17
ENDBRANCH   8  10
ENDBRANCH   1   8
BRANCH   6  18
ATOM     18  C   UNL     1       5.419   4.249  18.365  0.00  0.00    +0.000 C 
ATOM     19  O   UNL     1       6.427   4.142  19.050  0.00  0.00    +0.000 OA
BRANCH  18  20
ATOM     20  O   UNL     1       5.378   4.329  17.004  0.00  0.00    +0.000 OA
BRANCH  20  21
ATOM     21  C   UNL     1       6.532   4.856  16.231  0.00  0.00    +0.000 C 
BRANCH  21  22
ATOM     22  C   UNL     1       6.598   4.251  14.787  0.00  0.00    +0.000 C 
ATOM     23  C   UNL     1       5.219   3.975  14.187  0.00  0.00    +0.000 C 
ATOM     24  C   UNL     1       7.491   5.009  13.797  0.00  0.00    +0.000 C 
ENDBRANCH  21  22
BRANCH  21  25
ATOM     25  C   UNL     1       6.448   6.433  16.298  0.00  0.00    +0.000 C 
ATOM     26  C   UNL     1       5.009   6.951  16.402  0.00  0.00    +0.000 C 
ATOM     27  C   UNL     1       7.219   7.107  17.438  0.00  0.00    +0.000 C 
ENDBRANCH  21  25
ENDBRANCH  20  21
ENDBRANCH  18  20
ENDBRANCH   6  18
TORSDOF 8
ENDMDL
MODEL 5
REMARK VINA RESULT:      -7.1      0.642      1.745
REMARK  Name = 
REMARK  13 active torsions:
REMARK  status: ('A' for Active; 'I' for Inactive)
REMARK    1  A    between atoms: C_1  and  C_2
REMARK    2  A    between atoms: C_6  and  C_7
REMARK    3  A    between atoms: C_7  and  N_9
REMARK    4  A    between atoms: N_9  and  C_10
REMARK    5  A    between atoms: C_15  and  C_16
REMARK    6  A    between atoms: C_16  and  O_18
REMARK    7  A    between atoms: O_18  and  C_19
REMARK    8  A    between atoms: C_19  and  C_20
REMARK    9  A    between atoms: C_19  and  C_23
REMARK   10  A    between atoms: C_20  and  C_21
REMARK   11  A    between atoms: C_20  and  C_22
REMARK   12  A    between atoms: C_23  and  C_24
REMARK   13  A    between atoms: C_23  and  C_25
REMARK                            x       y       z     vdW  Elec       q    Type
REMARK                         _______ _______ _______ _____ _____    ______ ____
ROOT
ATOM      1  C   UNL     1       2.071   6.291  20.230  0.00  0.00    +0.000 A 
ATOM      2  C   UNL     1       0.946   5.485  20.390  0.00  0.00    +0.000 A 
ATOM      3  C   UNL     1       1.025   4.110  20.200  0.00  0.00    +0.000 A 
ATOM      4  C   UNL     1       2.225   3.509  19.810  0.00  0.00    +0.000 A 
ATOM      5 CL   UNL     1       2.097   1.835  19.453  0.00  0.00    +0.000 Cl
ATOM      6  C   UNL     1       3.380   4.282  19.644  0.00  0.00    +0.000 A 
ATOM      7  C   UNL     1       3.294   5.686  19.880  0.00  0.00    +0.000 A 
ENDROOT
BRANCH   1   8
ATOM      8  N   UNL     1       1.997   7.686  20.490  0.00  0.00    +0.000 N 
ATOM      9  H   UNL     1       2.203   7.977  21.441  0.00  0.00    +0.000 HD
BRANCH   8  10
ATOM     10  C   UNL     1       1.567   8.689  19.615  0.00  0.00    +0.000 C 
ATOM     11  S   UNL     1       1.998   8.762  17.987  0.00  0.00    +0.000 S 
BRANCH  10  17
ATOM     12  C   UNL     1      -0.408   8.757  22.242  0.00  0.00    +0.000 C 
ATOM     13  C   UNL     1      -0.057   9.868  21.298  0.00  0.00    +0.000 A 
ATOM     14  C   UNL     1      -0.594  11.184  21.489  0.00  0.00    +0.000 A 
ATOM     15  C   UNL     1      -0.142  12.086  20.537  0.00  0.00    +0.000 A 
ATOM     16  S   UNL     1       0.948  11.366  19.452  0.00  0.00    +0.000 S 
ATOM     17  C   UNL     1       0.806   9.809  20.194  0.00  0.00    +0.000 A 
ENDBRANCH  10  17
ENDBRANCH   8  10
ENDBRANCH   1   8
BRANCH   6  18
ATOM     18  C   UNL     1       4.635   3.741  19.037  0.00  0.00    +0.000 C 
ATOM     19  O   UNL     1       5.329   2.963  19.676  0.00  0.00    +0.000 OA
BRANCH  18  20
ATOM     20  O   UNL     1       4.895   4.202  17.780  0.00  0.00    +0.000 OA
BRANCH  20  21
ATOM     21  C   UNL     1       5.644   5.468  17.567  0.00  0.00    +0.000 C 
BRANCH  21  22
ATOM     22  C   UNL     1       7.029   5.462  18.300  0.00  0.00    +0.000 C 
ATOM     23  C   UNL     1       7.979   4.382  17.783  0.00  0.00    +0.000 C 
ATOM     24  C   UNL     1       7.732   6.822  18.386  0.00  0.00    +0.000 C 
ENDBRANCH  21  22
BRANCH  21  25
ATOM     25  C   UNL     1       5.709   5.705  16.005  0.00  0.00    +0.000 C 
ATOM     26  C   UNL     1       5.328   4.461  15.195  0.00  0.00    +0.000 C 
ATOM     27  C   UNL     1       4.845   6.845  15.454  0.00  0.00    +0.000 C 
ENDBRANCH  21  25
ENDBRANCH  20  21
ENDBRANCH  18  20
ENDBRANCH   6  18
TORSDOF 8
ENDMDL
MODEL 6
REMARK VINA RESULT:      -7.0      1.079      2.234
REMARK  Name = 
REMARK  13 active torsions:
REMARK  status: ('A' for Active; 'I' for Inactive)
REMARK    1  A    between atoms: C_1  and  C_2
REMARK    2  A    between atoms: C_6  and  C_7
REMARK    3  A    between atoms: C_7  and  N_9
REMARK    4  A    between atoms: N_9  and  C_10
REMARK    5  A    between atoms: C_15  and  C_16
REMARK    6  A    between atoms: C_16  and  O_18
REMARK    7  A    between atoms: O_18  and  C_19
REMARK    8  A    between atoms: C_19  and  C_20
REMARK    9  A    between atoms: C_19  and  C_23
REMARK   10  A    between atoms: C_20  and  C_21
REMARK   11  A    between atoms: C_20  and  C_22
REMARK   12  A    between atoms: C_23  and  C_24
REMARK   13  A    between atoms: C_23  and  C_25
REMARK                            x       y       z     vdW  Elec       q    Type
REMARK                         _______ _______ _______ _____ _____    ______ ____
ROOT
ATOM      1  C   UNL     1       2.128   6.351  20.085  0.00  0.00    +0.000 A 
ATOM      2  C   UNL     1       1.329   5.412  20.733  0.00  0.00    +0.000 A 
ATOM      3  C   UNL     1       1.518   4.050  20.517  0.00  0.00    +0.000 A 
ATOM      4  C   UNL     1       2.488   3.596  19.621  0.00  0.00    +0.000 A 
ATOM      5 CL   UNL     1       2.464   1.901  19.349  0.00  0.00    +0.000 Cl
ATOM      6  C   UNL     1       3.315   4.507  18.954  0.00  0.00    +0.000 A 
ATOM      7  C   UNL     1       3.137   5.898  19.213  0.00  0.00    +0.000 A 
ENDROOT
BRANCH   1   8
ATOM      8  N   UNL     1       1.973   7.737  20.360  0.00  0.00    +0.000 N 
ATOM      9  H   UNL     1       2.134   8.024  21.320  0.00  0.00    +0.000 HD
BRANCH   8  10
ATOM     10  C   UNL     1       1.517   8.728  19.485  0.00  0.00    +0.000 C 
ATOM     11  S   UNL     1       2.104   8.939  17.918  0.00  0.00    +0.000 S 
BRANCH  10  17
ATOM     12  C   UNL     1      -1.060  10.173  18.041  0.00  0.00    +0.000 C 
ATOM     13  C   UNL     1      -0.527  10.366  19.430  0.00  0.00    +0.000 A 
ATOM     14  C   UNL     1      -1.167  11.274  20.337  0.00  0.00    +0.000 A 
ATOM     15  C   UNL     1      -0.553  11.304  21.580  0.00  0.00    +0.000 A 
ATOM     16  S   UNL     1       0.752  10.222  21.666  0.00  0.00    +0.000 S 
ATOM     17  C   UNL     1       0.568   9.718  20.021  0.00  0.00    +0.000 A 
ENDBRANCH  10  17
ENDBRANCH   8  10
ENDBRANCH   1   8
BRANCH   6  18
ATOM     18  C   UNL     1       4.228   4.105  17.839  0.00  0.00    +0.000 C 
ATOM     19  O   UNL     1       3.797   3.418  16.923  0.00  0.00    +0.000 OA
BRANCH  18  20
ATOM     20  O   UNL     1       5.509   4.554  17.971  0.00  0.00    +0.000 OA
BRANCH  20  21
ATOM     21  C   UNL     1       5.940   5.836  17.356  0.00  0.00    +0.000 C 
BRANCH  21  22
ATOM     22  C   UNL     1       6.929   6.627  18.278  0.00  0.00    +0.000 C 
ATOM     23  C   UNL     1       7.816   5.718  19.129  0.00  0.00    +0.000 C 
ATOM     24  C   UNL     1       7.758   7.709  17.576  0.00  0.00    +0.000 C 
ENDBRANCH  21  22
BRANCH  21  25
ATOM     25  C   UNL     1       6.491   5.491  15.914  0.00  0.00    +0.000 C 
ATOM     26  C   UNL     1       7.144   4.106  15.840  0.00  0.00    +0.000 C 
ATOM     27  C   UNL     1       5.474   5.537  14.769  0.00  0.00    +0.000 C 
ENDBRANCH  21  25
ENDBRANCH  20  21
ENDBRANCH  18  20
ENDBRANCH   6  18
TORSDOF 8
ENDMDL
MODEL 7
REMARK VINA RESULT:      -6.9      1.438      2.151
REMARK  Name = 
REMARK  13 active torsions:
REMARK  status: ('A' for Active; 'I' for Inactive)
REMARK    1  A    between atoms: C_1  and  C_2
REMARK    2  A    between atoms: C_6  and  C_7
REMARK    3  A    between atoms: C_7  and  N_9
REMARK    4  A    between atoms: N_9  and  C_10
REMARK    5  A    between atoms: C_15  and  C_16
REMARK    6  A    between atoms: C_16  and  O_18
REMARK    7  A    between atoms: O_18  and  C_19
REMARK    8  A    between atoms: C_19  and  C_20
REMARK    9  A    between atoms: C_19  and  C_23
REMARK   10  A    between atoms: C_20  and  C_21
REMARK   11  A    between atoms: C_20  and  C_22
REMARK   12  A    between atoms: C_23  and  C_24
REMARK   13  A    between atoms: C_23  and  C_25
REMARK                            x       y       z     vdW  Elec       q    Type
REMARK                         _______ _______ _______ _____ _____    ______ ____
ROOT
ATOM      1  C   UNL     1       2.126   6.152  20.288  0.00  0.00    +0.000 A 
ATOM      2  C   UNL     1       1.184   5.288  20.844  0.00  0.00    +0.000 A 
ATOM      3  C   UNL     1       1.147   3.947  20.474  0.00  0.00    +0.000 A 
ATOM      4  C   UNL     1       2.028   3.445  19.513  0.00  0.00    +0.000 A 
ATOM      5 CL   UNL     1       1.726   1.819  19.054  0.00  0.00    +0.000 Cl
ATOM      6  C   UNL     1       2.992   4.279  18.935  0.00  0.00    +0.000 A 
ATOM      7  C   UNL     1       3.045   5.642  19.350  0.00  0.00    +0.000 A 
ENDROOT
BRANCH   1   8
ATOM      8  N   UNL     1       2.200   7.504  20.719  0.00  0.00    +0.000 N 
ATOM      9  H   UNL     1       3.084   7.799  21.122  0.00  0.00    +0.000 HD
BRANCH   8  10
ATOM     10  C   UNL     1       1.161   8.441  20.753  0.00  0.00    +0.000 C 
ATOM     11  S   UNL     1      -0.261   8.234  21.634  0.00  0.00    +0.000 S 
BRANCH  10  17
ATOM     12  C   UNL     1       2.125   8.597  17.613  0.00  0.00    +0.000 C 
ATOM     13  C   UNL     1       1.697   9.709  18.524  0.00  0.00    +0.000 A 
ATOM     14  C   UNL     1       1.654  11.063  18.053  0.00  0.00    +0.000 A 
ATOM     15  C   UNL     1       1.212  11.950  19.022  0.00  0.00    +0.000 A 
ATOM     16  S   UNL     1       0.814  11.156  20.470  0.00  0.00    +0.000 S 
ATOM     17  C   UNL     1       1.273   9.604  19.858  0.00  0.00    +0.000 A 
ENDBRANCH  10  17
ENDBRANCH   8  10
ENDBRANCH   1   8
BRANCH   6  18
ATOM     18  C   UNL     1       3.824   3.863  17.763  0.00  0.00    +0.000 C 
ATOM     19  O   UNL     1       3.277   3.503  16.730  0.00  0.00    +0.000 OA
BRANCH  18  20
ATOM     20  O   UNL     1       5.169   3.918  17.982  0.00  0.00    +0.000 OA
BRANCH  20  21
ATOM     21  C   UNL     1       6.042   4.810  17.175  0.00  0.00    +0.000 C 
BRANCH  21  22
ATOM     22  C   UNL     1       5.355   5.255  15.840  0.00  0.00    +0.000 C 
ATOM     23  C   UNL     1       4.923   6.721  15.844  0.00  0.00    +0.000 C 
ATOM     24  C   UNL     1       6.122   4.907  14.558  0.00  0.00    +0.000 C 
ENDBRANCH  21  22
BRANCH  21  25
ATOM     25  C   UNL     1       6.496   5.990  18.126  0.00  0.00    +0.000 C 
ATOM     26  C   UNL     1       6.870   5.513  19.533  0.00  0.00    +0.000 C 
ATOM     27  C   UNL     1       7.678   6.836  17.642  0.00  0.00    +0.000 C 
ENDBRANCH  21  25
ENDBRANCH  20  21
ENDBRANCH  18  20
ENDBRANCH   6  18
TORSDOF 8
ENDMDL
MODEL 8
REMARK VINA RESULT:      -6.9      4.248      8.469
REMARK  Name = 
REMARK  13 active torsions:
REMARK  status: ('A' for Active; 'I' for Inactive)
REMARK    1  A    between atoms: C_1  and  C_2
REMARK    2  A    between atoms: C_6  and  C_7
REMARK    3  A    between atoms: C_7  and  N_9
REMARK    4  A    between atoms: N_9  and  C_10
REMARK    5  A    between atoms: C_15  and  C_16
REMARK    6  A    between atoms: C_16  and  O_18
REMARK    7  A    between atoms: O_18  and  C_19
REMARK    8  A    between atoms: C_19  and  C_20
REMARK    9  A    between atoms: C_19  and  C_23
REMARK   10  A    between atoms: C_20  and  C_21
REMARK   11  A    between atoms: C_20  and  C_22
REMARK   12  A    between atoms: C_23  and  C_24
REMARK   13  A    between atoms: C_23  and  C_25
REMARK                            x       y       z     vdW  Elec       q    Type
REMARK                         _______ _______ _______ _____ _____    ______ ____
ROOT
ATOM      1  C   UNL     1       2.365   7.230  19.912  0.00  0.00    +0.000 A 
ATOM      2  C   UNL     1       2.267   7.616  18.577  0.00  0.00    +0.000 A 
ATOM      3  C   UNL     1       1.571   8.766  18.221  0.00  0.00    +0.000 A 
ATOM      4  C   UNL     1       0.925   9.540  19.188  0.00  0.00    +0.000 A 
ATOM      5 CL   UNL     1      -0.027  10.819  18.552  0.00  0.00    +0.000 Cl
ATOM      6  C   UNL     1       1.004   9.190  20.540  0.00  0.00    +0.000 A 
ATOM      7  C   UNL     1       1.753   8.030  20.896  0.00  0.00    +0.000 A 
ENDROOT
BRANCH   1   8
ATOM      8  N   UNL     1       3.133   6.090  20.274  0.00  0.00    +0.000 N 
ATOM      9  H   UNL     1       3.287   5.950  21.268  0.00  0.00    +0.000 HD
BRANCH   8  10
ATOM     10  C   UNL     1       3.792   5.204  19.414  0.00  0.00    +0.000 C 
ATOM     11  S   UNL     1       5.315   5.495  18.754  0.00  0.00    +0.000 S 
BRANCH  10  17
ATOM     12  C   UNL     1       0.861   4.073  20.385  0.00  0.00    +0.000 C 
ATOM     13  C   UNL     1       1.804   3.498  19.370  0.00  0.00    +0.000 A 
ATOM     14  C   UNL     1       1.468   2.300  18.658  0.00  0.00    +0.000 A 
ATOM     15  C   UNL     1       2.444   1.932  17.744  0.00  0.00    +0.000 A 
ATOM     16  S   UNL     1       3.731   3.040  17.716  0.00  0.00    +0.000 S 
ATOM     17  C   UNL     1       3.043   4.019  18.965  0.00  0.00    +0.000 A 
ENDBRANCH  10  17
ENDBRANCH   8  10
ENDBRANCH   1   8
BRANCH   6  18
ATOM     18  C   UNL     1       0.176   9.851  21.597  0.00  0.00    +0.000 C 
ATOM     19  O   UNL     1      -0.765   9.247  22.093  0.00  0.00    +0.000 OA
BRANCH  18  20
ATOM     20  O   UNL     1       0.565  11.121  21.902  0.00  0.00    +0.000 OA
BRANCH  20  21
ATOM     21  C   UNL     1      -0.353  12.274  21.705  0.00  0.00    +0.000 C 
BRANCH  21  22
ATOM     22  C   UNL     1      -1.193  12.582  22.990  0.00  0.00    +0.000 C 
ATOM     23  C   UNL     1      -1.117  14.047  23.422  0.00  0.00    +0.000 C 
ATOM     24  C   UNL     1      -2.645  12.088  22.960  0.00  0.00    +0.000 C 
ENDBRANCH  21  22
BRANCH  21  25
ATOM     25  C   UNL     1       0.527  13.474  21.169  0.00  0.00    +0.000 C 
ATOM     26  C   UNL     1       1.886  13.023  20.626  0.00  0.00    +0.000 C 
ATOM     27  C   UNL     1      -0.099  14.337  20.069  0.00  0.00    +0.000 C 
ENDBRANCH  21  25
ENDBRANCH  20  21
ENDBRANCH  18  20
ENDBRANCH   6  18
TORSDOF 8
ENDMDL
MODEL 9
REMARK VINA RESULT:      -6.8      2.251      2.953
REMARK  Name = 
REMARK  13 active torsions:
REMARK  status: ('A' for Active; 'I' for Inactive)
REMARK    1  A    between atoms: C_1  and  C_2
REMARK    2  A    between atoms: C_6  and  C_7
REMARK    3  A    between atoms: C_7  and  N_9
REMARK    4  A    between atoms: N_9  and  C_10
REMARK    5  A    between atoms: C_15  and  C_16
REMARK    6  A    between atoms: C_16  and  O_18
REMARK    7  A    between atoms: O_18  and  C_19
REMARK    8  A    between atoms: C_19  and  C_20
REMARK    9  A    between atoms: C_19  and  C_23
REMARK   10  A    between atoms: C_20  and  C_21
REMARK   11  A    between atoms: C_20  and  C_22
REMARK   12  A    between atoms: C_23  and  C_24
REMARK   13  A    between atoms: C_23  and  C_25
REMARK                            x       y       z     vdW  Elec       q    Type
REMARK                         _______ _______ _______ _____ _____    ______ ____
ROOT
ATOM      1  C   UNL     1       1.739   9.118  18.479  0.00  0.00    +0.000 A 
ATOM      2  C   UNL     1       1.225   8.821  19.739  0.00  0.00    +0.000 A 
ATOM      3  C   UNL     1       1.588   7.649  20.394  0.00  0.00    +0.000 A 
ATOM      4  C   UNL     1       2.447   6.727  19.790  0.00  0.00    +0.000 A 
ATOM      5 CL   UNL     1       2.645   5.264  20.664  0.00  0.00    +0.000 Cl
ATOM      6  C   UNL     1       2.988   6.991  18.527  0.00  0.00    +0.000 A 
ATOM      7  C   UNL     1       2.639   8.214  17.882  0.00  0.00    +0.000 A 
ENDROOT
BRANCH   1   8
ATOM      8  N   UNL     1       1.415  10.348  17.844  0.00  0.00    +0.000 N 
ATOM      9  H   UNL     1       1.546  10.383  16.838  0.00  0.00    +0.000 HD
BRANCH   8  10
ATOM     10  C   UNL     1       1.040  11.547  18.462  0.00  0.00    +0.000 C 
ATOM     11  S   UNL     1       2.136  12.722  18.973  0.00  0.00    +0.000 S 
BRANCH  10  17
ATOM     12  C   UNL     1      -1.612  10.085  17.183  0.00  0.00    +0.000 C 
ATOM     13  C   UNL     1      -1.538  11.125  18.261  0.00  0.00    +0.000 A 
ATOM     14  C   UNL     1      -2.730  11.606  18.895  0.00  0.00    +0.000 A 
ATOM     15  C   UNL     1      -2.467  12.544  19.882  0.00  0.00    +0.000 A 
ATOM     16  S   UNL     1      -0.801  12.812  20.069  0.00  0.00    +0.000 S 
ATOM     17  C   UNL     1      -0.383  11.717  18.797  0.00  0.00    +0.000 A 
ENDBRANCH  10  17
ENDBRANCH   8  10
ENDBRANCH   1   8
BRANCH   6  18
ATOM     18  C   UNL     1       3.744   5.967  17.741  0.00  0.00    +0.000 C 
ATOM     19  O   UNL     1       3.214   4.897  17.475  0.00  0.00    +0.000 OA
BRANCH  18  20
ATOM     20  O   UNL     1       5.010   6.343  17.398  0.00  0.00    +0.000 OA
BRANCH  20  21
ATOM     21  C   UNL     1       6.094   5.339  17.242  0.00  0.00    +0.000 C 
BRANCH  21  22
ATOM     22  C   UNL     1       6.211   4.826  15.767  0.00  0.00    +0.000 C 
ATOM     23  C   UNL     1       5.750   3.379  15.594  0.00  0.00    +0.000 C 
ATOM     24  C   UNL     1       5.587   5.737  14.703  0.00  0.00    +0.000 C 
ENDBRANCH  21  22
BRANCH  21  25
ATOM     25  C   UNL     1       7.408   5.986  17.838  0.00  0.00    +0.000 C 
ATOM     26  C   UNL     1       7.498   7.495  17.586  0.00  0.00    +0.000 C 
ATOM     27  C   UNL     1       7.637   5.798  19.342  0.00  0.00    +0.000 C 
ENDBRANCH  21  25
ENDBRANCH  20  21
ENDBRANCH  18  20
ENDBRANCH   6  18
TORSDOF 8
ENDMDL
