MODEL 1
REMARK VINA RESULT:      -7.1      0.000      0.000
REMARK  Name = 
REMARK  3 active torsions:
REMARK  status: ('A' for Active; 'I' for Inactive)
REMARK    1  A    between atoms: C_1  and  C_2
REMARK    2  A    between atoms: C_6  and  N_7
REMARK    3  A    between atoms: C_11  and  C_12
REMARK                            x       y       z     vdW  Elec       q    Type
REMARK                         _______ _______ _______ _____ _____    ______ ____
ROOT
ATOM      1  N   UNL     1       1.164   9.574  19.289  0.00  0.00    +0.000 N 
ATOM      2  C   UNL     1       1.859   8.881  18.303  0.00  0.00    +0.000 C 
ATOM      3  O   UNL     1       2.097   9.243  17.158  0.00  0.00    +0.000 OA
ATOM      4  C   UNL     1       2.336   7.573  18.841  0.00  0.00    +0.000 C 
ATOM      5  C   UNL     1       3.058   6.715  18.107  0.00  0.00    +0.000 C 
ATOM      6  S   UNL     1       1.826   7.374  20.468  0.00  0.00    +0.000 S 
ATOM      7  C   UNL     1       1.015   8.939  20.513  0.00  0.00    +0.000 C 
ATOM      8  S   UNL     1       0.152   9.414  21.866  0.00  0.00    +0.000 S 
ENDROOT
BRANCH   1  14
ATOM      9  C   UNL     1       1.797  14.488  19.103  0.00  0.00    +0.000 C 
ATOM     10  C   UNL     1       0.919  13.285  18.922  0.00  0.00    +0.000 A 
ATOM     11  C   UNL     1      -0.409  13.415  18.499  0.00  0.00    +0.000 A 
ATOM     12  C   UNL     1      -1.202  12.282  18.315  0.00  0.00    +0.000 A 
ATOM     13  C   UNL     1      -0.677  11.009  18.548  0.00  0.00    +0.000 A 
ATOM     14  C   UNL     1       0.637  10.864  19.005  0.00  0.00    +0.000 A 
ATOM     15  C   UNL     1       1.429  12.006  19.184  0.00  0.00    +0.000 A 
ENDBRANCH   1  14
BRANCH   5  16
ATOM     16  C   UNL     1       3.488   5.391  18.561  0.00  0.00    +0.000 A 
ATOM     17  C   UNL     1       2.642   4.284  18.511  0.00  0.00    +0.000 A 
ATOM     18  C   UNL     1       3.118   3.040  18.926  0.00  0.00    +0.000 A 
ATOM     19  C   UNL     1       4.422   2.947  19.383  0.00  0.00    +0.000 A 
ATOM     20  N   UNL     1       5.265   3.998  19.458  0.00  0.00    +0.000 NA
ATOM     21  C   UNL     1       4.778   5.193  19.045  0.00  0.00    +0.000 A 
ENDBRANCH   5  16
TORSDOF 2
ENDMDL
MODEL 2
REMARK VINA RESULT:      -6.8      0.527      1.624
REMARK  Name = 
REMARK  3 active torsions:
REMARK  status: ('A' for Active; 'I' for Inactive)
REMARK    1  A    between atoms: C_1  and  C_2
REMARK    2  A    between atoms: C_6  and  N_7
REMARK    3  A    between atoms: C_11  and  C_12
REMARK                            x       y       z     vdW  Elec       q    Type
REMARK                         _______ _______ _______ _____ _____    ______ ____
ROOT
ATOM      1  N   UNL     1       1.054   9.444  19.433  0.00  0.00    +0.000 N 
ATOM      2  C   UNL     1       1.748   8.836  18.392  0.00  0.00    +0.000 C 
ATOM      3  O   UNL     1       1.907   9.253  17.252  0.00  0.00    +0.000 OA
ATOM      4  C   UNL     1       2.336   7.547  18.860  0.00  0.00    +0.000 C 
ATOM      5  C   UNL     1       3.080   6.766  18.062  0.00  0.00    +0.000 C 
ATOM      6  S   UNL     1       1.918   7.256  20.499  0.00  0.00    +0.000 S 
ATOM      7  C   UNL     1       1.005   8.759  20.638  0.00  0.00    +0.000 C 
ATOM      8  S   UNL     1       0.176   9.126  22.044  0.00  0.00    +0.000 S 
ENDROOT
BRANCH   1  14
ATOM      9  C   UNL     1      -3.045  12.055  18.450  0.00  0.00    +0.000 C 
ATOM     10  C   UNL     1      -1.570  12.008  18.721  0.00  0.00    +0.000 A 
ATOM     11  C   UNL     1      -0.802  13.178  18.750  0.00  0.00    +0.000 A 
ATOM     12  C   UNL     1       0.564  13.115  19.028  0.00  0.00    +0.000 A 
ATOM     13  C   UNL     1       1.176  11.886  19.281  0.00  0.00    +0.000 A 
ATOM     14  C   UNL     1       0.428  10.704  19.221  0.00  0.00    +0.000 A 
ATOM     15  C   UNL     1      -0.944  10.776  18.947  0.00  0.00    +0.000 A 
ENDBRANCH   1  14
BRANCH   5  16
ATOM     16  C   UNL     1       3.620   5.460  18.448  0.00  0.00    +0.000 A 
ATOM     17  C   UNL     1       2.916   4.278  18.226  0.00  0.00    +0.000 A 
ATOM     18  C   UNL     1       3.495   3.060  18.584  0.00  0.00    +0.000 A 
ATOM     19  C   UNL     1       4.756   3.067  19.156  0.00  0.00    +0.000 A 
ATOM     20  N   UNL     1       5.462   4.192  19.397  0.00  0.00    +0.000 NA
ATOM     21  C   UNL     1       4.877   5.359  19.037  0.00  0.00    +0.000 A 
ENDBRANCH   5  16
TORSDOF 2
ENDMDL
MODEL 3
REMARK VINA RESULT:      -6.7      0.643      1.055
REMARK  Name = 
REMARK  3 active torsions:
REMARK  status: ('A' for Active; 'I' for Inactive)
REMARK    1  A    between atoms: C_1  and  C_2
REMARK    2  A    between atoms: C_6  and  N_7
REMARK    3  A    between atoms: C_11  and  C_12
REMARK                            x       y       z     vdW  Elec       q    Type
REMARK                         _______ _______ _______ _____ _____    ______ ____
ROOT
ATOM      1  N   UNL     1       1.166   9.584  19.277  0.00  0.00    +0.000 N 
ATOM      2  C   UNL     1       1.846   8.910  18.267  0.00  0.00    +0.000 C 
ATOM      3  O   UNL     1       2.076   9.298  17.130  0.00  0.00    +0.000 OA
ATOM      4  C   UNL     1       2.317   7.586  18.769  0.00  0.00    +0.000 C 
ATOM      5  C   UNL     1       3.025   6.740  18.007  0.00  0.00    +0.000 C 
ATOM      6  S   UNL     1       1.821   7.350  20.396  0.00  0.00    +0.000 S 
ATOM      7  C   UNL     1       1.023   8.920  20.486  0.00  0.00    +0.000 C 
ATOM      8  S   UNL     1       0.177   9.369  21.859  0.00  0.00    +0.000 S 
ENDROOT
BRANCH   1  14
ATOM      9  C   UNL     1       1.841  14.495  19.193  0.00  0.00    +0.000 C 
ATOM     10  C   UNL     1       0.949  13.304  18.998  0.00  0.00    +0.000 A 
ATOM     11  C   UNL     1      -0.383  13.455  18.597  0.00  0.00    +0.000 A 
ATOM     12  C   UNL     1      -1.189  12.334  18.398  0.00  0.00    +0.000 A 
ATOM     13  C   UNL     1      -0.673  11.051  18.595  0.00  0.00    +0.000 A 
ATOM     14  C   UNL     1       0.647  10.885  19.030  0.00  0.00    +0.000 A 
ATOM     15  C   UNL     1       1.452  12.016  19.223  0.00  0.00    +0.000 A 
ENDBRANCH   1  14
BRANCH   5  16
ATOM     16  C   UNL     1       3.448   5.402  18.425  0.00  0.00    +0.000 A 
ATOM     17  C   UNL     1       4.707   5.165  18.975  0.00  0.00    +0.000 A 
ATOM     18  C   UNL     1       5.042   3.875  19.386  0.00  0.00    +0.000 A 
ATOM     19  C   UNL     1       4.108   2.864  19.228  0.00  0.00    +0.000 A 
ATOM     20  N   UNL     1       2.885   3.053  18.688  0.00  0.00    +0.000 NA
ATOM     21  C   UNL     1       2.586   4.316  18.301  0.00  0.00    +0.000 A 
ENDBRANCH   5  16
TORSDOF 2
ENDMDL
MODEL 4
REMARK VINA RESULT:      -6.5      4.000      4.875
REMARK  Name = 
REMARK  3 active torsions:
REMARK  status: ('A' for Active; 'I' for Inactive)
REMARK    1  A    between atoms: C_1  and  C_2
REMARK    2  A    between atoms: C_6  and  N_7
REMARK    3  A    between atoms: C_11  and  C_12
REMARK                            x       y       z     vdW  Elec       q    Type
REMARK                         _______ _______ _______ _____ _____    ______ ____
ROOT
ATOM      1  N   UNL     1      -0.897  11.309  21.725  0.00  0.00    +0.000 N 
ATOM      2  C   UNL     1      -0.094  10.291  22.232  0.00  0.00    +0.000 C 
ATOM      3  O   UNL     1       0.181  10.067  23.403  0.00  0.00    +0.000 OA
ATOM      4  C   UNL     1       0.401   9.433  21.116  0.00  0.00    +0.000 C 
ATOM      5  C   UNL     1       1.177   8.360  21.327  0.00  0.00    +0.000 C 
ATOM      6  S   UNL     1      -0.161  10.027  19.607  0.00  0.00    +0.000 S 
ATOM      7  C   UNL     1      -1.047  11.360  20.347  0.00  0.00    +0.000 C 
ATOM      8  S   UNL     1      -1.827  12.497  19.398  0.00  0.00    +0.000 S 
ENDROOT
BRANCH   1  14
ATOM      9  C   UNL     1      -4.683  12.527  24.686  0.00  0.00    +0.000 C 
ATOM     10  C   UNL     1      -3.361  12.867  24.063  0.00  0.00    +0.000 A 
ATOM     11  C   UNL     1      -2.728  14.086  24.329  0.00  0.00    +0.000 A 
ATOM     12  C   UNL     1      -1.487  14.374  23.759  0.00  0.00    +0.000 A 
ATOM     13  C   UNL     1      -0.866  13.447  22.919  0.00  0.00    +0.000 A 
ATOM     14  C   UNL     1      -1.502  12.238  22.615  0.00  0.00    +0.000 A 
ATOM     15  C   UNL     1      -2.745  11.955  23.196  0.00  0.00    +0.000 A 
ENDBRANCH   1  14
BRANCH   5  16
ATOM     16  C   UNL     1       1.749   7.528  20.266  0.00  0.00    +0.000 A 
ATOM     17  C   UNL     1       2.217   8.075  19.073  0.00  0.00    +0.000 A 
ATOM     18  C   UNL     1       2.784   7.237  18.112  0.00  0.00    +0.000 A 
ATOM     19  C   UNL     1       2.857   5.879  18.376  0.00  0.00    +0.000 A 
ATOM     20  N   UNL     1       2.404   5.313  19.514  0.00  0.00    +0.000 NA
ATOM     21  C   UNL     1       1.863   6.150  20.430  0.00  0.00    +0.000 A 
ENDBRANCH   5  16
TORSDOF 2
ENDMDL
MODEL 5
REMARK VINA RESULT:      -6.5      0.942      2.001
REMARK  Name = 
REMARK  3 active torsions:
REMARK  status: ('A' for Active; 'I' for Inactive)
REMARK    1  A    between atoms: C_1  and  C_2
REMARK    2  A    between atoms: C_6  and  N_7
REMARK    3  A    between atoms: C_11  and  C_12
REMARK                            x       y       z     vdW  Elec       q    Type
REMARK                         _______ _______ _______ _____ _____    ______ ____
ROOT
ATOM      1  N   UNL     1       0.948   9.577  19.663  0.00  0.00    +0.000 N 
ATOM      2  C   UNL     1       1.619   9.064  18.557  0.00  0.00    +0.000 C 
ATOM      3  O   UNL     1       1.738   9.573  17.450  0.00  0.00    +0.000 OA
ATOM      4  C   UNL     1       2.240   7.752  18.904  0.00  0.00    +0.000 C 
ATOM      5  C   UNL     1       2.970   7.050  18.026  0.00  0.00    +0.000 C 
ATOM      6  S   UNL     1       1.875   7.326  20.526  0.00  0.00    +0.000 S 
ATOM      7  C   UNL     1       0.946   8.798  20.810  0.00  0.00    +0.000 C 
ATOM      8  S   UNL     1       0.155   9.039  22.265  0.00  0.00    +0.000 S 
ENDROOT
BRANCH   1  14
ATOM      9  C   UNL     1      -3.220  12.190  19.043  0.00  0.00    +0.000 C 
ATOM     10  C   UNL     1      -1.734  12.146  19.250  0.00  0.00    +0.000 A 
ATOM     11  C   UNL     1      -0.980  13.322  19.333  0.00  0.00    +0.000 A 
ATOM     12  C   UNL     1       0.397  13.260  19.550  0.00  0.00    +0.000 A 
ATOM     13  C   UNL     1       1.034  12.025  19.687  0.00  0.00    +0.000 A 
ATOM     14  C   UNL     1       0.299  10.840  19.570  0.00  0.00    +0.000 A 
ATOM     15  C   UNL     1      -1.084  10.909  19.358  0.00  0.00    +0.000 A 
ENDBRANCH   1  14
BRANCH   5  16
ATOM     16  C   UNL     1       3.539   5.727  18.290  0.00  0.00    +0.000 A 
ATOM     17  C   UNL     1       4.815   5.567  18.827  0.00  0.00    +0.000 A 
ATOM     18  C   UNL     1       5.291   4.282  19.089  0.00  0.00    +0.000 A 
ATOM     19  C   UNL     1       4.476   3.200  18.800  0.00  0.00    +0.000 A 
ATOM     20  N   UNL     1       3.241   3.316  18.268  0.00  0.00    +0.000 NA
ATOM     21  C   UNL     1       2.803   4.574  18.027  0.00  0.00    +0.000 A 
ENDBRANCH   5  16
TORSDOF 2
ENDMDL
MODEL 6
REMARK VINA RESULT:      -6.4      4.008      4.852
REMARK  Name = 
REMARK  3 active torsions:
REMARK  status: ('A' for Active; 'I' for Inactive)
REMARK    1  A    between atoms: C_1  and  C_2
REMARK    2  A    between atoms: C_6  and  N_7
REMARK    3  A    between atoms: C_11  and  C_12
REMARK                            x       y       z     vdW  Elec       q    Type
REMARK                         _______ _______ _______ _____ _____    ______ ____
ROOT
ATOM      1  N   UNL     1      -0.918  11.288  21.740  0.00  0.00    +0.000 N 
ATOM      2  C   UNL     1      -0.128  10.269  22.264  0.00  0.00    +0.000 C 
ATOM      3  O   UNL     1       0.140  10.057  23.439  0.00  0.00    +0.000 OA
ATOM      4  C   UNL     1       0.364   9.391  21.162  0.00  0.00    +0.000 C 
ATOM      5  C   UNL     1       1.128   8.313  21.391  0.00  0.00    +0.000 C 
ATOM      6  S   UNL     1      -0.185   9.970  19.642  0.00  0.00    +0.000 S 
ATOM      7  C   UNL     1      -1.061  11.322  20.361  0.00  0.00    +0.000 C 
ATOM      8  S   UNL     1      -1.825  12.454  19.393  0.00  0.00    +0.000 S 
ENDROOT
BRANCH   1  14
ATOM      9  C   UNL     1      -4.696  12.575  24.680  0.00  0.00    +0.000 C 
ATOM     10  C   UNL     1      -3.373  12.897  24.052  0.00  0.00    +0.000 A 
ATOM     11  C   UNL     1      -2.733  14.117  24.299  0.00  0.00    +0.000 A 
ATOM     12  C   UNL     1      -1.491  14.389  23.723  0.00  0.00    +0.000 A 
ATOM     13  C   UNL     1      -0.874  13.445  22.899  0.00  0.00    +0.000 A 
ATOM     14  C   UNL     1      -1.518  12.235  22.615  0.00  0.00    +0.000 A 
ATOM     15  C   UNL     1      -2.763  11.968  23.200  0.00  0.00    +0.000 A 
ENDBRANCH   1  14
BRANCH   5  16
ATOM     16  C   UNL     1       1.697   7.461  20.344  0.00  0.00    +0.000 A 
ATOM     17  C   UNL     1       1.776   6.077  20.481  0.00  0.00    +0.000 A 
ATOM     18  C   UNL     1       2.297   5.314  19.436  0.00  0.00    +0.000 A 
ATOM     19  C   UNL     1       2.726   5.963  18.290  0.00  0.00    +0.000 A 
ATOM     20  N   UNL     1       2.676   7.302  18.126  0.00  0.00    +0.000 NA
ATOM     21  C   UNL     1       2.163   8.017  19.155  0.00  0.00    +0.000 A 
ENDBRANCH   5  16
TORSDOF 2
ENDMDL
MODEL 7
REMARK VINA RESULT:      -6.3      2.001      7.320
REMARK  Name = 
REMARK  3 active torsions:
REMARK  status: ('A' for Active; 'I' for Inactive)
REMARK    1  A    between atoms: C_1  and  C_2
REMARK    2  A    between atoms: C_6  and  N_7
REMARK    3  A    between atoms: C_11  and  C_12
REMARK                            x       y       z     vdW  Elec       q    Type
REMARK                         _______ _______ _______ _____ _____    ______ ____
ROOT
ATOM      1  N   UNL     1       2.636   6.645  18.854  0.00  0.00    +0.000 N 
ATOM      2  C   UNL     1       2.447   7.902  18.287  0.00  0.00    +0.000 C 
ATOM      3  O   UNL     1       2.855   8.305  17.206  0.00  0.00    +0.000 OA
ATOM      4  C   UNL     1       1.614   8.747  19.192  0.00  0.00    +0.000 C 
ATOM      5  C   UNL     1       1.258  10.000  18.876  0.00  0.00    +0.000 C 
ATOM      6  S   UNL     1       1.219   7.884  20.623  0.00  0.00    +0.000 S 
ATOM      7  C   UNL     1       2.079   6.434  20.107  0.00  0.00    +0.000 C 
ATOM      8  S   UNL     1       2.204   5.110  21.123  0.00  0.00    +0.000 S 
ENDROOT
BRANCH   1  14
ATOM      9  C   UNL     1       7.012   4.957  17.247  0.00  0.00    +0.000 C 
ATOM     10  C   UNL     1       5.520   4.819  17.335  0.00  0.00    +0.000 A 
ATOM     11  C   UNL     1       4.855   3.751  16.723  0.00  0.00    +0.000 A 
ATOM     12  C   UNL     1       3.470   3.627  16.836  0.00  0.00    +0.000 A 
ATOM     13  C   UNL     1       2.736   4.566  17.563  0.00  0.00    +0.000 A 
ATOM     14  C   UNL     1       3.382   5.659  18.151  0.00  0.00    +0.000 A 
ATOM     15  C   UNL     1       4.774   5.774  18.037  0.00  0.00    +0.000 A 
ENDBRANCH   1  14
BRANCH   5  16
ATOM     16  C   UNL     1       0.505  10.896  19.757  0.00  0.00    +0.000 A 
ATOM     17  C   UNL     1      -0.881  11.016  19.676  0.00  0.00    +0.000 A 
ATOM     18  C   UNL     1      -1.547  11.861  20.565  0.00  0.00    +0.000 A 
ATOM     19  C   UNL     1      -0.804  12.560  21.500  0.00  0.00    +0.000 A 
ATOM     20  N   UNL     1       0.540  12.478  21.600  0.00  0.00    +0.000 NA
ATOM     21  C   UNL     1       1.160  11.649  20.728  0.00  0.00    +0.000 A 
ENDBRANCH   5  16
TORSDOF 2
ENDMDL
MODEL 8
REMARK VINA RESULT:      -6.3      1.262      1.933
REMARK  Name = 
REMARK  3 active torsions:
REMARK  status: ('A' for Active; 'I' for Inactive)
REMARK    1  A    between atoms: C_1  and  C_2
REMARK    2  A    between atoms: C_6  and  N_7
REMARK    3  A    between atoms: C_11  and  C_12
REMARK                            x       y       z     vdW  Elec       q    Type
REMARK                         _______ _______ _______ _____ _____    ______ ____
ROOT
ATOM      1  N   UNL     1       0.828   9.951  20.108  0.00  0.00    +0.000 N 
ATOM      2  C   UNL     1       1.323   9.456  18.905  0.00  0.00    +0.000 C 
ATOM      3  O   UNL     1       1.353  10.018  17.819  0.00  0.00    +0.000 OA
ATOM      4  C   UNL     1       1.872   8.083  19.109  0.00  0.00    +0.000 C 
ATOM      5  C   UNL     1       2.437   7.382  18.116  0.00  0.00    +0.000 C 
ATOM      6  S   UNL     1       1.664   7.591  20.740  0.00  0.00    +0.000 S 
ATOM      7  C   UNL     1       0.896   9.108  21.206  0.00  0.00    +0.000 C 
ATOM      8  S   UNL     1       0.300   9.321  22.756  0.00  0.00    +0.000 S 
ENDROOT
BRANCH   1  14
ATOM      9  C   UNL     1      -3.161  12.896  20.137  0.00  0.00    +0.000 C 
ATOM     10  C   UNL     1      -1.670  12.730  20.154  0.00  0.00    +0.000 A 
ATOM     11  C   UNL     1      -0.819  13.841  20.198  0.00  0.00    +0.000 A 
ATOM     12  C   UNL     1       0.565  13.665  20.237  0.00  0.00    +0.000 A 
ATOM     13  C   UNL     1       1.112  12.380  20.235  0.00  0.00    +0.000 A 
ATOM     14  C   UNL     1       0.276  11.261  20.156  0.00  0.00    +0.000 A 
ATOM     15  C   UNL     1      -1.113  11.445  20.122  0.00  0.00    +0.000 A 
ENDBRANCH   1  14
BRANCH   5  16
ATOM     16  C   UNL     1       2.925   6.007  18.244  0.00  0.00    +0.000 A 
ATOM     17  C   UNL     1       2.118   4.909  17.951  0.00  0.00    +0.000 A 
ATOM     18  C   UNL     1       2.648   3.622  18.060  0.00  0.00    +0.000 A 
ATOM     19  C   UNL     1       3.966   3.479  18.463  0.00  0.00    +0.000 A 
ATOM     20  N   UNL     1       4.772   4.518  18.766  0.00  0.00    +0.000 NA
ATOM     21  C   UNL     1       4.233   5.754  18.649  0.00  0.00    +0.000 A 
ENDBRANCH   5  16
TORSDOF 2
ENDMDL
MODEL 9
REMARK VINA RESULT:      -6.2      2.354      7.323
REMARK  Name = 
REMARK  3 active torsions:
REMARK  status: ('A' for Active; 'I' for Inactive)
REMARK    1  A    between atoms: C_1  and  C_2
REMARK    2  A    between atoms: C_6  and  N_7
REMARK    3  A    between atoms: C_11  and  C_12
REMARK                            x       y       z     vdW  Elec       q    Type
REMARK                         _______ _______ _______ _____ _____    ______ ____
ROOT
ATOM      1  N   UNL     1       2.684   6.141  19.263  0.00  0.00    +0.000 N 
ATOM      2  C   UNL     1       2.493   7.487  18.966  0.00  0.00    +0.000 C 
ATOM      3  O   UNL     1       2.951   8.119  18.024  0.00  0.00    +0.000 OA
ATOM      4  C   UNL     1       1.585   8.105  19.976  0.00  0.00    +0.000 C 
ATOM      5  C   UNL     1       1.212   9.392  19.912  0.00  0.00    +0.000 C 
ATOM      6  S   UNL     1       1.131   6.950  21.162  0.00  0.00    +0.000 S 
ATOM      7  C   UNL     1       2.062   5.658  20.405  0.00  0.00    +0.000 C 
ATOM      8  S   UNL     1       2.164   4.149  21.121  0.00  0.00    +0.000 S 
ENDROOT
BRANCH   1  14
ATOM      9  C   UNL     1       7.201   4.759  17.758  0.00  0.00    +0.000 C 
ATOM     10  C   UNL     1       5.708   4.658  17.645  0.00  0.00    +0.000 A 
ATOM     11  C   UNL     1       5.109   3.807  16.710  0.00  0.00    +0.000 A 
ATOM     12  C   UNL     1       3.719   3.709  16.638  0.00  0.00    +0.000 A 
ATOM     13  C   UNL     1       2.914   4.458  17.499  0.00  0.00    +0.000 A 
ATOM     14  C   UNL     1       3.498   5.340  18.415  0.00  0.00    +0.000 A 
ATOM     15  C   UNL     1       4.894   5.429  18.485  0.00  0.00    +0.000 A 
ENDBRANCH   1  14
BRANCH   5  16
ATOM     16  C   UNL     1       0.384  10.066  20.915  0.00  0.00    +0.000 A 
ATOM     17  C   UNL     1      -0.587  11.001  20.561  0.00  0.00    +0.000 A 
ATOM     18  C   UNL     1      -1.369  11.586  21.557  0.00  0.00    +0.000 A 
ATOM     19  C   UNL     1      -1.149  11.220  22.874  0.00  0.00    +0.000 A 
ATOM     20  N   UNL     1      -0.211  10.328  23.256  0.00  0.00    +0.000 NA
ATOM     21  C   UNL     1       0.531   9.773  22.268  0.00  0.00    +0.000 A 
ENDBRANCH   5  16
TORSDOF 2
ENDMDL
