MODEL 1
REMARK VINA RESULT:      -7.8      0.000      0.000
REMARK  Name = 
REMARK  3 active torsions:
REMARK  status: ('A' for Active; 'I' for Inactive)
REMARK    1  A    between atoms: C_1  and  N_2
REMARK    2  A    between atoms: N_5  and  C_6
REMARK    3  A    between atoms: C_6  and  C_7
REMARK                            x       y       z     vdW  Elec       q    Type
REMARK                         _______ _______ _______ _____ _____    ______ ____
ROOT
ATOM      1  C   UNL     1       2.341   7.559  18.920  0.00  0.00    +0.000 A 
ATOM      2  C   UNL     1       2.031   8.359  17.812  0.00  0.00    +0.000 A 
ATOM      3  C   UNL     1       1.272   9.521  17.967  0.00  0.00    +0.000 A 
ATOM      4  C   UNL     1       0.787   9.887  19.230  0.00  0.00    +0.000 A 
ATOM      5  C   UNL     1       1.042   9.064  20.325  0.00  0.00    +0.000 A 
ATOM      6  C   UNL     1       1.824   7.912  20.176  0.00  0.00    +0.000 A 
ATOM      7  O   UNL     1       0.563   9.315  21.589  0.00  0.00    +0.000 OA
ATOM      8  C   UNL     1      -0.319  10.357  21.759  0.00  0.00    +0.000 A 
ATOM      9  C   UNL     1      -0.930  10.458  23.010  0.00  0.00    +0.000 A 
ATOM     10  C   UNL     1      -1.827  11.495  23.270  0.00  0.00    +0.000 A 
ATOM     11  C   UNL     1      -2.105  12.440  22.285  0.00  0.00    +0.000 A 
ATOM     12  C   UNL     1      -1.496  12.338  21.032  0.00  0.00    +0.000 A 
ATOM     13  C   UNL     1      -0.608  11.287  20.760  0.00  0.00    +0.000 A 
ATOM     14  C   UNL     1       0.039  11.176  19.411  0.00  0.00    +0.000 C 
ENDROOT
BRANCH   1  15
ATOM     15  C   UNL     1       3.233   6.342  18.770  0.00  0.00    +0.000 C 
BRANCH  15  20
ATOM     16  C   UNL     1       4.533   1.993  20.258  0.00  0.00    +0.000 C 
ATOM     17  N   UNL     1       3.650   2.699  19.335  0.00  0.00    +0.000 NA
ATOM     18  C   UNL     1       4.425   3.468  18.341  0.00  0.00    +0.000 C 
ATOM     19  C   UNL     1       3.526   4.311  17.406  0.00  0.00    +0.000 C 
ATOM     20  N   UNL     1       2.569   5.205  18.102  0.00  0.00    +0.000 NA
ATOM     21  C   UNL     1       1.820   4.379  19.077  0.00  0.00    +0.000 C 
ATOM     22  C   UNL     1       2.713   3.578  20.056  0.00  0.00    +0.000 C 
ENDBRANCH  15  20
ENDBRANCH   1  15
TORSDOF 2
ENDMDL
MODEL 2
REMARK VINA RESULT:      -7.7      1.849      2.593
REMARK  Name = 
REMARK  3 active torsions:
REMARK  status: ('A' for Active; 'I' for Inactive)
REMARK    1  A    between atoms: C_1  and  N_2
REMARK    2  A    between atoms: N_5  and  C_6
REMARK    3  A    between atoms: C_6  and  C_7
REMARK                            x       y       z     vdW  Elec       q    Type
REMARK                         _______ _______ _______ _____ _____    ______ ____
ROOT
ATOM      1  C   UNL     1       2.707   7.054  18.404  0.00  0.00    +0.000 A 
ATOM      2  C   UNL     1       2.518   8.065  17.453  0.00  0.00    +0.000 A 
ATOM      3  C   UNL     1       1.884   9.259  17.804  0.00  0.00    +0.000 A 
ATOM      4  C   UNL     1       1.403   9.448  19.107  0.00  0.00    +0.000 A 
ATOM      5  C   UNL     1       1.534   8.422  20.041  0.00  0.00    +0.000 A 
ATOM      6  C   UNL     1       2.193   7.236  19.697  0.00  0.00    +0.000 A 
ATOM      7  O   UNL     1       1.047   8.499  21.324  0.00  0.00    +0.000 OA
ATOM      8  C   UNL     1       0.277   9.585  21.667  0.00  0.00    +0.000 A 
ATOM      9  C   UNL     1      -0.358   9.531  22.910  0.00  0.00    +0.000 A 
ATOM     10  C   UNL     1      -1.146  10.599  23.340  0.00  0.00    +0.000 A 
ATOM     11  C   UNL     1      -1.291  11.728  22.536  0.00  0.00    +0.000 A 
ATOM     12  C   UNL     1      -0.660  11.781  21.292  0.00  0.00    +0.000 A 
ATOM     13  C   UNL     1       0.119  10.703  20.847  0.00  0.00    +0.000 A 
ATOM     14  C   UNL     1       0.791  10.760  19.507  0.00  0.00    +0.000 C 
ENDROOT
BRANCH   1  15
ATOM     15  C   UNL     1       3.468   5.791  18.049  0.00  0.00    +0.000 C 
BRANCH  15  20
ATOM     16  C   UNL     1       6.033   4.036  14.422  0.00  0.00    +0.000 C 
ATOM     17  N   UNL     1       6.138   4.733  15.700  0.00  0.00    +0.000 NA
ATOM     18  C   UNL     1       5.639   3.892  16.806  0.00  0.00    +0.000 C 
ATOM     19  C   UNL     1       5.638   4.631  18.165  0.00  0.00    +0.000 C 
ATOM     20  N   UNL     1       4.933   5.935  18.164  0.00  0.00    +0.000 NA
ATOM     21  C   UNL     1       5.479   6.733  17.042  0.00  0.00    +0.000 C 
ATOM     22  C   UNL     1       5.426   6.022  15.667  0.00  0.00    +0.000 C 
ENDBRANCH  15  20
ENDBRANCH   1  15
TORSDOF 2
ENDMDL
MODEL 3
REMARK VINA RESULT:      -7.6      1.481      1.914
REMARK  Name = 
REMARK  3 active torsions:
REMARK  status: ('A' for Active; 'I' for Inactive)
REMARK    1  A    between atoms: C_1  and  N_2
REMARK    2  A    between atoms: N_5  and  C_6
REMARK    3  A    between atoms: C_6  and  C_7
REMARK                            x       y       z     vdW  Elec       q    Type
REMARK                         _______ _______ _______ _____ _____    ______ ____
ROOT
ATOM      1  C   UNL     1       2.405   7.514  18.942  0.00  0.00    +0.000 A 
ATOM      2  C   UNL     1       2.041   8.266  17.817  0.00  0.00    +0.000 A 
ATOM      3  C   UNL     1       1.242   9.403  17.952  0.00  0.00    +0.000 A 
ATOM      4  C   UNL     1       0.770   9.790  19.213  0.00  0.00    +0.000 A 
ATOM      5  C   UNL     1       1.078   9.013  20.328  0.00  0.00    +0.000 A 
ATOM      6  C   UNL     1       1.901   7.888  20.197  0.00  0.00    +0.000 A 
ATOM      7  O   UNL     1       0.616   9.287  21.593  0.00  0.00    +0.000 OA
ATOM      8  C   UNL     1      -0.302  10.300  21.749  0.00  0.00    +0.000 A 
ATOM      9  C   UNL     1      -0.891  10.417  23.010  0.00  0.00    +0.000 A 
ATOM     10  C   UNL     1      -1.821  11.427  23.257  0.00  0.00    +0.000 A 
ATOM     11  C   UNL     1      -2.155  12.329  22.249  0.00  0.00    +0.000 A 
ATOM     12  C   UNL     1      -1.569  12.210  20.986  0.00  0.00    +0.000 A 
ATOM     13  C   UNL     1      -0.647  11.185  20.729  0.00  0.00    +0.000 A 
ATOM     14  C   UNL     1      -0.024  11.056  19.370  0.00  0.00    +0.000 C 
ENDROOT
BRANCH   1  15
ATOM     15  C   UNL     1       3.340   6.328  18.811  0.00  0.00    +0.000 C 
BRANCH  15  20
ATOM     16  C   UNL     1       7.705   4.620  17.887  0.00  0.00    +0.000 C 
ATOM     17  N   UNL     1       6.410   4.914  17.281  0.00  0.00    +0.000 NA
ATOM     18  C   UNL     1       6.113   6.359  17.336  0.00  0.00    +0.000 C 
ATOM     19  C   UNL     1       4.705   6.700  16.794  0.00  0.00    +0.000 C 
ATOM     20  N   UNL     1       3.597   5.933  17.412  0.00  0.00    +0.000 NA
ATOM     21  C   UNL     1       3.948   4.496  17.321  0.00  0.00    +0.000 C 
ATOM     22  C   UNL     1       5.332   4.138  17.917  0.00  0.00    +0.000 C 
ENDBRANCH  15  20
ENDBRANCH   1  15
TORSDOF 2
ENDMDL
MODEL 4
REMARK VINA RESULT:      -7.6      0.845      1.371
REMARK  Name = 
REMARK  3 active torsions:
REMARK  status: ('A' for Active; 'I' for Inactive)
REMARK    1  A    between atoms: C_1  and  N_2
REMARK    2  A    between atoms: N_5  and  C_6
REMARK    3  A    between atoms: C_6  and  C_7
REMARK                            x       y       z     vdW  Elec       q    Type
REMARK                         _______ _______ _______ _____ _____    ______ ____
ROOT
ATOM      1  C   UNL     1       2.319   7.575  18.700  0.00  0.00    +0.000 A 
ATOM      2  C   UNL     1       2.253   8.567  17.712  0.00  0.00    +0.000 A 
ATOM      3  C   UNL     1       1.674   9.807  17.990  0.00  0.00    +0.000 A 
ATOM      4  C   UNL     1       1.125  10.065  19.253  0.00  0.00    +0.000 A 
ATOM      5  C   UNL     1       1.133   9.062  20.221  0.00  0.00    +0.000 A 
ATOM      6  C   UNL     1       1.737   7.828  19.952  0.00  0.00    +0.000 A 
ATOM      7  O   UNL     1       0.571   9.207  21.467  0.00  0.00    +0.000 OA
ATOM      8  C   UNL     1      -0.150  10.349  21.730  0.00  0.00    +0.000 A 
ATOM      9  C   UNL     1      -0.863  10.371  22.930  0.00  0.00    +0.000 A 
ATOM     10  C   UNL     1      -1.609  11.498  23.280  0.00  0.00    +0.000 A 
ATOM     11  C   UNL     1      -1.632  12.608  22.439  0.00  0.00    +0.000 A 
ATOM     12  C   UNL     1      -0.921  12.585  21.237  0.00  0.00    +0.000 A 
ATOM     13  C   UNL     1      -0.185  11.448  20.873  0.00  0.00    +0.000 A 
ATOM     14  C   UNL     1       0.573  11.423  19.578  0.00  0.00    +0.000 C 
ENDROOT
BRANCH   1  15
ATOM     15  C   UNL     1       3.020   6.258  18.429  0.00  0.00    +0.000 C 
BRANCH  15  20
ATOM     16  C   UNL     1       3.595   1.516  18.424  0.00  0.00    +0.000 C 
ATOM     17  N   UNL     1       3.850   2.726  19.200  0.00  0.00    +0.000 NA
ATOM     18  C   UNL     1       2.588   3.377  19.602  0.00  0.00    +0.000 C 
ATOM     19  C   UNL     1       2.816   4.717  20.340  0.00  0.00    +0.000 C 
ATOM     20  N   UNL     1       3.677   5.686  19.621  0.00  0.00    +0.000 NA
ATOM     21  C   UNL     1       4.926   4.979  19.251  0.00  0.00    +0.000 C 
ATOM     22  C   UNL     1       4.707   3.667  18.459  0.00  0.00    +0.000 C 
ENDBRANCH  15  20
ENDBRANCH   1  15
TORSDOF 2
ENDMDL
MODEL 5
REMARK VINA RESULT:      -7.5      0.864      1.096
REMARK  Name = 
REMARK  3 active torsions:
REMARK  status: ('A' for Active; 'I' for Inactive)
REMARK    1  A    between atoms: C_1  and  N_2
REMARK    2  A    between atoms: N_5  and  C_6
REMARK    3  A    between atoms: C_6  and  C_7
REMARK                            x       y       z     vdW  Elec       q    Type
REMARK                         _______ _______ _______ _____ _____    ______ ____
ROOT
ATOM      1  C   UNL     1       2.649   7.091  18.942  0.00  0.00    +0.000 A 
ATOM      2  C   UNL     1       2.365   7.860  17.806  0.00  0.00    +0.000 A 
ATOM      3  C   UNL     1       1.618   9.036  17.914  0.00  0.00    +0.000 A 
ATOM      4  C   UNL     1       1.119   9.444  19.158  0.00  0.00    +0.000 A 
ATOM      5  C   UNL     1       1.347   8.652  20.282  0.00  0.00    +0.000 A 
ATOM      6  C   UNL     1       2.118   7.488  20.179  0.00  0.00    +0.000 A 
ATOM      7  O   UNL     1       0.852   8.947  21.530  0.00  0.00    +0.000 OA
ATOM      8  C   UNL     1      -0.020  10.004  21.654  0.00  0.00    +0.000 A 
ATOM      9  C   UNL     1      -0.649  10.149  22.893  0.00  0.00    +0.000 A 
ATOM     10  C   UNL     1      -1.537  11.203  23.107  0.00  0.00    +0.000 A 
ATOM     11  C   UNL     1      -1.789  12.121  22.090  0.00  0.00    +0.000 A 
ATOM     12  C   UNL     1      -1.163  11.974  20.850  0.00  0.00    +0.000 A 
ATOM     13  C   UNL     1      -0.284  10.906  20.624  0.00  0.00    +0.000 A 
ATOM     14  C   UNL     1       0.382  10.747  19.289  0.00  0.00    +0.000 C 
ENDROOT
BRANCH   1  15
ATOM     15  C   UNL     1       3.529   5.860  18.842  0.00  0.00    +0.000 C 
BRANCH  15  20
ATOM     16  C   UNL     1       1.767   2.399  21.624  0.00  0.00    +0.000 C 
ATOM     17  N   UNL     1       1.916   2.823  20.236  0.00  0.00    +0.000 NA
ATOM     18  C   UNL     1       3.340   2.892  19.851  0.00  0.00    +0.000 C 
ATOM     19  C   UNL     1       3.545   3.433  18.417  0.00  0.00    +0.000 C 
ATOM     20  N   UNL     1       2.885   4.732  18.141  0.00  0.00    +0.000 NA
ATOM     21  C   UNL     1       1.464   4.599  18.539  0.00  0.00    +0.000 C 
ATOM     22  C   UNL     1       1.251   4.115  19.995  0.00  0.00    +0.000 C 
ENDBRANCH  15  20
ENDBRANCH   1  15
TORSDOF 2
ENDMDL
MODEL 6
REMARK VINA RESULT:      -7.4      1.067      1.322
REMARK  Name = 
REMARK  3 active torsions:
REMARK  status: ('A' for Active; 'I' for Inactive)
REMARK    1  A    between atoms: C_1  and  N_2
REMARK    2  A    between atoms: N_5  and  C_6
REMARK    3  A    between atoms: C_6  and  C_7
REMARK                            x       y       z     vdW  Elec       q    Type
REMARK                         _______ _______ _______ _____ _____    ______ ____
ROOT
ATOM      1  C   UNL     1       2.134   7.104  19.679  0.00  0.00    +0.000 A 
ATOM      2  C   UNL     1       2.174   7.854  18.496  0.00  0.00    +0.000 A 
ATOM      3  C   UNL     1       1.649   9.148  18.459  0.00  0.00    +0.000 A 
ATOM      4  C   UNL     1       1.048   9.700  19.597  0.00  0.00    +0.000 A 
ATOM      5  C   UNL     1       0.950   8.937  20.760  0.00  0.00    +0.000 A 
ATOM      6  C   UNL     1       1.501   7.651  20.806  0.00  0.00    +0.000 A 
ATOM      7  O   UNL     1       0.333   9.378  21.906  0.00  0.00    +0.000 OA
ATOM      8  C   UNL     1      -0.339  10.578  21.867  0.00  0.00    +0.000 A 
ATOM      9  C   UNL     1      -1.113  10.895  22.985  0.00  0.00    +0.000 A 
ATOM     10  C   UNL     1      -1.814  12.101  23.032  0.00  0.00    +0.000 A 
ATOM     11  C   UNL     1      -1.732  12.997  21.968  0.00  0.00    +0.000 A 
ATOM     12  C   UNL     1      -0.961  12.679  20.848  0.00  0.00    +0.000 A 
ATOM     13  C   UNL     1      -0.269  11.461  20.789  0.00  0.00    +0.000 A 
ATOM     14  C   UNL     1       0.553  11.119  19.581  0.00  0.00    +0.000 C 
ENDROOT
BRANCH   1  15
ATOM     15  C   UNL     1       2.776   5.732  19.748  0.00  0.00    +0.000 C 
BRANCH  15  20
ATOM     16  C   UNL     1       3.784   1.287  18.319  0.00  0.00    +0.000 C 
ATOM     17  N   UNL     1       2.856   2.076  19.124  0.00  0.00    +0.000 NA
ATOM     18  C   UNL     1       2.108   3.034  18.286  0.00  0.00    +0.000 C 
ATOM     19  C   UNL     1       1.187   3.959  19.116  0.00  0.00    +0.000 C 
ATOM     20  N   UNL     1       1.860   4.677  20.224  0.00  0.00    +0.000 NA
ATOM     21  C   UNL     1       2.586   3.667  21.030  0.00  0.00    +0.000 C 
ATOM     22  C   UNL     1       3.556   2.777  20.215  0.00  0.00    +0.000 C 
ENDBRANCH  15  20
ENDBRANCH   1  15
TORSDOF 2
ENDMDL
MODEL 7
REMARK VINA RESULT:      -7.3      2.944      8.219
REMARK  Name = 
REMARK  3 active torsions:
REMARK  status: ('A' for Active; 'I' for Inactive)
REMARK    1  A    between atoms: C_1  and  N_2
REMARK    2  A    between atoms: N_5  and  C_6
REMARK    3  A    between atoms: C_6  and  C_7
REMARK                            x       y       z     vdW  Elec       q    Type
REMARK                         _______ _______ _______ _____ _____    ______ ____
ROOT
ATOM      1  C   UNL     1       1.557   6.808  20.357  0.00  0.00    +0.000 A 
ATOM      2  C   UNL     1       1.545   5.470  20.773  0.00  0.00    +0.000 A 
ATOM      3  C   UNL     1       2.372   4.529  20.157  0.00  0.00    +0.000 A 
ATOM      4  C   UNL     1       3.204   4.906  19.094  0.00  0.00    +0.000 A 
ATOM      5  C   UNL     1       3.176   6.221  18.636  0.00  0.00    +0.000 A 
ATOM      6  C   UNL     1       2.367   7.172  19.270  0.00  0.00    +0.000 A 
ATOM      7  O   UNL     1       3.917   6.667  17.568  0.00  0.00    +0.000 OA
ATOM      8  C   UNL     1       4.622   5.744  16.830  0.00  0.00    +0.000 A 
ATOM      9  C   UNL     1       5.200   6.205  15.645  0.00  0.00    +0.000 A 
ATOM     10  C   UNL     1       5.945   5.336  14.846  0.00  0.00    +0.000 A 
ATOM     11  C   UNL     1       6.123   4.010  15.235  0.00  0.00    +0.000 A 
ATOM     12  C   UNL     1       5.543   3.549  16.419  0.00  0.00    +0.000 A 
ATOM     13  C   UNL     1       4.779   4.413  17.216  0.00  0.00    +0.000 A 
ATOM     14  C   UNL     1       4.150   3.912  18.483  0.00  0.00    +0.000 C 
ENDROOT
BRANCH   1  15
ATOM     15  C   UNL     1       0.722   7.850  21.076  0.00  0.00    +0.000 C 
BRANCH  15  20
ATOM     16  C   UNL     1      -1.771  11.318  23.215  0.00  0.00    +0.000 C 
ATOM     17  N   UNL     1      -0.434  10.944  22.768  0.00  0.00    +0.000 NA
ATOM     18  C   UNL     1      -0.390  10.779  21.301  0.00  0.00    +0.000 C 
ATOM     19  C   UNL     1       0.986  10.284  20.797  0.00  0.00    +0.000 C 
ATOM     20  N   UNL     1       1.486   9.054  21.458  0.00  0.00    +0.000 NA
ATOM     21  C   UNL     1       1.425   9.282  22.921  0.00  0.00    +0.000 C 
ATOM     22  C   UNL     1       0.033   9.720  23.441  0.00  0.00    +0.000 C 
ENDBRANCH  15  20
ENDBRANCH   1  15
TORSDOF 2
ENDMDL
MODEL 8
REMARK VINA RESULT:      -7.2      2.107      3.225
REMARK  Name = 
REMARK  3 active torsions:
REMARK  status: ('A' for Active; 'I' for Inactive)
REMARK    1  A    between atoms: C_1  and  N_2
REMARK    2  A    between atoms: N_5  and  C_6
REMARK    3  A    between atoms: C_6  and  C_7
REMARK                            x       y       z     vdW  Elec       q    Type
REMARK                         _______ _______ _______ _____ _____    ______ ____
ROOT
ATOM      1  C   UNL     1       2.868   6.770  18.668  0.00  0.00    +0.000 A 
ATOM      2  C   UNL     1       2.527   6.003  19.790  0.00  0.00    +0.000 A 
ATOM      3  C   UNL     1       1.693   6.526  20.780  0.00  0.00    +0.000 A 
ATOM      4  C   UNL     1       1.211   7.837  20.679  0.00  0.00    +0.000 A 
ATOM      5  C   UNL     1       1.595   8.627  19.596  0.00  0.00    +0.000 A 
ATOM      6  C   UNL     1       2.409   8.094  18.589  0.00  0.00    +0.000 A 
ATOM      7  O   UNL     1       1.213   9.938  19.442  0.00  0.00    +0.000 OA
ATOM      8  C   UNL     1       0.527  10.545  20.468  0.00  0.00    +0.000 A 
ATOM      9  C   UNL     1       0.330  11.923  20.356  0.00  0.00    +0.000 A 
ATOM     10  C   UNL     1      -0.369  12.612  21.347  0.00  0.00    +0.000 A 
ATOM     11  C   UNL     1      -0.884  11.925  22.445  0.00  0.00    +0.000 A 
ATOM     12  C   UNL     1      -0.684  10.548  22.559  0.00  0.00    +0.000 A 
ATOM     13  C   UNL     1       0.033   9.853  21.574  0.00  0.00    +0.000 A 
ATOM     14  C   UNL     1       0.252   8.374  21.703  0.00  0.00    +0.000 C 
ENDROOT
BRANCH   1  15
ATOM     15  C   UNL     1       3.705   6.179  17.551  0.00  0.00    +0.000 C 
BRANCH  15  20
ATOM     16  C   UNL     1       7.091   4.865  14.448  0.00  0.00    +0.000 C 
ATOM     17  N   UNL     1       6.567   4.611  15.786  0.00  0.00    +0.000 NA
ATOM     18  C   UNL     1       5.186   4.094  15.727  0.00  0.00    +0.000 C 
ATOM     19  C   UNL     1       4.558   3.907  17.128  0.00  0.00    +0.000 C 
ATOM     20  N   UNL     1       4.612   5.105  18.000  0.00  0.00    +0.000 NA
ATOM     21  C   UNL     1       6.018   5.571  18.025  0.00  0.00    +0.000 C 
ATOM     22  C   UNL     1       6.634   5.819  16.626  0.00  0.00    +0.000 C 
ENDBRANCH  15  20
ENDBRANCH   1  15
TORSDOF 2
ENDMDL
MODEL 9
REMARK VINA RESULT:      -7.0      2.052      3.348
REMARK  Name = 
REMARK  3 active torsions:
REMARK  status: ('A' for Active; 'I' for Inactive)
REMARK    1  A    between atoms: C_1  and  N_2
REMARK    2  A    between atoms: N_5  and  C_6
REMARK    3  A    between atoms: C_6  and  C_7
REMARK                            x       y       z     vdW  Elec       q    Type
REMARK                         _______ _______ _______ _____ _____    ______ ____
ROOT
ATOM      1  C   UNL     1       2.500   7.041  18.718  0.00  0.00    +0.000 A 
ATOM      2  C   UNL     1       2.173   6.752  20.050  0.00  0.00    +0.000 A 
ATOM      3  C   UNL     1       1.463   7.674  20.822  0.00  0.00    +0.000 A 
ATOM      4  C   UNL     1       1.094   8.913  20.282  0.00  0.00    +0.000 A 
ATOM      5  C   UNL     1       1.469   9.231  18.978  0.00  0.00    +0.000 A 
ATOM      6  C   UNL     1       2.157   8.297  18.194  0.00  0.00    +0.000 A 
ATOM      7  O   UNL     1       1.195  10.441  18.385  0.00  0.00    +0.000 OA
ATOM      8  C   UNL     1       0.643  11.437  19.156  0.00  0.00    +0.000 A 
ATOM      9  C   UNL     1       0.563  12.704  18.573  0.00  0.00    +0.000 A 
ATOM     10  C   UNL     1       0.001  13.766  19.282  0.00  0.00    +0.000 A 
ATOM     11  C   UNL     1      -0.492  13.563  20.569  0.00  0.00    +0.000 A 
ATOM     12  C   UNL     1      -0.409  12.298  21.154  0.00  0.00    +0.000 A 
ATOM     13  C   UNL     1       0.170  11.231  20.452  0.00  0.00    +0.000 A 
ATOM     14  C   UNL     1       0.264   9.874  21.085  0.00  0.00    +0.000 C 
ENDROOT
BRANCH   1  15
ATOM     15  C   UNL     1       3.197   6.011  17.851  0.00  0.00    +0.000 C 
BRANCH  15  20
ATOM     16  C   UNL     1       5.814   4.208  14.284  0.00  0.00    +0.000 C 
ATOM     17  N   UNL     1       5.896   4.768  15.629  0.00  0.00    +0.000 NA
ATOM     18  C   UNL     1       5.181   3.920  16.603  0.00  0.00    +0.000 C 
ATOM     19  C   UNL     1       5.159   4.531  18.024  0.00  0.00    +0.000 C 
ATOM     20  N   UNL     1       4.649   5.921  18.097  0.00  0.00    +0.000 NA
ATOM     21  C   UNL     1       5.407   6.722  17.106  0.00  0.00    +0.000 C 
ATOM     22  C   UNL     1       5.382   6.148  15.668  0.00  0.00    +0.000 C 
ENDBRANCH  15  20
ENDBRANCH   1  15
TORSDOF 2
ENDMDL
