MODEL 1
REMARK VINA RESULT:      -8.2      0.000      0.000
REMARK  Name = 
REMARK  8 active torsions:
REMARK  status: ('A' for Active; 'I' for Inactive)
REMARK    1  A    between atoms: C_1  and  C_2
REMARK    2  A    between atoms: C_4  and  C_5
REMARK    3  A    between atoms: N_6  and  N_7
REMARK    4  A    between atoms: C_8  and  C_10
REMARK    5  A    between atoms: C_15  and  S_16
REMARK    6  A    between atoms: S_16  and  N_17
REMARK    7  A    between atoms: C_22  and  C_23
REMARK    8  A    between atoms: C_30  and  C_31
REMARK                            x       y       z     vdW  Elec       q    Type
REMARK                         _______ _______ _______ _____ _____    ______ ____
ROOT
ATOM      1  C   UNL     1       2.285   7.131  19.090  0.00  0.00    +0.000 A 
ATOM      2  N   UNL     1       2.992   7.927  18.218  0.00  0.00    +0.000 N 
ATOM      3  C   UNL     1       4.093   7.300  17.722  0.00  0.00    +0.000 A 
ATOM      4  C   UNL     1       5.150   7.895  17.026  0.00  0.00    +0.000 A 
ATOM      5  C   UNL     1       6.127   7.067  16.511  0.00  0.00    +0.000 A 
ATOM      6  C   UNL     1       6.011   5.690  16.640  0.00  0.00    +0.000 A 
ATOM      7  C   UNL     1       4.946   5.095  17.380  0.00  0.00    +0.000 A 
ATOM      8  C   UNL     1       3.973   5.944  18.007  0.00  0.00    +0.000 A 
ATOM      9  C   UNL     1       2.814   5.825  18.927  0.00  0.00    +0.000 A 
ATOM     10  H   UNL     1       2.844   8.911  18.059  0.00  0.00    +0.000 HD
ENDROOT
BRANCH   9  11
ATOM     11  C   UNL     1       2.264   4.623  19.613  0.00  0.00    +0.000 A 
ATOM     12  C   UNL     1       2.482   4.392  20.989  0.00  0.00    +0.000 A 
ATOM     13  C   UNL     1       1.936   3.289  21.665  0.00  0.00    +0.000 A 
ATOM     14  C   UNL     1       1.124   2.396  20.981  0.00  0.00    +0.000 A 
ATOM     15  C   UNL     1       0.914   2.592  19.624  0.00  0.00    +0.000 A 
ATOM     16  F   UNL     1       0.141   1.722  18.957  0.00  0.00    +0.000 F 
ATOM     17  C   UNL     1       1.485   3.675  18.936  0.00  0.00    +0.000 A 
ENDBRANCH   9  11
BRANCH   1  19
ATOM     18  N   UNL     1       1.044   9.092  19.723  0.00  0.00    +0.000 N 
ATOM     19  C   UNL     1       1.285   7.736  19.984  0.00  0.00    +0.000 C 
ATOM     20  O   UNL     1       0.715   7.131  20.880  0.00  0.00    +0.000 OA
ATOM     21  H   UNL     1       1.191   9.354  18.756  0.00  0.00    +0.000 HD
BRANCH  18  27
ATOM     22  C   UNL     1      -2.154  12.854  22.570  0.00  0.00    +0.000 C 
ATOM     23  C   UNL     1      -1.339  11.828  21.836  0.00  0.00    +0.000 A 
ATOM     24  C   UNL     1      -1.452  11.651  20.471  0.00  0.00    +0.000 A 
ATOM     25  C   UNL     1      -0.658  10.712  19.786  0.00  0.00    +0.000 A 
ATOM     26  C   UNL     1      -0.835  10.643  18.287  0.00  0.00    +0.000 C 
ATOM     27  N   UNL     1       0.269   9.935  20.459  0.00  0.00    +0.000 N 
ATOM     28  C   UNL     1       0.436  10.142  21.815  0.00  0.00    +0.000 A 
ATOM     29  C   UNL     1       1.546   9.551  22.649  0.00  0.00    +0.000 C 
ATOM     30  C   UNL     1      -0.402  11.055  22.498  0.00  0.00    +0.000 A 
ENDBRANCH  18  27
ENDBRANCH   1  19
BRANCH   6  31
ATOM     31  S   UNL     1       7.187   4.739  15.686  0.00  0.00    +0.000 S 
ATOM     32  O   UNL     1       7.626   5.521  14.573  0.00  0.00    +0.000 OA
ATOM     33  O   UNL     1       8.117   4.108  16.586  0.00  0.00    +0.000 OA
BRANCH  31  34
ATOM     34  N   UNL     1       6.241   3.497  15.063  0.00  0.00    +0.000 NA
ATOM     35  H   UNL     1       6.626   2.598  15.362  0.00  0.00    +0.000 HD
ATOM     36  H   UNL     1       5.269   3.620  15.345  0.00  0.00    +0.000 HD
ENDBRANCH  31  34
ENDBRANCH   6  31
TORSDOF 5
ENDMDL
MODEL 2
REMARK VINA RESULT:      -8.2      0.725      1.122
REMARK  Name = 
REMARK  8 active torsions:
REMARK  status: ('A' for Active; 'I' for Inactive)
REMARK    1  A    between atoms: C_1  and  C_2
REMARK    2  A    between atoms: C_4  and  C_5
REMARK    3  A    between atoms: N_6  and  N_7
REMARK    4  A    between atoms: C_8  and  C_10
REMARK    5  A    between atoms: C_15  and  S_16
REMARK    6  A    between atoms: S_16  and  N_17
REMARK    7  A    between atoms: C_22  and  C_23
REMARK    8  A    between atoms: C_30  and  C_31
REMARK                            x       y       z     vdW  Elec       q    Type
REMARK                         _______ _______ _______ _____ _____    ______ ____
ROOT
ATOM      1  C   UNL     1       2.284   7.112  19.011  0.00  0.00    +0.000 A 
ATOM      2  N   UNL     1       3.116   7.942  18.296  0.00  0.00    +0.000 N 
ATOM      3  C   UNL     1       4.190   7.281  17.786  0.00  0.00    +0.000 A 
ATOM      4  C   UNL     1       5.342   7.856  17.238  0.00  0.00    +0.000 A 
ATOM      5  C   UNL     1       6.276   7.012  16.674  0.00  0.00    +0.000 A 
ATOM      6  C   UNL     1       6.031   5.647  16.609  0.00  0.00    +0.000 A 
ATOM      7  C   UNL     1       4.869   5.066  17.200  0.00  0.00    +0.000 A 
ATOM      8  C   UNL     1       3.932   5.918  17.878  0.00  0.00    +0.000 A 
ATOM      9  C   UNL     1       2.705   5.793  18.704  0.00  0.00    +0.000 A 
ATOM     10  H   UNL     1       3.067   8.947  18.264  0.00  0.00    +0.000 HD
ENDROOT
BRANCH   9  11
ATOM     11  C   UNL     1       2.006   4.571  19.190  0.00  0.00    +0.000 A 
ATOM     12  C   UNL     1       1.327   3.706  18.304  0.00  0.00    +0.000 A 
ATOM     13  C   UNL     1       0.699   2.527  18.735  0.00  0.00    +0.000 A 
ATOM     14  C   UNL     1       0.761   2.162  20.072  0.00  0.00    +0.000 A 
ATOM     15  C   UNL     1       1.404   3.009  20.963  0.00  0.00    +0.000 A 
ATOM     16  F   UNL     1       1.454   2.666  22.258  0.00  0.00    +0.000 F 
ATOM     17  C   UNL     1       2.005   4.206  20.543  0.00  0.00    +0.000 A 
ENDBRANCH   9  11
BRANCH   1  19
ATOM     18  N   UNL     1       1.049   9.056  19.705  0.00  0.00    +0.000 N 
ATOM     19  C   UNL     1       1.279   7.690  19.919  0.00  0.00    +0.000 C 
ATOM     20  O   UNL     1       0.699   7.056  20.789  0.00  0.00    +0.000 OA
ATOM     21  H   UNL     1       1.205   9.352  18.750  0.00  0.00    +0.000 HD
BRANCH  18  27
ATOM     22  C   UNL     1      -2.156  12.729  22.659  0.00  0.00    +0.000 C 
ATOM     23  C   UNL     1      -1.339  11.726  21.896  0.00  0.00    +0.000 A 
ATOM     24  C   UNL     1      -1.458  11.581  20.528  0.00  0.00    +0.000 A 
ATOM     25  C   UNL     1      -0.663  10.664  19.816  0.00  0.00    +0.000 A 
ATOM     26  C   UNL     1      -0.847  10.630  18.317  0.00  0.00    +0.000 C 
ATOM     27  N   UNL     1       0.272   9.876  20.465  0.00  0.00    +0.000 N 
ATOM     28  C   UNL     1       0.446  10.052  21.826  0.00  0.00    +0.000 A 
ATOM     29  C   UNL     1       1.564   9.447  22.639  0.00  0.00    +0.000 C 
ATOM     30  C   UNL     1      -0.394  10.943  22.535  0.00  0.00    +0.000 A 
ENDBRANCH  18  27
ENDBRANCH   1  19
BRANCH   6  31
ATOM     31  S   UNL     1       7.184   4.718  15.605  0.00  0.00    +0.000 S 
ATOM     32  O   UNL     1       7.597   5.526  14.501  0.00  0.00    +0.000 OA
ATOM     33  O   UNL     1       8.134   4.066  16.469  0.00  0.00    +0.000 OA
BRANCH  31  34
ATOM     34  N   UNL     1       6.222   3.492  14.976  0.00  0.00    +0.000 NA
ATOM     35  H   UNL     1       6.804   2.674  14.782  0.00  0.00    +0.000 HD
ATOM     36  H   UNL     1       5.455   3.284  15.615  0.00  0.00    +0.000 HD
ENDBRANCH  31  34
ENDBRANCH   6  31
TORSDOF 5
ENDMDL
MODEL 3
REMARK VINA RESULT:      -8.1      5.320      9.137
REMARK  Name = 
REMARK  8 active torsions:
REMARK  status: ('A' for Active; 'I' for Inactive)
REMARK    1  A    between atoms: C_1  and  C_2
REMARK    2  A    between atoms: C_4  and  C_5
REMARK    3  A    between atoms: N_6  and  N_7
REMARK    4  A    between atoms: C_8  and  C_10
REMARK    5  A    between atoms: C_15  and  S_16
REMARK    6  A    between atoms: S_16  and  N_17
REMARK    7  A    between atoms: C_22  and  C_23
REMARK    8  A    between atoms: C_30  and  C_31
REMARK                            x       y       z     vdW  Elec       q    Type
REMARK                         _______ _______ _______ _____ _____    ______ ____
ROOT
ATOM      1  C   UNL     1       0.804  11.492  18.752  0.00  0.00    +0.000 A 
ATOM      2  N   UNL     1       2.020  12.130  18.828  0.00  0.00    +0.000 N 
ATOM      3  C   UNL     1       1.915  13.470  18.613  0.00  0.00    +0.000 A 
ATOM      4  C   UNL     1       2.964  14.362  18.369  0.00  0.00    +0.000 A 
ATOM      5  C   UNL     1       2.659  15.704  18.283  0.00  0.00    +0.000 A 
ATOM      6  C   UNL     1       1.357  16.138  18.496  0.00  0.00    +0.000 A 
ATOM      7  C   UNL     1       0.289  15.217  18.711  0.00  0.00    +0.000 A 
ATOM      8  C   UNL     1       0.570  13.809  18.707  0.00  0.00    +0.000 A 
ATOM      9  C   UNL     1      -0.169  12.523  18.765  0.00  0.00    +0.000 A 
ATOM     10  H   UNL     1       2.923  11.685  18.872  0.00  0.00    +0.000 HD
ENDROOT
BRANCH   9  11
ATOM     11  C   UNL     1      -1.637  12.270  18.800  0.00  0.00    +0.000 A 
ATOM     12  C   UNL     1      -2.419  12.608  19.925  0.00  0.00    +0.000 A 
ATOM     13  C   UNL     1      -3.810  12.418  19.962  0.00  0.00    +0.000 A 
ATOM     14  C   UNL     1      -4.465  11.908  18.850  0.00  0.00    +0.000 A 
ATOM     15  C   UNL     1      -3.712  11.549  17.742  0.00  0.00    +0.000 A 
ATOM     16  F   UNL     1      -4.340  11.042  16.671  0.00  0.00    +0.000 F 
ATOM     17  C   UNL     1      -2.317  11.705  17.713  0.00  0.00    +0.000 A 
ENDBRANCH   9  11
BRANCH   1  19
ATOM     18  N   UNL     1       1.594   9.345  19.497  0.00  0.00    +0.000 N 
ATOM     19  C   UNL     1       0.756  10.028  18.605  0.00  0.00    +0.000 C 
ATOM     20  O   UNL     1       0.064   9.446  17.782  0.00  0.00    +0.000 OA
ATOM     21  H   UNL     1       1.748   9.835  20.370  0.00  0.00    +0.000 HD
BRANCH  18  27
ATOM     22  C   UNL     1       2.733   3.774  19.879  0.00  0.00    +0.000 C 
ATOM     23  C   UNL     1       2.399   5.232  19.747  0.00  0.00    +0.000 A 
ATOM     24  C   UNL     1       1.682   5.904  20.718  0.00  0.00    +0.000 A 
ATOM     25  C   UNL     1       1.405   7.279  20.602  0.00  0.00    +0.000 A 
ATOM     26  C   UNL     1       0.655   7.915  21.750  0.00  0.00    +0.000 C 
ATOM     27  N   UNL     1       1.846   8.007  19.512  0.00  0.00    +0.000 N 
ATOM     28  C   UNL     1       2.617   7.363  18.562  0.00  0.00    +0.000 A 
ATOM     29  C   UNL     1       3.361   8.049  17.442  0.00  0.00    +0.000 C 
ATOM     30  C   UNL     1       2.847   5.971  18.666  0.00  0.00    +0.000 A 
ENDBRANCH  18  27
ENDBRANCH   1  19
BRANCH   6  31
ATOM     31  S   UNL     1       1.163  17.910  18.636  0.00  0.00    +0.000 S 
ATOM     32  O   UNL     1      -0.214  18.211  18.872  0.00  0.00    +0.000 OA
ATOM     33  O   UNL     1       2.210  18.429  19.478  0.00  0.00    +0.000 OA
BRANCH  31  34
ATOM     34  N   UNL     1       1.518  18.445  17.082  0.00  0.00    +0.000 NA
ATOM     35  H   UNL     1       0.920  19.244  16.857  0.00  0.00    +0.000 HD
ATOM     36  H   UNL     1       2.510  18.665  17.005  0.00  0.00    +0.000 HD
ENDBRANCH  31  34
ENDBRANCH   6  31
TORSDOF 5
ENDMDL
MODEL 4
REMARK VINA RESULT:      -8.0      4.367      5.987
REMARK  Name = 
REMARK  8 active torsions:
REMARK  status: ('A' for Active; 'I' for Inactive)
REMARK    1  A    between atoms: C_1  and  C_2
REMARK    2  A    between atoms: C_4  and  C_5
REMARK    3  A    between atoms: N_6  and  N_7
REMARK    4  A    between atoms: C_8  and  C_10
REMARK    5  A    between atoms: C_15  and  S_16
REMARK    6  A    between atoms: S_16  and  N_17
REMARK    7  A    between atoms: C_22  and  C_23
REMARK    8  A    between atoms: C_30  and  C_31
REMARK                            x       y       z     vdW  Elec       q    Type
REMARK                         _______ _______ _______ _____ _____    ______ ____
ROOT
ATOM      1  C   UNL     1       1.357  10.835  18.792  0.00  0.00    +0.000 A 
ATOM      2  N   UNL     1       2.015  10.183  17.775  0.00  0.00    +0.000 N 
ATOM      3  C   UNL     1       2.379   8.918  18.123  0.00  0.00    +0.000 A 
ATOM      4  C   UNL     1       3.269   8.086  17.436  0.00  0.00    +0.000 A 
ATOM      5  C   UNL     1       3.424   6.794  17.894  0.00  0.00    +0.000 A 
ATOM      6  C   UNL     1       2.666   6.339  18.964  0.00  0.00    +0.000 A 
ATOM      7  C   UNL     1       1.786   7.205  19.679  0.00  0.00    +0.000 A 
ATOM      8  C   UNL     1       1.683   8.580  19.279  0.00  0.00    +0.000 A 
ATOM      9  C   UNL     1       1.038   9.833  19.744  0.00  0.00    +0.000 A 
ATOM     10  H   UNL     1       2.354  10.599  16.923  0.00  0.00    +0.000 HD
ENDROOT
BRANCH   9  11
ATOM     11  C   UNL     1       0.227  10.089  20.967  0.00  0.00    +0.000 A 
ATOM     12  C   UNL     1       0.487   9.415  22.180  0.00  0.00    +0.000 A 
ATOM     13  C   UNL     1      -0.237   9.673  23.356  0.00  0.00    +0.000 A 
ATOM     14  C   UNL     1      -1.228  10.643  23.356  0.00  0.00    +0.000 A 
ATOM     15  C   UNL     1      -1.514  11.302  22.169  0.00  0.00    +0.000 A 
ATOM     16  F   UNL     1      -2.481  12.230  22.162  0.00  0.00    +0.000 F 
ATOM     17  C   UNL     1      -0.816  11.024  20.982  0.00  0.00    +0.000 A 
ENDBRANCH   9  11
BRANCH   1  19
ATOM     18  N   UNL     1       2.121  12.991  19.539  0.00  0.00    +0.000 N 
ATOM     19  C   UNL     1       1.201  12.298  18.740  0.00  0.00    +0.000 C 
ATOM     20  O   UNL     1       0.348  12.871  18.077  0.00  0.00    +0.000 OA
ATOM     21  H   UNL     1       3.001  12.506  19.661  0.00  0.00    +0.000 HD
BRANCH  18  27
ATOM     22  C   UNL     1       2.524  18.585  20.551  0.00  0.00    +0.000 C 
ATOM     23  C   UNL     1       2.378  17.119  20.260  0.00  0.00    +0.000 A 
ATOM     24  C   UNL     1       3.152  16.486  19.307  0.00  0.00    +0.000 A 
ATOM     25  C   UNL     1       3.033  15.105  19.066  0.00  0.00    +0.000 A 
ATOM     26  C   UNL     1       3.968  14.516  18.035  0.00  0.00    +0.000 C 
ATOM     27  N   UNL     1       2.138  14.330  19.782  0.00  0.00    +0.000 N 
ATOM     28  C   UNL     1       1.399  14.936  20.781  0.00  0.00    +0.000 A 
ATOM     29  C   UNL     1       0.554  14.205  21.796  0.00  0.00    +0.000 C 
ATOM     30  C   UNL     1       1.494  16.334  20.979  0.00  0.00    +0.000 A 
ENDBRANCH  18  27
ENDBRANCH   1  19
BRANCH   6  31
ATOM     31  S   UNL     1       2.761   4.578  19.264  0.00  0.00    +0.000 S 
ATOM     32  O   UNL     1       1.738   3.922  18.512  0.00  0.00    +0.000 OA
ATOM     33  O   UNL     1       4.139   4.166  19.195  0.00  0.00    +0.000 OA
BRANCH  31  34
ATOM     34  N   UNL     1       2.328   4.455  20.884  0.00  0.00    +0.000 NA
ATOM     35  H   UNL     1       3.099   4.792  21.464  0.00  0.00    +0.000 HD
ATOM     36  H   UNL     1       1.460   4.961  21.055  0.00  0.00    +0.000 HD
ENDBRANCH  31  34
ENDBRANCH   6  31
TORSDOF 5
ENDMDL
MODEL 5
REMARK VINA RESULT:      -8.0      1.187      1.516
REMARK  Name = 
REMARK  8 active torsions:
REMARK  status: ('A' for Active; 'I' for Inactive)
REMARK    1  A    between atoms: C_1  and  C_2
REMARK    2  A    between atoms: C_4  and  C_5
REMARK    3  A    between atoms: N_6  and  N_7
REMARK    4  A    between atoms: C_8  and  C_10
REMARK    5  A    between atoms: C_15  and  S_16
REMARK    6  A    between atoms: S_16  and  N_17
REMARK    7  A    between atoms: C_22  and  C_23
REMARK    8  A    between atoms: C_30  and  C_31
REMARK                            x       y       z     vdW  Elec       q    Type
REMARK                         _______ _______ _______ _____ _____    ______ ____
ROOT
ATOM      1  C   UNL     1       2.285   7.463  18.726  0.00  0.00    +0.000 A 
ATOM      2  N   UNL     1       3.088   8.157  17.850  0.00  0.00    +0.000 N 
ATOM      3  C   UNL     1       4.197   7.452  17.497  0.00  0.00    +0.000 A 
ATOM      4  C   UNL     1       5.328   7.947  16.841  0.00  0.00    +0.000 A 
ATOM      5  C   UNL     1       6.306   7.045  16.475  0.00  0.00    +0.000 A 
ATOM      6  C   UNL     1       6.123   5.688  16.707  0.00  0.00    +0.000 A 
ATOM      7  C   UNL     1       4.981   5.196  17.407  0.00  0.00    +0.000 A 
ATOM      8  C   UNL     1       3.999   6.130  17.882  0.00  0.00    +0.000 A 
ATOM      9  C   UNL     1       2.769   6.130  18.713  0.00  0.00    +0.000 A 
ATOM     10  H   UNL     1       2.995   9.128  17.600  0.00  0.00    +0.000 HD
ENDROOT
BRANCH   9  11
ATOM     11  C   UNL     1       2.119   5.011  19.450  0.00  0.00    +0.000 A 
ATOM     12  C   UNL     1       1.194   4.150  18.821  0.00  0.00    +0.000 A 
ATOM     13  C   UNL     1       0.603   3.063  19.486  0.00  0.00    +0.000 A 
ATOM     14  C   UNL     1       0.950   2.788  20.800  0.00  0.00    +0.000 A 
ATOM     15  C   UNL     1       1.840   3.635  21.444  0.00  0.00    +0.000 A 
ATOM     16  F   UNL     1       2.167   3.381  22.720  0.00  0.00    +0.000 F 
ATOM     17  C   UNL     1       2.409   4.743  20.795  0.00  0.00    +0.000 A 
ENDBRANCH   9  11
BRANCH   1  19
ATOM     18  N   UNL     1       0.789   9.343  18.854  0.00  0.00    +0.000 N 
ATOM     19  C   UNL     1       1.245   8.177  19.484  0.00  0.00    +0.000 C 
ATOM     20  O   UNL     1       0.815   7.808  20.568  0.00  0.00    +0.000 OA
ATOM     21  H   UNL     1       0.850   9.311  17.844  0.00  0.00    +0.000 HD
BRANCH  18  27
ATOM     22  C   UNL     1      -2.860  13.308  20.710  0.00  0.00    +0.000 C 
ATOM     23  C   UNL     1      -1.915  12.234  20.254  0.00  0.00    +0.000 A 
ATOM     24  C   UNL     1      -2.157  11.485  19.119  0.00  0.00    +0.000 A 
ATOM     25  C   UNL     1      -1.247  10.506  18.680  0.00  0.00    +0.000 A 
ATOM     26  C   UNL     1      -1.596   9.786  17.398  0.00  0.00    +0.000 C 
ATOM     27  N   UNL     1      -0.073  10.262  19.371  0.00  0.00    +0.000 N 
ATOM     28  C   UNL     1       0.213  11.043  20.475  0.00  0.00    +0.000 A 
ATOM     29  C   UNL     1       1.537  11.065  21.199  0.00  0.00    +0.000 C 
ATOM     30  C   UNL     1      -0.733  11.991  20.931  0.00  0.00    +0.000 A 
ENDBRANCH  18  27
ENDBRANCH   1  19
BRANCH   6  31
ATOM     31  S   UNL     1       7.328   4.619  15.931  0.00  0.00    +0.000 S 
ATOM     32  O   UNL     1       7.824   5.254  14.750  0.00  0.00    +0.000 OA
ATOM     33  O   UNL     1       8.212   4.100  16.943  0.00  0.00    +0.000 OA
BRANCH  31  34
ATOM     34  N   UNL     1       6.395   3.314  15.427  0.00  0.00    +0.000 NA
ATOM     35  H   UNL     1       5.410   3.589  15.419  0.00  0.00    +0.000 HD
ATOM     36  H   UNL     1       6.717   2.983  14.518  0.00  0.00    +0.000 HD
ENDBRANCH  31  34
ENDBRANCH   6  31
TORSDOF 5
ENDMDL
MODEL 6
REMARK VINA RESULT:      -8.0      4.366      6.112
REMARK  Name = 
REMARK  8 active torsions:
REMARK  status: ('A' for Active; 'I' for Inactive)
REMARK    1  A    between atoms: C_1  and  C_2
REMARK    2  A    between atoms: C_4  and  C_5
REMARK    3  A    between atoms: N_6  and  N_7
REMARK    4  A    between atoms: C_8  and  C_10
REMARK    5  A    between atoms: C_15  and  S_16
REMARK    6  A    between atoms: S_16  and  N_17
REMARK    7  A    between atoms: C_22  and  C_23
REMARK    8  A    between atoms: C_30  and  C_31
REMARK                            x       y       z     vdW  Elec       q    Type
REMARK                         _______ _______ _______ _____ _____    ______ ____
ROOT
ATOM      1  C   UNL     1       1.378  10.888  18.792  0.00  0.00    +0.000 A 
ATOM      2  N   UNL     1       2.041  10.223  17.787  0.00  0.00    +0.000 N 
ATOM      3  C   UNL     1       2.370   8.951  18.139  0.00  0.00    +0.000 A 
ATOM      4  C   UNL     1       3.255   8.100  17.467  0.00  0.00    +0.000 A 
ATOM      5  C   UNL     1       3.373   6.804  17.926  0.00  0.00    +0.000 A 
ATOM      6  C   UNL     1       2.585   6.365  18.981  0.00  0.00    +0.000 A 
ATOM      7  C   UNL     1       1.711   7.249  19.681  0.00  0.00    +0.000 A 
ATOM      8  C   UNL     1       1.646   8.627  19.281  0.00  0.00    +0.000 A 
ATOM      9  C   UNL     1       1.019   9.893  19.736  0.00  0.00    +0.000 A 
ATOM     10  H   UNL     1       2.404  10.633  16.942  0.00  0.00    +0.000 HD
ENDROOT
BRANCH   9  11
ATOM     11  C   UNL     1       0.191  10.164  20.944  0.00  0.00    +0.000 A 
ATOM     12  C   UNL     1       0.464   9.543  22.182  0.00  0.00    +0.000 A 
ATOM     13  C   UNL     1      -0.276   9.818  23.343  0.00  0.00    +0.000 A 
ATOM     14  C   UNL     1      -1.299  10.755  23.302  0.00  0.00    +0.000 A 
ATOM     15  C   UNL     1      -1.597  11.361  22.091  0.00  0.00    +0.000 A 
ATOM     16  F   UNL     1      -2.595  12.256  22.044  0.00  0.00    +0.000 F 
ATOM     17  C   UNL     1      -0.882  11.065  20.919  0.00  0.00    +0.000 A 
ENDBRANCH   9  11
BRANCH   1  19
ATOM     18  N   UNL     1       2.229  13.028  19.489  0.00  0.00    +0.000 N 
ATOM     19  C   UNL     1       1.255  12.354  18.740  0.00  0.00    +0.000 C 
ATOM     20  O   UNL     1       0.385  12.945  18.115  0.00  0.00    +0.000 OA
ATOM     21  H   UNL     1       3.103  12.523  19.571  0.00  0.00    +0.000 HD
BRANCH  18  27
ATOM     22  C   UNL     1       2.157  18.631  20.532  0.00  0.00    +0.000 C 
ATOM     23  C   UNL     1       2.219  17.152  20.276  0.00  0.00    +0.000 A 
ATOM     24  C   UNL     1       1.553  16.246  21.078  0.00  0.00    +0.000 A 
ATOM     25  C   UNL     1       1.589  14.865  20.808  0.00  0.00    +0.000 A 
ATOM     26  C   UNL     1       0.781  13.977  21.726  0.00  0.00    +0.000 C 
ATOM     27  N   UNL     1       2.290  14.368  19.724  0.00  0.00    +0.000 N 
ATOM     28  C   UNL     1       2.912  15.266  18.877  0.00  0.00    +0.000 A 
ATOM     29  C   UNL     1       3.520  14.916  17.541  0.00  0.00    +0.000 C 
ATOM     30  C   UNL     1       2.908  16.646  19.187  0.00  0.00    +0.000 A 
ENDBRANCH  18  27
ENDBRANCH   1  19
BRANCH   6  31
ATOM     31  S   UNL     1       2.635   4.602  19.280  0.00  0.00    +0.000 S 
ATOM     32  O   UNL     1       1.691   3.957  18.423  0.00  0.00    +0.000 OA
ATOM     33  O   UNL     1       4.010   4.179  19.351  0.00  0.00    +0.000 OA
BRANCH  31  34
ATOM     34  N   UNL     1       2.037   4.475  20.846  0.00  0.00    +0.000 NA
ATOM     35  H   UNL     1       1.493   5.312  21.066  0.00  0.00    +0.000 HD
ATOM     36  H   UNL     1       1.494   3.618  20.946  0.00  0.00    +0.000 HD
ENDBRANCH  31  34
ENDBRANCH   6  31
TORSDOF 5
ENDMDL
MODEL 7
REMARK VINA RESULT:      -7.9      5.461      9.268
REMARK  Name = 
REMARK  8 active torsions:
REMARK  status: ('A' for Active; 'I' for Inactive)
REMARK    1  A    between atoms: C_1  and  C_2
REMARK    2  A    between atoms: C_4  and  C_5
REMARK    3  A    between atoms: N_6  and  N_7
REMARK    4  A    between atoms: C_8  and  C_10
REMARK    5  A    between atoms: C_15  and  S_16
REMARK    6  A    between atoms: S_16  and  N_17
REMARK    7  A    between atoms: C_22  and  C_23
REMARK    8  A    between atoms: C_30  and  C_31
REMARK                            x       y       z     vdW  Elec       q    Type
REMARK                         _______ _______ _______ _____ _____    ______ ____
ROOT
ATOM      1  C   UNL     1       0.745  11.600  18.768  0.00  0.00    +0.000 A 
ATOM      2  N   UNL     1       1.963  12.237  18.836  0.00  0.00    +0.000 N 
ATOM      3  C   UNL     1       1.861  13.574  18.608  0.00  0.00    +0.000 A 
ATOM      4  C   UNL     1       2.912  14.460  18.353  0.00  0.00    +0.000 A 
ATOM      5  C   UNL     1       2.610  15.803  18.252  0.00  0.00    +0.000 A 
ATOM      6  C   UNL     1       1.310  16.242  18.462  0.00  0.00    +0.000 A 
ATOM      7  C   UNL     1       0.239  15.327  18.688  0.00  0.00    +0.000 A 
ATOM      8  C   UNL     1       0.516  13.918  18.699  0.00  0.00    +0.000 A 
ATOM      9  C   UNL     1      -0.226  12.634  18.772  0.00  0.00    +0.000 A 
ATOM     10  H   UNL     1       2.864  11.790  18.884  0.00  0.00    +0.000 HD
ENDROOT
BRANCH   9  11
ATOM     11  C   UNL     1      -1.694  12.385  18.811  0.00  0.00    +0.000 A 
ATOM     12  C   UNL     1      -2.369  11.773  17.733  0.00  0.00    +0.000 A 
ATOM     13  C   UNL     1      -3.744  11.489  17.767  0.00  0.00    +0.000 A 
ATOM     14  C   UNL     1      -4.480  11.785  18.905  0.00  0.00    +0.000 A 
ATOM     15  C   UNL     1      -3.840  12.406  19.968  0.00  0.00    +0.000 A 
ATOM     16  F   UNL     1      -4.552  12.707  21.065  0.00  0.00    +0.000 F 
ATOM     17  C   UNL     1      -2.473  12.723  19.926  0.00  0.00    +0.000 A 
ENDBRANCH   9  11
BRANCH   1  19
ATOM     18  N   UNL     1       1.510   9.459  19.553  0.00  0.00    +0.000 N 
ATOM     19  C   UNL     1       0.693  10.135  18.637  0.00  0.00    +0.000 C 
ATOM     20  O   UNL     1       0.014   9.547  17.807  0.00  0.00    +0.000 OA
ATOM     21  H   UNL     1       1.649   9.958  20.423  0.00  0.00    +0.000 HD
BRANCH  18  27
ATOM     22  C   UNL     1       2.624   3.889  20.019  0.00  0.00    +0.000 C 
ATOM     23  C   UNL     1       2.296   5.346  19.865  0.00  0.00    +0.000 A 
ATOM     24  C   UNL     1       1.586   6.037  20.828  0.00  0.00    +0.000 A 
ATOM     25  C   UNL     1       1.315   7.412  20.692  0.00  0.00    +0.000 A 
ATOM     26  C   UNL     1       0.574   8.070  21.833  0.00  0.00    +0.000 C 
ATOM     27  N   UNL     1       1.756   8.120  19.588  0.00  0.00    +0.000 N 
ATOM     28  C   UNL     1       2.518   7.457  18.645  0.00  0.00    +0.000 A 
ATOM     29  C   UNL     1       3.261   8.121  17.511  0.00  0.00    +0.000 C 
ATOM     30  C   UNL     1       2.742   6.066  18.771  0.00  0.00    +0.000 A 
ENDBRANCH  18  27
ENDBRANCH   1  19
BRANCH   6  31
ATOM     31  S   UNL     1       1.120  18.016  18.584  0.00  0.00    +0.000 S 
ATOM     32  O   UNL     1       1.537  18.615  17.355  0.00  0.00    +0.000 OA
ATOM     33  O   UNL     1      -0.159  18.309  19.177  0.00  0.00    +0.000 OA
BRANCH  31  34
ATOM     34  N   UNL     1       2.267  18.432  19.740  0.00  0.00    +0.000 NA
ATOM     35  H   UNL     1       3.202  18.306  19.347  0.00  0.00    +0.000 HD
ATOM     36  H   UNL     1       2.105  19.384  20.069  0.00  0.00    +0.000 HD
ENDBRANCH  31  34
ENDBRANCH   6  31
TORSDOF 5
ENDMDL
MODEL 8
REMARK VINA RESULT:      -7.9      4.241      5.920
REMARK  Name = 
REMARK  8 active torsions:
REMARK  status: ('A' for Active; 'I' for Inactive)
REMARK    1  A    between atoms: C_1  and  C_2
REMARK    2  A    between atoms: C_4  and  C_5
REMARK    3  A    between atoms: N_6  and  N_7
REMARK    4  A    between atoms: C_8  and  C_10
REMARK    5  A    between atoms: C_15  and  S_16
REMARK    6  A    between atoms: S_16  and  N_17
REMARK    7  A    between atoms: C_22  and  C_23
REMARK    8  A    between atoms: C_30  and  C_31
REMARK                            x       y       z     vdW  Elec       q    Type
REMARK                         _______ _______ _______ _____ _____    ______ ____
ROOT
ATOM      1  C   UNL     1       1.404  10.876  18.761  0.00  0.00    +0.000 A 
ATOM      2  N   UNL     1       2.026  10.210  17.731  0.00  0.00    +0.000 N 
ATOM      3  C   UNL     1       2.395   8.947  18.079  0.00  0.00    +0.000 A 
ATOM      4  C   UNL     1       3.258   8.104  17.373  0.00  0.00    +0.000 A 
ATOM      5  C   UNL     1       3.422   6.815  17.839  0.00  0.00    +0.000 A 
ATOM      6  C   UNL     1       2.696   6.376  18.939  0.00  0.00    +0.000 A 
ATOM      7  C   UNL     1       1.844   7.253  19.673  0.00  0.00    +0.000 A 
ATOM      8  C   UNL     1       1.735   8.625  19.261  0.00  0.00    +0.000 A 
ATOM      9  C   UNL     1       1.111   9.886  19.733  0.00  0.00    +0.000 A 
ATOM     10  H   UNL     1       2.339  10.616  16.863  0.00  0.00    +0.000 HD
ENDROOT
BRANCH   9  11
ATOM     11  C   UNL     1       0.341  10.158  20.979  0.00  0.00    +0.000 A 
ATOM     12  C   UNL     1      -0.752  11.051  20.993  0.00  0.00    +0.000 A 
ATOM     13  C   UNL     1      -1.518  11.289  22.146  0.00  0.00    +0.000 A 
ATOM     14  C   UNL     1      -1.225  10.608  23.319  0.00  0.00    +0.000 A 
ATOM     15  C   UNL     1      -0.142   9.742  23.333  0.00  0.00    +0.000 A 
ATOM     16  F   UNL     1       0.153   9.093  24.469  0.00  0.00    +0.000 F 
ATOM     17  C   UNL     1       0.648   9.527  22.192  0.00  0.00    +0.000 A 
ENDBRANCH   9  11
BRANCH   1  19
ATOM     18  N   UNL     1       2.153  13.033  19.520  0.00  0.00    +0.000 N 
ATOM     19  C   UNL     1       1.253  12.339  18.699  0.00  0.00    +0.000 C 
ATOM     20  O   UNL     1       0.421  12.912  18.009  0.00  0.00    +0.000 OA
ATOM     21  H   UNL     1       3.028  12.547  19.669  0.00  0.00    +0.000 HD
BRANCH  18  27
ATOM     22  C   UNL     1       2.543  18.631  20.518  0.00  0.00    +0.000 C 
ATOM     23  C   UNL     1       2.401  17.164  20.230  0.00  0.00    +0.000 A 
ATOM     24  C   UNL     1       3.196  16.526  19.297  0.00  0.00    +0.000 A 
ATOM     25  C   UNL     1       3.080  15.143  19.060  0.00  0.00    +0.000 A 
ATOM     26  C   UNL     1       4.037  14.549  18.052  0.00  0.00    +0.000 C 
ATOM     27  N   UNL     1       2.166  14.373  19.758  0.00  0.00    +0.000 N 
ATOM     28  C   UNL     1       1.406  14.985  20.737  0.00  0.00    +0.000 A 
ATOM     29  C   UNL     1       0.537  14.260  21.736  0.00  0.00    +0.000 C 
ATOM     30  C   UNL     1       1.499  16.383  20.932  0.00  0.00    +0.000 A 
ENDBRANCH  18  27
ENDBRANCH   1  19
BRANCH   6  31
ATOM     31  S   UNL     1       2.792   4.618  19.254  0.00  0.00    +0.000 S 
ATOM     32  O   UNL     1       1.880   3.938  18.388  0.00  0.00    +0.000 OA
ATOM     33  O   UNL     1       4.177   4.235  19.352  0.00  0.00    +0.000 OA
BRANCH  31  34
ATOM     34  N   UNL     1       2.171   4.487  20.811  0.00  0.00    +0.000 NA
ATOM     35  H   UNL     1       2.861   4.840  21.478  0.00  0.00    +0.000 HD
ATOM     36  H   UNL     1       1.279   4.975  20.876  0.00  0.00    +0.000 HD
ENDBRANCH  31  34
ENDBRANCH   6  31
TORSDOF 5
ENDMDL
MODEL 9
REMARK VINA RESULT:      -7.9      4.218      6.014
REMARK  Name = 
REMARK  8 active torsions:
REMARK  status: ('A' for Active; 'I' for Inactive)
REMARK    1  A    between atoms: C_1  and  C_2
REMARK    2  A    between atoms: C_4  and  C_5
REMARK    3  A    between atoms: N_6  and  N_7
REMARK    4  A    between atoms: C_8  and  C_10
REMARK    5  A    between atoms: C_15  and  S_16
REMARK    6  A    between atoms: S_16  and  N_17
REMARK    7  A    between atoms: C_22  and  C_23
REMARK    8  A    between atoms: C_30  and  C_31
REMARK                            x       y       z     vdW  Elec       q    Type
REMARK                         _______ _______ _______ _____ _____    ______ ____
ROOT
ATOM      1  C   UNL     1       1.385  10.877  18.775  0.00  0.00    +0.000 A 
ATOM      2  N   UNL     1       2.003  10.205  17.746  0.00  0.00    +0.000 N 
ATOM      3  C   UNL     1       2.350   8.936  18.092  0.00  0.00    +0.000 A 
ATOM      4  C   UNL     1       3.204   8.081  17.388  0.00  0.00    +0.000 A 
ATOM      5  C   UNL     1       3.345   6.789  17.850  0.00  0.00    +0.000 A 
ATOM      6  C   UNL     1       2.607   6.357  18.943  0.00  0.00    +0.000 A 
ATOM      7  C   UNL     1       1.764   7.245  19.675  0.00  0.00    +0.000 A 
ATOM      8  C   UNL     1       1.678   8.620  19.268  0.00  0.00    +0.000 A 
ATOM      9  C   UNL     1       1.071   9.889  19.742  0.00  0.00    +0.000 A 
ATOM     10  H   UNL     1       2.327  10.609  16.882  0.00  0.00    +0.000 HD
ENDROOT
BRANCH   9  11
ATOM     11  C   UNL     1       0.298  10.168  20.984  0.00  0.00    +0.000 A 
ATOM     12  C   UNL     1      -0.807  11.046  20.985  0.00  0.00    +0.000 A 
ATOM     13  C   UNL     1      -1.576  11.290  22.135  0.00  0.00    +0.000 A 
ATOM     14  C   UNL     1      -1.273  10.630  23.318  0.00  0.00    +0.000 A 
ATOM     15  C   UNL     1      -0.178   9.779  23.344  0.00  0.00    +0.000 A 
ATOM     16  F   UNL     1       0.126   9.151  24.489  0.00  0.00    +0.000 F 
ATOM     17  C   UNL     1       0.614   9.558  22.205  0.00  0.00    +0.000 A 
ENDBRANCH   9  11
BRANCH   1  19
ATOM     18  N   UNL     1       2.237  13.022  19.453  0.00  0.00    +0.000 N 
ATOM     19  C   UNL     1       1.257  12.343  18.717  0.00  0.00    +0.000 C 
ATOM     20  O   UNL     1       0.380  12.928  18.099  0.00  0.00    +0.000 OA
ATOM     21  H   UNL     1       3.113  12.520  19.529  0.00  0.00    +0.000 HD
BRANCH  18  27
ATOM     22  C   UNL     1       2.159  18.630  20.467  0.00  0.00    +0.000 C 
ATOM     23  C   UNL     1       2.223  17.151  20.219  0.00  0.00    +0.000 A 
ATOM     24  C   UNL     1       1.554  16.248  21.022  0.00  0.00    +0.000 A 
ATOM     25  C   UNL     1       1.591  14.866  20.760  0.00  0.00    +0.000 A 
ATOM     26  C   UNL     1       0.779  13.983  21.679  0.00  0.00    +0.000 C 
ATOM     27  N   UNL     1       2.297  14.363  19.681  0.00  0.00    +0.000 N 
ATOM     28  C   UNL     1       2.923  15.257  18.833  0.00  0.00    +0.000 A 
ATOM     29  C   UNL     1       3.536  14.900  17.501  0.00  0.00    +0.000 C 
ATOM     30  C   UNL     1       2.917  16.639  19.136  0.00  0.00    +0.000 A 
ENDBRANCH  18  27
ENDBRANCH   1  19
BRANCH   6  31
ATOM     31  S   UNL     1       2.673   4.596  19.253  0.00  0.00    +0.000 S 
ATOM     32  O   UNL     1       1.622   3.955  18.527  0.00  0.00    +0.000 OA
ATOM     33  O   UNL     1       4.041   4.157  19.157  0.00  0.00    +0.000 OA
BRANCH  31  34
ATOM     34  N   UNL     1       2.272   4.492  20.882  0.00  0.00    +0.000 NA
ATOM     35  H   UNL     1       3.123   4.569  21.443  0.00  0.00    +0.000 HD
ATOM     36  H   UNL     1       1.580   5.202  21.120  0.00  0.00    +0.000 HD
ENDBRANCH  31  34
ENDBRANCH   6  31
TORSDOF 5
ENDMDL
