MODEL 1
REMARK VINA RESULT:      -5.7      0.000      0.000
REMARK  Name = 
REMARK  28 active torsions:
REMARK  status: ('A' for Active; 'I' for Inactive)
REMARK    1  A    between atoms: C_1  and  C_2
REMARK    2  A    between atoms: C_2  and  C_3
REMARK    3  A    between atoms: C_3  and  C_4
REMARK    4  A    between atoms: C_4  and  C_5
REMARK    5  A    between atoms: C_5  and  C_6
REMARK    6  A    between atoms: C_6  and  C_7
REMARK    7  A    between atoms: C_7  and  C_8
REMARK    8  A    between atoms: C_8  and  C_9
REMARK    9  A    between atoms: C_9  and  C_10
REMARK   10  A    between atoms: C_10  and  C_11
REMARK   11  A    between atoms: C_11  and  C_12
REMARK   12  A    between atoms: C_12  and  C_13
REMARK   13  A    between atoms: C_13  and  C_14
REMARK   14  A    between atoms: C_14  and  C_15
REMARK   15  A    between atoms: C_15  and  C_16
REMARK   16  A    between atoms: C_16  and  C_17
REMARK   17  A    between atoms: C_17  and  C_18
REMARK   18  A    between atoms: C_18  and  C_19
REMARK   19  A    between atoms: C_19  and  C_20
REMARK   20  A    between atoms: C_20  and  O_21
REMARK   21  A    between atoms: C_20  and  C_22
REMARK   22  A    between atoms: C_22  and  C_23
REMARK   23  A    between atoms: C_23  and  O_24
REMARK   24  A    between atoms: C_23  and  C_25
REMARK   25  A    between atoms: C_25  and  C_26
REMARK   26  A    between atoms: C_26  and  C_27
REMARK   27  A    between atoms: C_27  and  C_28
REMARK   28  A    between atoms: C_28  and  C_29
REMARK                            x       y       z     vdW  Elec       q    Type
REMARK                         _______ _______ _______ _____ _____    ______ ____
ROOT
ATOM      1  C   UNL     1       2.219   6.934  18.126  0.00  0.00    +0.000 C 
ENDROOT
BRANCH   1   2
ATOM      2  C   UNL     1       2.778   6.580  19.490  0.00  0.00    +0.000 C 
BRANCH   2   3
ATOM      3  C   UNL     1       1.685   5.981  20.353  0.00  0.00    +0.000 C 
BRANCH   3   4
ATOM      4  C   UNL     1       2.178   4.688  20.975  0.00  0.00    +0.000 C 
BRANCH   4   5
ATOM      5  C   UNL     1       1.162   3.586  20.743  0.00  0.00    +0.000 C 
BRANCH   5   6
ATOM      6  C   UNL     1       1.085   3.261  19.264  0.00  0.00    +0.000 C 
BRANCH   6   7
ATOM      7  C   UNL     1       1.718   1.908  18.998  0.00  0.00    +0.000 C 
BRANCH   7   8
ATOM      8  C   UNL     1       2.647   1.997  17.802  0.00  0.00    +0.000 C 
BRANCH   8   9
ATOM      9  C   UNL     1       2.825   3.448  17.389  0.00  0.00    +0.000 C 
BRANCH   9  10
ATOM     10  C   UNL     1       4.259   3.888  17.630  0.00  0.00    +0.000 C 
BRANCH  10  11
ATOM     11  C   UNL     1       4.890   4.354  16.328  0.00  0.00    +0.000 C 
BRANCH  11  12
ATOM     12  C   UNL     1       5.291   5.818  16.428  0.00  0.00    +0.000 C 
BRANCH  12  13
ATOM     13  C   UNL     1       6.801   5.949  16.584  0.00  0.00    +0.000 C 
BRANCH  13  14
ATOM     14  C   UNL     1       7.199   5.808  18.047  0.00  0.00    +0.000 C 
BRANCH  14  16
ATOM     15  C   UNL     1       7.800   8.201  17.614  0.00  0.00    +0.000 C 
ATOM     16  C   UNL     1       8.051   6.991  18.496  0.00  0.00    +0.000 C 
ENDBRANCH  14  16
ENDBRANCH  13  14
ENDBRANCH  12  13
ENDBRANCH  11  12
ENDBRANCH  10  11
ENDBRANCH   9  10
ENDBRANCH   8   9
ENDBRANCH   7   8
ENDBRANCH   6   7
ENDBRANCH   5   6
ENDBRANCH   4   5
ENDBRANCH   3   4
ENDBRANCH   2   3
ENDBRANCH   1   2
BRANCH   1  17
ATOM     17  C   UNL     1       2.574   8.368  17.781  0.00  0.00    +0.000 C 
BRANCH  17  18
ATOM     18  C   UNL     1       1.790   9.303  18.679  0.00  0.00    +0.000 C 
BRANCH  18  19
ATOM     19  C   UNL     1       0.483   9.696  18.022  0.00  0.00    +0.000 C 
BRANCH  19  20
ATOM     20  C   UNL     1      -0.129  10.900  18.728  0.00  0.00    +0.000 C 
BRANCH  20  21
ATOM     21  O   UNL     1       0.004  12.054  17.902  0.00  0.00    +0.000 OA
ATOM     22  H   UNL     1      -0.722  12.054  17.251  0.00  0.00    +0.000 HD
ENDBRANCH  20  21
BRANCH  20  23
ATOM     23  C   UNL     1      -1.597  10.664  19.040  0.00  0.00    +0.000 C 
BRANCH  23  24
ATOM     24  C   UNL     1      -2.472  10.595  17.787  0.00  0.00    +0.000 C 
BRANCH  24  25
ATOM     25  O   UNL     1      -3.116   9.336  17.692  0.00  0.00    +0.000 OA
ATOM     26  H   UNL     1      -3.870   9.428  17.065  0.00  0.00    +0.000 HD
ENDBRANCH  24  25
BRANCH  24  27
ATOM     27  C   UNL     1      -3.520  11.701  17.776  0.00  0.00    +0.000 C 
BRANCH  27  28
ATOM     28  C   UNL     1      -4.927  11.131  17.911  0.00  0.00    +0.000 C 
BRANCH  28  29
ATOM     29  C   UNL     1      -5.879  12.148  18.514  0.00  0.00    +0.000 C 
BRANCH  29  30
ATOM     30  C   UNL     1      -7.087  11.442  19.117  0.00  0.00    +0.000 C 
ATOM     31  C   UNL     1      -6.877   9.941  19.137  0.00  0.00    +0.000 C 
ENDBRANCH  29  30
ENDBRANCH  28  29
ENDBRANCH  27  28
ENDBRANCH  24  27
ENDBRANCH  23  24
ENDBRANCH  20  23
ENDBRANCH  19  20
ENDBRANCH  18  19
ENDBRANCH  17  18
ENDBRANCH   1  17
TORSDOF 26
ENDMDL
MODEL 2
REMARK VINA RESULT:      -5.5      3.616      8.752
REMARK  Name = 
REMARK  28 active torsions:
REMARK  status: ('A' for Active; 'I' for Inactive)
REMARK    1  A    between atoms: C_1  and  C_2
REMARK    2  A    between atoms: C_2  and  C_3
REMARK    3  A    between atoms: C_3  and  C_4
REMARK    4  A    between atoms: C_4  and  C_5
REMARK    5  A    between atoms: C_5  and  C_6
REMARK    6  A    between atoms: C_6  and  C_7
REMARK    7  A    between atoms: C_7  and  C_8
REMARK    8  A    between atoms: C_8  and  C_9
REMARK    9  A    between atoms: C_9  and  C_10
REMARK   10  A    between atoms: C_10  and  C_11
REMARK   11  A    between atoms: C_11  and  C_12
REMARK   12  A    between atoms: C_12  and  C_13
REMARK   13  A    between atoms: C_13  and  C_14
REMARK   14  A    between atoms: C_14  and  C_15
REMARK   15  A    between atoms: C_15  and  C_16
REMARK   16  A    between atoms: C_16  and  C_17
REMARK   17  A    between atoms: C_17  and  C_18
REMARK   18  A    between atoms: C_18  and  C_19
REMARK   19  A    between atoms: C_19  and  C_20
REMARK   20  A    between atoms: C_20  and  O_21
REMARK   21  A    between atoms: C_20  and  C_22
REMARK   22  A    between atoms: C_22  and  C_23
REMARK   23  A    between atoms: C_23  and  O_24
REMARK   24  A    between atoms: C_23  and  C_25
REMARK   25  A    between atoms: C_25  and  C_26
REMARK   26  A    between atoms: C_26  and  C_27
REMARK   27  A    between atoms: C_27  and  C_28
REMARK   28  A    between atoms: C_28  and  C_29
REMARK                            x       y       z     vdW  Elec       q    Type
REMARK                         _______ _______ _______ _____ _____    ______ ____
ROOT
ATOM      1  C   UNL     1       4.110   4.206  16.656  0.00  0.00    +0.000 C 
ENDROOT
BRANCH   1   2
ATOM      2  C   UNL     1       3.361   3.188  17.492  0.00  0.00    +0.000 C 
BRANCH   2   3
ATOM      3  C   UNL     1       4.116   2.925  18.780  0.00  0.00    +0.000 C 
BRANCH   3   4
ATOM      4  C   UNL     1       3.262   2.082  19.708  0.00  0.00    +0.000 C 
BRANCH   4   5
ATOM      5  C   UNL     1       2.673   2.956  20.799  0.00  0.00    +0.000 C 
BRANCH   5   6
ATOM      6  C   UNL     1       1.210   3.231  20.504  0.00  0.00    +0.000 C 
BRANCH   6   7
ATOM      7  C   UNL     1       0.974   4.727  20.405  0.00  0.00    +0.000 C 
BRANCH   7   8
ATOM      8  C   UNL     1       2.303   5.459  20.371  0.00  0.00    +0.000 C 
BRANCH   8   9
ATOM      9  C   UNL     1       2.129   6.824  19.727  0.00  0.00    +0.000 C 
BRANCH   9  10
ATOM     10  C   UNL     1       3.243   7.074  18.726  0.00  0.00    +0.000 C 
BRANCH  10  11
ATOM     11  C   UNL     1       2.749   7.975  17.606  0.00  0.00    +0.000 C 
BRANCH  11  12
ATOM     12  C   UNL     1       1.505   8.732  18.045  0.00  0.00    +0.000 C 
BRANCH  12  13
ATOM     13  C   UNL     1       1.840  10.190  18.334  0.00  0.00    +0.000 C 
BRANCH  13  14
ATOM     14  C   UNL     1       0.924  10.742  19.418  0.00  0.00    +0.000 C 
BRANCH  14  16
ATOM     15  C   UNL     1       1.093  13.022  18.396  0.00  0.00    +0.000 C 
ATOM     16  C   UNL     1       0.148  11.952  18.910  0.00  0.00    +0.000 C 
ENDBRANCH  14  16
ENDBRANCH  13  14
ENDBRANCH  12  13
ENDBRANCH  11  12
ENDBRANCH  10  11
ENDBRANCH   9  10
ENDBRANCH   8   9
ENDBRANCH   7   8
ENDBRANCH   6   7
ENDBRANCH   5   6
ENDBRANCH   4   5
ENDBRANCH   3   4
ENDBRANCH   2   3
ENDBRANCH   1   2
BRANCH   1  17
ATOM     17  C   UNL     1       5.281   3.538  15.959  0.00  0.00    +0.000 C 
BRANCH  17  18
ATOM     18  C   UNL     1       6.020   4.569  15.131  0.00  0.00    +0.000 C 
BRANCH  18  19
ATOM     19  C   UNL     1       7.270   5.029  15.851  0.00  0.00    +0.000 C 
BRANCH  19  20
ATOM     20  C   UNL     1       7.188   4.689  17.334  0.00  0.00    +0.000 C 
BRANCH  20  21
ATOM     21  O   UNL     1       8.396   4.055  17.744  0.00  0.00    +0.000 OA
ATOM     22  H   UNL     1       8.685   3.450  17.036  0.00  0.00    +0.000 HD
ENDBRANCH  20  21
BRANCH  20  23
ATOM     23  C   UNL     1       6.958   5.937  18.170  0.00  0.00    +0.000 C 
BRANCH  23  24
ATOM     24  C   UNL     1       7.582   7.192  17.557  0.00  0.00    +0.000 C 
BRANCH  24  25
ATOM     25  O   UNL     1       6.577   8.090  17.118  0.00  0.00    +0.000 OA
ATOM     26  H   UNL     1       6.901   8.529  16.297  0.00  0.00    +0.000 HD
ENDBRANCH  24  25
BRANCH  24  27
ATOM     27  C   UNL     1       8.497   7.902  18.546  0.00  0.00    +0.000 C 
BRANCH  27  28
ATOM     28  C   UNL     1       8.550   9.400  18.275  0.00  0.00    +0.000 C 
BRANCH  28  29
ATOM     29  C   UNL     1       9.315  10.132  19.362  0.00  0.00    +0.000 C 
BRANCH  29  30
ATOM     30  C   UNL     1       9.275  11.634  19.112  0.00  0.00    +0.000 C 
ATOM     31  C   UNL     1       8.730  11.934  17.730  0.00  0.00    +0.000 C 
ENDBRANCH  29  30
ENDBRANCH  28  29
ENDBRANCH  27  28
ENDBRANCH  24  27
ENDBRANCH  23  24
ENDBRANCH  20  23
ENDBRANCH  19  20
ENDBRANCH  18  19
ENDBRANCH  17  18
ENDBRANCH   1  17
TORSDOF 26
ENDMDL
MODEL 3
REMARK VINA RESULT:      -5.4      1.350      2.358
REMARK  Name = 
REMARK  28 active torsions:
REMARK  status: ('A' for Active; 'I' for Inactive)
REMARK    1  A    between atoms: C_1  and  C_2
REMARK    2  A    between atoms: C_2  and  C_3
REMARK    3  A    between atoms: C_3  and  C_4
REMARK    4  A    between atoms: C_4  and  C_5
REMARK    5  A    between atoms: C_5  and  C_6
REMARK    6  A    between atoms: C_6  and  C_7
REMARK    7  A    between atoms: C_7  and  C_8
REMARK    8  A    between atoms: C_8  and  C_9
REMARK    9  A    between atoms: C_9  and  C_10
REMARK   10  A    between atoms: C_10  and  C_11
REMARK   11  A    between atoms: C_11  and  C_12
REMARK   12  A    between atoms: C_12  and  C_13
REMARK   13  A    between atoms: C_13  and  C_14
REMARK   14  A    between atoms: C_14  and  C_15
REMARK   15  A    between atoms: C_15  and  C_16
REMARK   16  A    between atoms: C_16  and  C_17
REMARK   17  A    between atoms: C_17  and  C_18
REMARK   18  A    between atoms: C_18  and  C_19
REMARK   19  A    between atoms: C_19  and  C_20
REMARK   20  A    between atoms: C_20  and  O_21
REMARK   21  A    between atoms: C_20  and  C_22
REMARK   22  A    between atoms: C_22  and  C_23
REMARK   23  A    between atoms: C_23  and  O_24
REMARK   24  A    between atoms: C_23  and  C_25
REMARK   25  A    between atoms: C_25  and  C_26
REMARK   26  A    between atoms: C_26  and  C_27
REMARK   27  A    between atoms: C_27  and  C_28
REMARK   28  A    between atoms: C_28  and  C_29
REMARK                            x       y       z     vdW  Elec       q    Type
REMARK                         _______ _______ _______ _____ _____    ______ ____
ROOT
ATOM      1  C   UNL     1       1.894   9.205  17.936  0.00  0.00    +0.000 C 
ENDROOT
BRANCH   1   2
ATOM      2  C   UNL     1       2.273   7.936  18.671  0.00  0.00    +0.000 C 
BRANCH   2   3
ATOM      3  C   UNL     1       1.944   8.077  20.145  0.00  0.00    +0.000 C 
BRANCH   3   4
ATOM      4  C   UNL     1       1.501   6.736  20.699  0.00  0.00    +0.000 C 
BRANCH   4   5
ATOM      5  C   UNL     1       2.419   5.642  20.190  0.00  0.00    +0.000 C 
BRANCH   5   6
ATOM      6  C   UNL     1       2.277   4.406  21.058  0.00  0.00    +0.000 C 
BRANCH   6   7
ATOM      7  C   UNL     1       1.045   3.623  20.645  0.00  0.00    +0.000 C 
BRANCH   7   8
ATOM      8  C   UNL     1       1.457   2.350  19.930  0.00  0.00    +0.000 C 
BRANCH   8   9
ATOM      9  C   UNL     1       1.496   2.586  18.430  0.00  0.00    +0.000 C 
BRANCH   9  10
ATOM     10  C   UNL     1       2.819   2.102  17.860  0.00  0.00    +0.000 C 
BRANCH  10  11
ATOM     11  C   UNL     1       3.900   3.146  18.083  0.00  0.00    +0.000 C 
BRANCH  11  12
ATOM     12  C   UNL     1       4.177   3.906  16.795  0.00  0.00    +0.000 C 
BRANCH  12  13
ATOM     13  C   UNL     1       4.402   5.384  17.083  0.00  0.00    +0.000 C 
BRANCH  13  14
ATOM     14  C   UNL     1       5.670   5.579  17.903  0.00  0.00    +0.000 C 
BRANCH  14  16
ATOM     15  C   UNL     1       7.567   7.209  17.760  0.00  0.00    +0.000 C 
ATOM     16  C   UNL     1       6.804   6.115  17.035  0.00  0.00    +0.000 C 
ENDBRANCH  14  16
ENDBRANCH  13  14
ENDBRANCH  12  13
ENDBRANCH  11  12
ENDBRANCH  10  11
ENDBRANCH   9  10
ENDBRANCH   8   9
ENDBRANCH   7   8
ENDBRANCH   6   7
ENDBRANCH   5   6
ENDBRANCH   4   5
ENDBRANCH   3   4
ENDBRANCH   2   3
ENDBRANCH   1   2
BRANCH   1  17
ATOM     17  C   UNL     1       0.383   9.318  17.850  0.00  0.00    +0.000 C 
BRANCH  17  18
ATOM     18  C   UNL     1      -0.040  10.691  18.330  0.00  0.00    +0.000 C 
BRANCH  18  19
ATOM     19  C   UNL     1      -1.299  10.594  19.166  0.00  0.00    +0.000 C 
BRANCH  19  20
ATOM     20  C   UNL     1      -2.358  11.562  18.651  0.00  0.00    +0.000 C 
BRANCH  20  21
ATOM     21  O   UNL     1      -1.813  12.345  17.593  0.00  0.00    +0.000 OA
ATOM     22  H   UNL     1      -0.840  12.299  17.643  0.00  0.00    +0.000 HD
ENDBRANCH  20  21
BRANCH  20  23
ATOM     23  C   UNL     1      -3.585  10.817  18.152  0.00  0.00    +0.000 C 
BRANCH  23  24
ATOM     24  C   UNL     1      -4.784  11.735  17.907  0.00  0.00    +0.000 C 
BRANCH  24  25
ATOM     25  O   UNL     1      -4.733  12.288  16.602  0.00  0.00    +0.000 OA
ATOM     26  H   UNL     1      -4.000  11.847  16.115  0.00  0.00    +0.000 HD
ENDBRANCH  24  25
BRANCH  24  27
ATOM     27  C   UNL     1      -6.101  10.994  18.091  0.00  0.00    +0.000 C 
BRANCH  27  28
ATOM     28  C   UNL     1      -6.630  11.147  19.512  0.00  0.00    +0.000 C 
BRANCH  28  29
ATOM     29  C   UNL     1      -7.286  12.500  19.715  0.00  0.00    +0.000 C 
BRANCH  29  30
ATOM     30  C   UNL     1      -6.754  13.157  20.982  0.00  0.00    +0.000 C 
ATOM     31  C   UNL     1      -5.429  12.543  21.389  0.00  0.00    +0.000 C 
ENDBRANCH  29  30
ENDBRANCH  28  29
ENDBRANCH  27  28
ENDBRANCH  24  27
ENDBRANCH  23  24
ENDBRANCH  20  23
ENDBRANCH  19  20
ENDBRANCH  18  19
ENDBRANCH  17  18
ENDBRANCH   1  17
TORSDOF 26
ENDMDL
MODEL 4
REMARK VINA RESULT:      -5.3      4.883      8.838
REMARK  Name = 
REMARK  28 active torsions:
REMARK  status: ('A' for Active; 'I' for Inactive)
REMARK    1  A    between atoms: C_1  and  C_2
REMARK    2  A    between atoms: C_2  and  C_3
REMARK    3  A    between atoms: C_3  and  C_4
REMARK    4  A    between atoms: C_4  and  C_5
REMARK    5  A    between atoms: C_5  and  C_6
REMARK    6  A    between atoms: C_6  and  C_7
REMARK    7  A    between atoms: C_7  and  C_8
REMARK    8  A    between atoms: C_8  and  C_9
REMARK    9  A    between atoms: C_9  and  C_10
REMARK   10  A    between atoms: C_10  and  C_11
REMARK   11  A    between atoms: C_11  and  C_12
REMARK   12  A    between atoms: C_12  and  C_13
REMARK   13  A    between atoms: C_13  and  C_14
REMARK   14  A    between atoms: C_14  and  C_15
REMARK   15  A    between atoms: C_15  and  C_16
REMARK   16  A    between atoms: C_16  and  C_17
REMARK   17  A    between atoms: C_17  and  C_18
REMARK   18  A    between atoms: C_18  and  C_19
REMARK   19  A    between atoms: C_19  and  C_20
REMARK   20  A    between atoms: C_20  and  O_21
REMARK   21  A    between atoms: C_20  and  C_22
REMARK   22  A    between atoms: C_22  and  C_23
REMARK   23  A    between atoms: C_23  and  O_24
REMARK   24  A    between atoms: C_23  and  C_25
REMARK   25  A    between atoms: C_25  and  C_26
REMARK   26  A    between atoms: C_26  and  C_27
REMARK   27  A    between atoms: C_27  and  C_28
REMARK   28  A    between atoms: C_28  and  C_29
REMARK                            x       y       z     vdW  Elec       q    Type
REMARK                         _______ _______ _______ _____ _____    ______ ____
ROOT
ATOM      1  C   UNL     1       5.836   7.151  17.328  0.00  0.00    +0.000 C 
ENDROOT
BRANCH   1   2
ATOM      2  C   UNL     1       5.311   6.333  16.165  0.00  0.00    +0.000 C 
BRANCH   2   3
ATOM      3  C   UNL     1       6.368   5.346  15.712  0.00  0.00    +0.000 C 
BRANCH   3   4
ATOM      4  C   UNL     1       6.129   4.003  16.374  0.00  0.00    +0.000 C 
BRANCH   4   5
ATOM      5  C   UNL     1       4.673   3.881  16.778  0.00  0.00    +0.000 C 
BRANCH   5   6
ATOM      6  C   UNL     1       4.572   3.601  18.266  0.00  0.00    +0.000 C 
BRANCH   6   7
ATOM      7  C   UNL     1       3.729   2.362  18.503  0.00  0.00    +0.000 C 
BRANCH   7   8
ATOM      8  C   UNL     1       2.578   2.322  17.516  0.00  0.00    +0.000 C 
BRANCH   8   9
ATOM      9  C   UNL     1       1.476   3.268  17.963  0.00  0.00    +0.000 C 
BRANCH   9  10
ATOM     10  C   UNL     1       0.662   2.633  19.077  0.00  0.00    +0.000 C 
BRANCH  10  11
ATOM     11  C   UNL     1       0.998   3.283  20.409  0.00  0.00    +0.000 C 
BRANCH  11  12
ATOM     12  C   UNL     1       1.132   4.789  20.243  0.00  0.00    +0.000 C 
BRANCH  12  13
ATOM     13  C   UNL     1       2.509   5.257  20.698  0.00  0.00    +0.000 C 
BRANCH  13  14
ATOM     14  C   UNL     1       2.990   6.415  19.834  0.00  0.00    +0.000 C 
BRANCH  14  16
ATOM     15  C   UNL     1       2.285   7.924  17.962  0.00  0.00    +0.000 C 
ATOM     16  C   UNL     1       2.144   6.540  18.571  0.00  0.00    +0.000 C 
ENDBRANCH  14  16
ENDBRANCH  13  14
ENDBRANCH  12  13
ENDBRANCH  11  12
ENDBRANCH  10  11
ENDBRANCH   9  10
ENDBRANCH   8   9
ENDBRANCH   7   8
ENDBRANCH   6   7
ENDBRANCH   5   6
ENDBRANCH   4   5
ENDBRANCH   3   4
ENDBRANCH   2   3
ENDBRANCH   1   2
BRANCH   1  17
ATOM     17  C   UNL     1       7.352   7.110  17.343  0.00  0.00    +0.000 C 
BRANCH  17  18
ATOM     18  C   UNL     1       7.887   8.527  17.402  0.00  0.00    +0.000 C 
BRANCH  18  19
ATOM     19  C   UNL     1       8.496   8.805  18.760  0.00  0.00    +0.000 C 
BRANCH  19  20
ATOM     20  C   UNL     1       9.217  10.148  18.756  0.00  0.00    +0.000 C 
BRANCH  20  21
ATOM     21  O   UNL     1       8.573  11.031  17.842  0.00  0.00    +0.000 OA
ATOM     22  H   UNL     1       8.043  11.673  18.351  0.00  0.00    +0.000 HD
ENDBRANCH  20  21
BRANCH  20  23
ATOM     23  C   UNL     1       9.225  10.769  20.143  0.00  0.00    +0.000 C 
BRANCH  23  24
ATOM     24  C   UNL     1      10.172  11.965  20.258  0.00  0.00    +0.000 C 
BRANCH  24  25
ATOM     25  O   UNL     1      11.121  11.957  19.204  0.00  0.00    +0.000 OA
ATOM     26  H   UNL     1      11.989  12.239  19.576  0.00  0.00    +0.000 HD
ENDBRANCH  24  25
BRANCH  24  27
ATOM     27  C   UNL     1       9.411  13.284  20.243  0.00  0.00    +0.000 C 
BRANCH  27  28
ATOM     28  C   UNL     1       9.661  14.083  21.516  0.00  0.00    +0.000 C 
BRANCH  28  29
ATOM     29  C   UNL     1       9.187  13.329  22.744  0.00  0.00    +0.000 C 
BRANCH  29  30
ATOM     30  C   UNL     1       7.668  13.206  22.730  0.00  0.00    +0.000 C 
ATOM     31  C   UNL     1       7.238  11.818  23.163  0.00  0.00    +0.000 C 
ENDBRANCH  29  30
ENDBRANCH  28  29
ENDBRANCH  27  28
ENDBRANCH  24  27
ENDBRANCH  23  24
ENDBRANCH  20  23
ENDBRANCH  19  20
ENDBRANCH  18  19
ENDBRANCH  17  18
ENDBRANCH   1  17
TORSDOF 26
ENDMDL
MODEL 5
REMARK VINA RESULT:      -5.3      3.452      9.099
REMARK  Name = 
REMARK  28 active torsions:
REMARK  status: ('A' for Active; 'I' for Inactive)
REMARK    1  A    between atoms: C_1  and  C_2
REMARK    2  A    between atoms: C_2  and  C_3
REMARK    3  A    between atoms: C_3  and  C_4
REMARK    4  A    between atoms: C_4  and  C_5
REMARK    5  A    between atoms: C_5  and  C_6
REMARK    6  A    between atoms: C_6  and  C_7
REMARK    7  A    between atoms: C_7  and  C_8
REMARK    8  A    between atoms: C_8  and  C_9
REMARK    9  A    between atoms: C_9  and  C_10
REMARK   10  A    between atoms: C_10  and  C_11
REMARK   11  A    between atoms: C_11  and  C_12
REMARK   12  A    between atoms: C_12  and  C_13
REMARK   13  A    between atoms: C_13  and  C_14
REMARK   14  A    between atoms: C_14  and  C_15
REMARK   15  A    between atoms: C_15  and  C_16
REMARK   16  A    between atoms: C_16  and  C_17
REMARK   17  A    between atoms: C_17  and  C_18
REMARK   18  A    between atoms: C_18  and  C_19
REMARK   19  A    between atoms: C_19  and  C_20
REMARK   20  A    between atoms: C_20  and  O_21
REMARK   21  A    between atoms: C_20  and  C_22
REMARK   22  A    between atoms: C_22  and  C_23
REMARK   23  A    between atoms: C_23  and  O_24
REMARK   24  A    between atoms: C_23  and  C_25
REMARK   25  A    between atoms: C_25  and  C_26
REMARK   26  A    between atoms: C_26  and  C_27
REMARK   27  A    between atoms: C_27  and  C_28
REMARK   28  A    between atoms: C_28  and  C_29
REMARK                            x       y       z     vdW  Elec       q    Type
REMARK                         _______ _______ _______ _____ _____    ______ ____
ROOT
ATOM      1  C   UNL     1       1.072   3.112  18.864  0.00  0.00    +0.000 C 
ENDROOT
BRANCH   1   2
ATOM      2  C   UNL     1       0.576   3.943  20.029  0.00  0.00    +0.000 C 
BRANCH   2   3
ATOM      3  C   UNL     1       1.754   4.428  20.852  0.00  0.00    +0.000 C 
BRANCH   3   4
ATOM      4  C   UNL     1       2.040   5.881  20.525  0.00  0.00    +0.000 C 
BRANCH   4   5
ATOM      5  C   UNL     1       1.904   6.108  19.032  0.00  0.00    +0.000 C 
BRANCH   5   6
ATOM      6  C   UNL     1       2.899   7.159  18.579  0.00  0.00    +0.000 C 
BRANCH   6   7
ATOM      7  C   UNL     1       2.170   8.303  17.899  0.00  0.00    +0.000 C 
BRANCH   7   8
ATOM      8  C   UNL     1       1.308   9.039  18.907  0.00  0.00    +0.000 C 
BRANCH   8   9
ATOM      9  C   UNL     1       0.275   9.888  18.186  0.00  0.00    +0.000 C 
BRANCH   9  10
ATOM     10  C   UNL     1      -0.728  10.446  19.181  0.00  0.00    +0.000 C 
BRANCH  10  11
ATOM     11  C   UNL     1      -1.471  11.624  18.572  0.00  0.00    +0.000 C 
BRANCH  11  12
ATOM     12  C   UNL     1      -1.378  12.838  19.484  0.00  0.00    +0.000 C 
BRANCH  12  13
ATOM     13  C   UNL     1       0.079  13.207  19.736  0.00  0.00    +0.000 C 
BRANCH  13  14
ATOM     14  C   UNL     1       0.757  13.615  18.435  0.00  0.00    +0.000 C 
BRANCH  14  16
ATOM     15  C   UNL     1       3.237  13.968  18.383  0.00  0.00    +0.000 C 
ATOM     16  C   UNL     1       1.893  14.599  18.699  0.00  0.00    +0.000 C 
ENDBRANCH  14  16
ENDBRANCH  13  14
ENDBRANCH  12  13
ENDBRANCH  11  12
ENDBRANCH  10  11
ENDBRANCH   9  10
ENDBRANCH   8   9
ENDBRANCH   7   8
ENDBRANCH   6   7
ENDBRANCH   5   6
ENDBRANCH   4   5
ENDBRANCH   3   4
ENDBRANCH   2   3
ENDBRANCH   1   2
BRANCH   1  17
ATOM     17  C   UNL     1       1.788   1.877  19.378  0.00  0.00    +0.000 C 
BRANCH  17  18
ATOM     18  C   UNL     1       3.059   1.672  18.581  0.00  0.00    +0.000 C 
BRANCH  18  19
ATOM     19  C   UNL     1       4.259   2.169  19.359  0.00  0.00    +0.000 C 
BRANCH  19  20
ATOM     20  C   UNL     1       4.672   3.554  18.876  0.00  0.00    +0.000 C 
BRANCH  20  21
ATOM     21  O   UNL     1       6.073   3.727  19.071  0.00  0.00    +0.000 OA
ATOM     22  H   UNL     1       6.349   3.189  19.836  0.00  0.00    +0.000 HD
ENDBRANCH  20  21
BRANCH  20  23
ATOM     23  C   UNL     1       4.336   3.744  17.406  0.00  0.00    +0.000 C 
BRANCH  23  24
ATOM     24  C   UNL     1       5.498   4.322  16.596  0.00  0.00    +0.000 C 
BRANCH  24  25
ATOM     25  O   UNL     1       6.169   3.299  15.879  0.00  0.00    +0.000 OA
ATOM     26  H   UNL     1       6.910   2.974  16.441  0.00  0.00    +0.000 HD
ENDBRANCH  24  25
BRANCH  24  27
ATOM     27  C   UNL     1       5.021   5.392  15.622  0.00  0.00    +0.000 C 
BRANCH  27  28
ATOM     28  C   UNL     1       5.588   6.760  15.981  0.00  0.00    +0.000 C 
BRANCH  28  29
ATOM     29  C   UNL     1       6.133   6.778  17.397  0.00  0.00    +0.000 C 
BRANCH  29  30
ATOM     30  C   UNL     1       7.624   7.092  17.381  0.00  0.00    +0.000 C 
ATOM     31  C   UNL     1       7.872   8.536  17.772  0.00  0.00    +0.000 C 
ENDBRANCH  29  30
ENDBRANCH  28  29
ENDBRANCH  27  28
ENDBRANCH  24  27
ENDBRANCH  23  24
ENDBRANCH  20  23
ENDBRANCH  19  20
ENDBRANCH  18  19
ENDBRANCH  17  18
ENDBRANCH   1  17
TORSDOF 26
ENDMDL
MODEL 6
REMARK VINA RESULT:      -5.3      2.784      3.646
REMARK  Name = 
REMARK  28 active torsions:
REMARK  status: ('A' for Active; 'I' for Inactive)
REMARK    1  A    between atoms: C_1  and  C_2
REMARK    2  A    between atoms: C_2  and  C_3
REMARK    3  A    between atoms: C_3  and  C_4
REMARK    4  A    between atoms: C_4  and  C_5
REMARK    5  A    between atoms: C_5  and  C_6
REMARK    6  A    between atoms: C_6  and  C_7
REMARK    7  A    between atoms: C_7  and  C_8
REMARK    8  A    between atoms: C_8  and  C_9
REMARK    9  A    between atoms: C_9  and  C_10
REMARK   10  A    between atoms: C_10  and  C_11
REMARK   11  A    between atoms: C_11  and  C_12
REMARK   12  A    between atoms: C_12  and  C_13
REMARK   13  A    between atoms: C_13  and  C_14
REMARK   14  A    between atoms: C_14  and  C_15
REMARK   15  A    between atoms: C_15  and  C_16
REMARK   16  A    between atoms: C_16  and  C_17
REMARK   17  A    between atoms: C_17  and  C_18
REMARK   18  A    between atoms: C_18  and  C_19
REMARK   19  A    between atoms: C_19  and  C_20
REMARK   20  A    between atoms: C_20  and  O_21
REMARK   21  A    between atoms: C_20  and  C_22
REMARK   22  A    between atoms: C_22  and  C_23
REMARK   23  A    between atoms: C_23  and  O_24
REMARK   24  A    between atoms: C_23  and  C_25
REMARK   25  A    between atoms: C_25  and  C_26
REMARK   26  A    between atoms: C_26  and  C_27
REMARK   27  A    between atoms: C_27  and  C_28
REMARK   28  A    between atoms: C_28  and  C_29
REMARK                            x       y       z     vdW  Elec       q    Type
REMARK                         _______ _______ _______ _____ _____    ______ ____
ROOT
ATOM      1  C   UNL     1       3.429   7.035  18.622  0.00  0.00    +0.000 C 
ENDROOT
BRANCH   1   2
ATOM      2  C   UNL     1       3.148   5.846  19.518  0.00  0.00    +0.000 C 
BRANCH   2   3
ATOM      3  C   UNL     1       1.950   6.140  20.400  0.00  0.00    +0.000 C 
BRANCH   3   4
ATOM      4  C   UNL     1       1.102   4.889  20.540  0.00  0.00    +0.000 C 
BRANCH   4   5
ATOM      5  C   UNL     1       1.900   3.803  21.236  0.00  0.00    +0.000 C 
BRANCH   5   6
ATOM      6  C   UNL     1       1.711   2.483  20.513  0.00  0.00    +0.000 C 
BRANCH   6   7
ATOM      7  C   UNL     1       0.989   2.711  19.198  0.00  0.00    +0.000 C 
BRANCH   7   8
ATOM      8  C   UNL     1       1.916   2.402  18.038  0.00  0.00    +0.000 C 
BRANCH   8   9
ATOM      9  C   UNL     1       3.204   1.783  18.552  0.00  0.00    +0.000 C 
BRANCH   9  10
ATOM     10  C   UNL     1       4.352   2.766  18.404  0.00  0.00    +0.000 C 
BRANCH  10  11
ATOM     11  C   UNL     1       4.220   3.533  17.099  0.00  0.00    +0.000 C 
BRANCH  11  12
ATOM     12  C   UNL     1       5.472   4.359  16.841  0.00  0.00    +0.000 C 
BRANCH  12  13
ATOM     13  C   UNL     1       5.271   5.273  15.640  0.00  0.00    +0.000 C 
BRANCH  13  14
ATOM     14  C   UNL     1       6.408   5.097  14.641  0.00  0.00    +0.000 C 
BRANCH  14  16
ATOM     15  C   UNL     1       5.223   3.779  12.872  0.00  0.00    +0.000 C 
ATOM     16  C   UNL     1       6.308   3.750  13.933  0.00  0.00    +0.000 C 
ENDBRANCH  14  16
ENDBRANCH  13  14
ENDBRANCH  12  13
ENDBRANCH  11  12
ENDBRANCH  10  11
ENDBRANCH   9  10
ENDBRANCH   8   9
ENDBRANCH   7   8
ENDBRANCH   6   7
ENDBRANCH   5   6
ENDBRANCH   4   5
ENDBRANCH   3   4
ENDBRANCH   2   3
ENDBRANCH   1   2
BRANCH   1  17
ATOM     17  C   UNL     1       2.151   7.478  17.936  0.00  0.00    +0.000 C 
BRANCH  17  18
ATOM     18  C   UNL     1       1.921   8.949  18.216  0.00  0.00    +0.000 C 
BRANCH  18  19
ATOM     19  C   UNL     1       0.530   9.359  17.780  0.00  0.00    +0.000 C 
BRANCH  19  20
ATOM     20  C   UNL     1       0.051  10.562  18.584  0.00  0.00    +0.000 C 
BRANCH  20  21
ATOM     21  O   UNL     1      -1.260  10.310  19.082  0.00  0.00    +0.000 OA
ATOM     22  H   UNL     1      -1.529  11.061  19.643  0.00  0.00    +0.000 HD
ENDBRANCH  20  21
BRANCH  20  23
ATOM     23  C   UNL     1       0.989  10.853  19.744  0.00  0.00    +0.000 C 
BRANCH  23  24
ATOM     24  C   UNL     1       0.289  10.813  21.104  0.00  0.00    +0.000 C 
BRANCH  24  25
ATOM     25  O   UNL     1       1.118  10.199  22.077  0.00  0.00    +0.000 OA
ATOM     26  H   UNL     1       1.343  10.879  22.754  0.00  0.00    +0.000 HD
ENDBRANCH  24  25
BRANCH  24  27
ATOM     27  C   UNL     1      -0.095  12.209  21.576  0.00  0.00    +0.000 C 
BRANCH  27  28
ATOM     28  C   UNL     1      -1.039  12.150  22.771  0.00  0.00    +0.000 C 
BRANCH  28  29
ATOM     29  C   UNL     1      -1.286  13.531  23.348  0.00  0.00    +0.000 C 
BRANCH  29  30
ATOM     30  C   UNL     1      -2.773  13.732  23.612  0.00  0.00    +0.000 C 
ATOM     31  C   UNL     1      -3.487  12.397  23.704  0.00  0.00    +0.000 C 
ENDBRANCH  29  30
ENDBRANCH  28  29
ENDBRANCH  27  28
ENDBRANCH  24  27
ENDBRANCH  23  24
ENDBRANCH  20  23
ENDBRANCH  19  20
ENDBRANCH  18  19
ENDBRANCH  17  18
ENDBRANCH   1  17
TORSDOF 26
ENDMDL
MODEL 7
REMARK VINA RESULT:      -5.2      3.947      9.592
REMARK  Name = 
REMARK  28 active torsions:
REMARK  status: ('A' for Active; 'I' for Inactive)
REMARK    1  A    between atoms: C_1  and  C_2
REMARK    2  A    between atoms: C_2  and  C_3
REMARK    3  A    between atoms: C_3  and  C_4
REMARK    4  A    between atoms: C_4  and  C_5
REMARK    5  A    between atoms: C_5  and  C_6
REMARK    6  A    between atoms: C_6  and  C_7
REMARK    7  A    between atoms: C_7  and  C_8
REMARK    8  A    between atoms: C_8  and  C_9
REMARK    9  A    between atoms: C_9  and  C_10
REMARK   10  A    between atoms: C_10  and  C_11
REMARK   11  A    between atoms: C_11  and  C_12
REMARK   12  A    between atoms: C_12  and  C_13
REMARK   13  A    between atoms: C_13  and  C_14
REMARK   14  A    between atoms: C_14  and  C_15
REMARK   15  A    between atoms: C_15  and  C_16
REMARK   16  A    between atoms: C_16  and  C_17
REMARK   17  A    between atoms: C_17  and  C_18
REMARK   18  A    between atoms: C_18  and  C_19
REMARK   19  A    between atoms: C_19  and  C_20
REMARK   20  A    between atoms: C_20  and  O_21
REMARK   21  A    between atoms: C_20  and  C_22
REMARK   22  A    between atoms: C_22  and  C_23
REMARK   23  A    between atoms: C_23  and  O_24
REMARK   24  A    between atoms: C_23  and  C_25
REMARK   25  A    between atoms: C_25  and  C_26
REMARK   26  A    between atoms: C_26  and  C_27
REMARK   27  A    between atoms: C_27  and  C_28
REMARK   28  A    between atoms: C_28  and  C_29
REMARK                            x       y       z     vdW  Elec       q    Type
REMARK                         _______ _______ _______ _____ _____    ______ ____
ROOT
ATOM      1  C   UNL     1       2.899   2.732  20.766  0.00  0.00    +0.000 C 
ENDROOT
BRANCH   1   2
ATOM      2  C   UNL     1       1.715   3.319  21.506  0.00  0.00    +0.000 C 
BRANCH   2   3
ATOM      3  C   UNL     1       0.961   4.270  20.597  0.00  0.00    +0.000 C 
BRANCH   3   4
ATOM      4  C   UNL     1       1.656   5.619  20.581  0.00  0.00    +0.000 C 
BRANCH   4   5
ATOM      5  C   UNL     1       2.139   5.931  19.178  0.00  0.00    +0.000 C 
BRANCH   5   6
ATOM      6  C   UNL     1       2.810   7.291  19.155  0.00  0.00    +0.000 C 
BRANCH   6   7
ATOM      7  C   UNL     1       2.880   7.810  17.731  0.00  0.00    +0.000 C 
BRANCH   7   8
ATOM      8  C   UNL     1       2.349   9.230  17.671  0.00  0.00    +0.000 C 
BRANCH   8   9
ATOM      9  C   UNL     1       0.884   9.255  18.075  0.00  0.00    +0.000 C 
BRANCH   9  10
ATOM     10  C   UNL     1       0.668  10.261  19.193  0.00  0.00    +0.000 C 
BRANCH  10  11
ATOM     11  C   UNL     1      -0.293   9.697  20.226  0.00  0.00    +0.000 C 
BRANCH  11  12
ATOM     12  C   UNL     1       0.356   9.685  21.602  0.00  0.00    +0.000 C 
BRANCH  12  13
ATOM     13  C   UNL     1      -0.537  10.379  22.621  0.00  0.00    +0.000 C 
BRANCH  13  14
ATOM     14  C   UNL     1      -0.616  11.872  22.331  0.00  0.00    +0.000 C 
BRANCH  14  16
ATOM     15  C   UNL     1      -1.636  13.715  23.687  0.00  0.00    +0.000 C 
ATOM     16  C   UNL     1      -1.913  12.465  22.872  0.00  0.00    +0.000 C 
ENDBRANCH  14  16
ENDBRANCH  13  14
ENDBRANCH  12  13
ENDBRANCH  11  12
ENDBRANCH  10  11
ENDBRANCH   9  10
ENDBRANCH   8   9
ENDBRANCH   7   8
ENDBRANCH   6   7
ENDBRANCH   5   6
ENDBRANCH   4   5
ENDBRANCH   3   4
ENDBRANCH   2   3
ENDBRANCH   1   2
BRANCH   1  17
ATOM     17  C   UNL     1       2.421   2.010  19.520  0.00  0.00    +0.000 C 
BRANCH  17  18
ATOM     18  C   UNL     1       3.610   1.378  18.825  0.00  0.00    +0.000 C 
BRANCH  18  19
ATOM     19  C   UNL     1       3.960   2.149  17.570  0.00  0.00    +0.000 C 
BRANCH  19  20
ATOM     20  C   UNL     1       4.318   3.591  17.911  0.00  0.00    +0.000 C 
BRANCH  20  21
ATOM     21  O   UNL     1       5.533   3.616  18.654  0.00  0.00    +0.000 OA
ATOM     22  H   UNL     1       6.266   3.373  18.059  0.00  0.00    +0.000 HD
ENDBRANCH  20  21
BRANCH  20  23
ATOM     23  C   UNL     1       4.473   4.429  16.653  0.00  0.00    +0.000 C 
BRANCH  23  24
ATOM     24  C   UNL     1       5.925   4.813  16.365  0.00  0.00    +0.000 C 
BRANCH  24  25
ATOM     25  O   UNL     1       6.765   3.671  16.406  0.00  0.00    +0.000 OA
ATOM     26  H   UNL     1       6.473   3.056  15.694  0.00  0.00    +0.000 HD
ENDBRANCH  24  25
BRANCH  24  27
ATOM     27  C   UNL     1       6.064   5.494  15.010  0.00  0.00    +0.000 C 
BRANCH  27  28
ATOM     28  C   UNL     1       5.436   4.657  13.902  0.00  0.00    +0.000 C 
BRANCH  28  29
ATOM     29  C   UNL     1       6.449   3.713  13.282  0.00  0.00    +0.000 C 
BRANCH  29  30
ATOM     30  C   UNL     1       5.980   3.274  11.900  0.00  0.00    +0.000 C 
ATOM     31  C   UNL     1       4.485   3.474  11.752  0.00  0.00    +0.000 C 
ENDBRANCH  29  30
ENDBRANCH  28  29
ENDBRANCH  27  28
ENDBRANCH  24  27
ENDBRANCH  23  24
ENDBRANCH  20  23
ENDBRANCH  19  20
ENDBRANCH  18  19
ENDBRANCH  17  18
ENDBRANCH   1  17
TORSDOF 26
ENDMDL
MODEL 8
REMARK VINA RESULT:      -5.2      5.280      9.914
REMARK  Name = 
REMARK  28 active torsions:
REMARK  status: ('A' for Active; 'I' for Inactive)
REMARK    1  A    between atoms: C_1  and  C_2
REMARK    2  A    between atoms: C_2  and  C_3
REMARK    3  A    between atoms: C_3  and  C_4
REMARK    4  A    between atoms: C_4  and  C_5
REMARK    5  A    between atoms: C_5  and  C_6
REMARK    6  A    between atoms: C_6  and  C_7
REMARK    7  A    between atoms: C_7  and  C_8
REMARK    8  A    between atoms: C_8  and  C_9
REMARK    9  A    between atoms: C_9  and  C_10
REMARK   10  A    between atoms: C_10  and  C_11
REMARK   11  A    between atoms: C_11  and  C_12
REMARK   12  A    between atoms: C_12  and  C_13
REMARK   13  A    between atoms: C_13  and  C_14
REMARK   14  A    between atoms: C_14  and  C_15
REMARK   15  A    between atoms: C_15  and  C_16
REMARK   16  A    between atoms: C_16  and  C_17
REMARK   17  A    between atoms: C_17  and  C_18
REMARK   18  A    between atoms: C_18  and  C_19
REMARK   19  A    between atoms: C_19  and  C_20
REMARK   20  A    between atoms: C_20  and  O_21
REMARK   21  A    between atoms: C_20  and  C_22
REMARK   22  A    between atoms: C_22  and  C_23
REMARK   23  A    between atoms: C_23  and  O_24
REMARK   24  A    between atoms: C_23  and  C_25
REMARK   25  A    between atoms: C_25  and  C_26
REMARK   26  A    between atoms: C_26  and  C_27
REMARK   27  A    between atoms: C_27  and  C_28
REMARK   28  A    between atoms: C_28  and  C_29
REMARK                            x       y       z     vdW  Elec       q    Type
REMARK                         _______ _______ _______ _____ _____    ______ ____
ROOT
ATOM      1  C   UNL     1       7.442   5.518  18.068  0.00  0.00    +0.000 C 
ENDROOT
BRANCH   1   2
ATOM      2  C   UNL     1       8.092   6.658  18.823  0.00  0.00    +0.000 C 
BRANCH   2   3
ATOM      3  C   UNL     1       8.013   7.930  18.001  0.00  0.00    +0.000 C 
BRANCH   3   4
ATOM      4  C   UNL     1       8.799   9.031  18.689  0.00  0.00    +0.000 C 
BRANCH   4   5
ATOM      5  C   UNL     1       8.531  10.357  18.004  0.00  0.00    +0.000 C 
BRANCH   5   6
ATOM      6  C   UNL     1       9.832  11.117  17.828  0.00  0.00    +0.000 C 
BRANCH   6   7
ATOM      7  C   UNL     1      10.457  11.394  19.183  0.00  0.00    +0.000 C 
BRANCH   7   8
ATOM      8  C   UNL     1      10.515  12.890  19.430  0.00  0.00    +0.000 C 
BRANCH   8   9
ATOM      9  C   UNL     1      10.317  13.181  20.907  0.00  0.00    +0.000 C 
BRANCH   9  10
ATOM     10  C   UNL     1       9.718  11.970  21.603  0.00  0.00    +0.000 C 
BRANCH  10  11
ATOM     11  C   UNL     1       8.348  12.313  22.165  0.00  0.00    +0.000 C 
BRANCH  11  12
ATOM     12  C   UNL     1       8.288  11.984  23.649  0.00  0.00    +0.000 C 
BRANCH  12  13
ATOM     13  C   UNL     1       7.771  13.178  24.441  0.00  0.00    +0.000 C 
BRANCH  13  14
ATOM     14  C   UNL     1       7.721  14.419  23.561  0.00  0.00    +0.000 C 
BRANCH  14  16
ATOM     15  C   UNL     1       9.836  15.750  23.390  0.00  0.00    +0.000 C 
ATOM     16  C   UNL     1       8.547  15.550  24.166  0.00  0.00    +0.000 C 
ENDBRANCH  14  16
ENDBRANCH  13  14
ENDBRANCH  12  13
ENDBRANCH  11  12
ENDBRANCH  10  11
ENDBRANCH   9  10
ENDBRANCH   8   9
ENDBRANCH   7   8
ENDBRANCH   6   7
ENDBRANCH   5   6
ENDBRANCH   4   5
ENDBRANCH   3   4
ENDBRANCH   2   3
ENDBRANCH   1   2
BRANCH   1  17
ATOM     17  C   UNL     1       7.181   5.932  16.633  0.00  0.00    +0.000 C 
BRANCH  17  18
ATOM     18  C   UNL     1       6.588   4.761  15.876  0.00  0.00    +0.000 C 
BRANCH  18  19
ATOM     19  C   UNL     1       5.082   4.893  15.792  0.00  0.00    +0.000 C 
BRANCH  19  20
ATOM     20  C   UNL     1       4.456   4.761  17.175  0.00  0.00    +0.000 C 
BRANCH  20  21
ATOM     21  O   UNL     1       3.674   5.918  17.456  0.00  0.00    +0.000 OA
ATOM     22  H   UNL     1       2.737   5.652  17.515  0.00  0.00    +0.000 HD
ENDBRANCH  20  21
BRANCH  20  23
ATOM     23  C   UNL     1       3.582   3.521  17.265  0.00  0.00    +0.000 C 
BRANCH  23  24
ATOM     24  C   UNL     1       4.030   2.550  18.358  0.00  0.00    +0.000 C 
BRANCH  24  25
ATOM     25  O   UNL     1       5.058   3.124  19.149  0.00  0.00    +0.000 OA
ATOM     26  H   UNL     1       5.869   2.577  19.034  0.00  0.00    +0.000 HD
ENDBRANCH  24  25
BRANCH  24  27
ATOM     27  C   UNL     1       2.868   2.145  19.256  0.00  0.00    +0.000 C 
BRANCH  27  28
ATOM     28  C   UNL     1       2.989   2.776  20.638  0.00  0.00    +0.000 C 
BRANCH  28  29
ATOM     29  C   UNL     1       1.625   3.109  21.214  0.00  0.00    +0.000 C 
BRANCH  29  30
ATOM     30  C   UNL     1       1.011   4.284  20.464  0.00  0.00    +0.000 C 
ATOM     31  C   UNL     1       1.933   5.487  20.505  0.00  0.00    +0.000 C 
ENDBRANCH  29  30
ENDBRANCH  28  29
ENDBRANCH  27  28
ENDBRANCH  24  27
ENDBRANCH  23  24
ENDBRANCH  20  23
ENDBRANCH  19  20
ENDBRANCH  18  19
ENDBRANCH  17  18
ENDBRANCH   1  17
TORSDOF 26
ENDMDL
MODEL 9
REMARK VINA RESULT:      -5.1      4.591      8.867
REMARK  Name = 
REMARK  28 active torsions:
REMARK  status: ('A' for Active; 'I' for Inactive)
REMARK    1  A    between atoms: C_1  and  C_2
REMARK    2  A    between atoms: C_2  and  C_3
REMARK    3  A    between atoms: C_3  and  C_4
REMARK    4  A    between atoms: C_4  and  C_5
REMARK    5  A    between atoms: C_5  and  C_6
REMARK    6  A    between atoms: C_6  and  C_7
REMARK    7  A    between atoms: C_7  and  C_8
REMARK    8  A    between atoms: C_8  and  C_9
REMARK    9  A    between atoms: C_9  and  C_10
REMARK   10  A    between atoms: C_10  and  C_11
REMARK   11  A    between atoms: C_11  and  C_12
REMARK   12  A    between atoms: C_12  and  C_13
REMARK   13  A    between atoms: C_13  and  C_14
REMARK   14  A    between atoms: C_14  and  C_15
REMARK   15  A    between atoms: C_15  and  C_16
REMARK   16  A    between atoms: C_16  and  C_17
REMARK   17  A    between atoms: C_17  and  C_18
REMARK   18  A    between atoms: C_18  and  C_19
REMARK   19  A    between atoms: C_19  and  C_20
REMARK   20  A    between atoms: C_20  and  O_21
REMARK   21  A    between atoms: C_20  and  C_22
REMARK   22  A    between atoms: C_22  and  C_23
REMARK   23  A    between atoms: C_23  and  O_24
REMARK   24  A    between atoms: C_23  and  C_25
REMARK   25  A    between atoms: C_25  and  C_26
REMARK   26  A    between atoms: C_26  and  C_27
REMARK   27  A    between atoms: C_27  and  C_28
REMARK   28  A    between atoms: C_28  and  C_29
REMARK                            x       y       z     vdW  Elec       q    Type
REMARK                         _______ _______ _______ _____ _____    ______ ____
ROOT
ATOM      1  C   UNL     1       2.089   6.292  18.648  0.00  0.00    +0.000 C 
ENDROOT
BRANCH   1   2
ATOM      2  C   UNL     1       2.028   7.596  17.879  0.00  0.00    +0.000 C 
BRANCH   2   3
ATOM      3  C   UNL     1       3.431   8.117  17.637  0.00  0.00    +0.000 C 
BRANCH   3   4
ATOM      4  C   UNL     1       4.334   6.972  17.219  0.00  0.00    +0.000 C 
BRANCH   4   5
ATOM      5  C   UNL     1       5.758   7.472  17.064  0.00  0.00    +0.000 C 
BRANCH   5   6
ATOM      6  C   UNL     1       6.640   6.849  18.129  0.00  0.00    +0.000 C 
BRANCH   6   7
ATOM      7  C   UNL     1       8.055   7.385  18.008  0.00  0.00    +0.000 C 
BRANCH   7   8
ATOM      8  C   UNL     1       8.022   8.885  17.788  0.00  0.00    +0.000 C 
BRANCH   8   9
ATOM      9  C   UNL     1       8.914   9.580  18.803  0.00  0.00    +0.000 C 
BRANCH   9  10
ATOM     10  C   UNL     1       9.181  11.011  18.371  0.00  0.00    +0.000 C 
BRANCH  10  11
ATOM     11  C   UNL     1      10.646  11.357  18.580  0.00  0.00    +0.000 C 
BRANCH  11  12
ATOM     12  C   UNL     1      10.788  12.453  19.625  0.00  0.00    +0.000 C 
BRANCH  12  13
ATOM     13  C   UNL     1       9.418  12.945  20.074  0.00  0.00    +0.000 C 
BRANCH  13  14
ATOM     14  C   UNL     1       9.456  13.362  21.538  0.00  0.00    +0.000 C 
BRANCH  14  16
ATOM     15  C   UNL     1       8.244  11.585  22.822  0.00  0.00    +0.000 C 
ATOM     16  C   UNL     1       8.158  12.986  22.246  0.00  0.00    +0.000 C 
ENDBRANCH  14  16
ENDBRANCH  13  14
ENDBRANCH  12  13
ENDBRANCH  11  12
ENDBRANCH  10  11
ENDBRANCH   9  10
ENDBRANCH   8   9
ENDBRANCH   7   8
ENDBRANCH   6   7
ENDBRANCH   5   6
ENDBRANCH   4   5
ENDBRANCH   3   4
ENDBRANCH   2   3
ENDBRANCH   1   2
BRANCH   1  17
ATOM     17  C   UNL     1       2.204   6.575  20.134  0.00  0.00    +0.000 C 
BRANCH  17  18
ATOM     18  C   UNL     1       1.835   5.325  20.907  0.00  0.00    +0.000 C 
BRANCH  18  19
ATOM     19  C   UNL     1       1.275   4.272  19.975  0.00  0.00    +0.000 C 
BRANCH  19  20
ATOM     20  C   UNL     1       2.096   2.990  20.063  0.00  0.00    +0.000 C 
BRANCH  20  21
ATOM     21  O   UNL     1       1.819   2.332  21.296  0.00  0.00    +0.000 OA
ATOM     22  H   UNL     1       0.965   1.867  21.215  0.00  0.00    +0.000 HD
ENDBRANCH  20  21
BRANCH  20  23
ATOM     23  C   UNL     1       1.780   2.057  18.906  0.00  0.00    +0.000 C 
BRANCH  23  24
ATOM     24  C   UNL     1       2.466   2.468  17.602  0.00  0.00    +0.000 C 
BRANCH  24  25
ATOM     25  O   UNL     1       1.711   3.462  16.929  0.00  0.00    +0.000 OA
ATOM     26  H   UNL     1       2.138   3.627  16.057  0.00  0.00    +0.000 HD
ENDBRANCH  24  25
BRANCH  24  27
ATOM     27  C   UNL     1       3.876   2.986  17.851  0.00  0.00    +0.000 C 
BRANCH  27  28
ATOM     28  C   UNL     1       4.419   3.724  16.633  0.00  0.00    +0.000 C 
BRANCH  28  29
ATOM     29  C   UNL     1       5.931   3.628  16.559  0.00  0.00    +0.000 C 
BRANCH  29  30
ATOM     30  C   UNL     1       6.446   4.392  15.346  0.00  0.00    +0.000 C 
ATOM     31  C   UNL     1       5.850   3.836  14.068  0.00  0.00    +0.000 C 
ENDBRANCH  29  30
ENDBRANCH  28  29
ENDBRANCH  27  28
ENDBRANCH  24  27
ENDBRANCH  23  24
ENDBRANCH  20  23
ENDBRANCH  19  20
ENDBRANCH  18  19
ENDBRANCH  17  18
ENDBRANCH   1  17
TORSDOF 26
ENDMDL
