MODEL 1
REMARK VINA RESULT:      -6.4      0.000      0.000
REMARK  Name = 
REMARK  4 active torsions:
REMARK  status: ('A' for Active; 'I' for Inactive)
REMARK    1  A    between atoms: C_2  and  C_3
REMARK    2  A    between atoms: C_9  and  C_11
REMARK    3  A    between atoms: C_11  and  O_12
REMARK    4  A    between atoms: O_12  and  C_13
REMARK                            x       y       z     vdW  Elec       q    Type
REMARK                         _______ _______ _______ _____ _____    ______ ____
ROOT
ATOM      1  C   UNL     1       9.533  13.014  20.152  0.00  0.00    +0.000 C 
ATOM      2  C   UNL     1      11.059  13.189  19.998  0.00  0.00    +0.000 C 
ATOM      3  C   UNL     1      11.766  11.972  19.395  0.00  0.00    +0.000 C 
ATOM      4  C   UNL     1      11.077  11.490  18.123  0.00  0.00    +0.000 C 
ATOM      5  C   UNL     1       9.565  11.352  18.300  0.00  0.00    +0.000 C 
ATOM      6  N   UNL     1       8.975  12.583  18.846  0.00  0.00    +0.000 N 
ATOM      7  C   UNL     1       8.184  13.361  17.999  0.00  0.00    +0.000 C 
ATOM      8  O   UNL     1       7.911  12.993  16.850  0.00  0.00    +0.000 OA
ENDROOT
BRANCH   1  10
ATOM      9  O   UNL     1       9.161  10.803  21.113  0.00  0.00    +0.000 OA
ATOM     10  C   UNL     1       9.180  12.017  21.315  0.00  0.00    +0.000 C 
ATOM     11  N   UNL     1       8.800  12.514  22.557  0.00  0.00    +0.000 N 
ATOM     12  C   UNL     1       8.588  13.918  22.906  0.00  0.00    +0.000 C 
ATOM     13  C   UNL     1       7.082  14.228  22.904  0.00  0.00    +0.000 C 
ATOM     14  N   UNL     1       6.400  13.329  23.843  0.00  0.00    +0.000 N 
ATOM     15  C   UNL     1       5.910  13.829  25.026  0.00  0.00    +0.000 A 
ATOM     16  N   UNL     1       5.959  15.157  25.237  0.00  0.00    +0.000 NA
ATOM     17  C   UNL     1       5.404  15.645  26.359  0.00  0.00    +0.000 A 
ATOM     18  C   UNL     1       4.792  14.861  27.300  0.00  0.00    +0.000 A 
ATOM     19  C   UNL     1       4.799  13.519  27.019  0.00  0.00    +0.000 A 
ATOM     20  N   UNL     1       5.351  12.988  25.910  0.00  0.00    +0.000 NA
ATOM     21  C   UNL     1       6.666  11.890  23.690  0.00  0.00    +0.000 C 
ATOM     22  C   UNL     1       8.184  11.610  23.544  0.00  0.00    +0.000 C 
ENDBRANCH   1  10
BRANCH   7  23
ATOM     23  C   UNL     1       7.581  14.677  18.506  0.00  0.00    +0.000 C 
BRANCH  23  24
ATOM     24  O   UNL     1       8.077  15.804  17.809  0.00  0.00    +0.000 OA
BRANCH  24  25
ATOM     25  C   UNL     1       9.393  16.126  18.017  0.00  0.00    +0.000 A 
ATOM     26  C   UNL     1       9.680  16.594  19.302  0.00  0.00    +0.000 A 
ATOM     27  C   UNL     1      10.978  16.981  19.649  0.00  0.00    +0.000 A 
ATOM     28  C   UNL     1      12.008  16.886  18.716  0.00  0.00    +0.000 A 
ATOM     29  C   UNL     1      11.733  16.402  17.437  0.00  0.00    +0.000 A 
ATOM     30  C   UNL     1      10.430  16.018  17.088  0.00  0.00    +0.000 A 
ENDBRANCH  24  25
ENDBRANCH  23  24
ENDBRANCH   7  23
TORSDOF 4
ENDMDL
MODEL 2
REMARK VINA RESULT:      -6.4      8.568     10.971
REMARK  Name = 
REMARK  4 active torsions:
REMARK  status: ('A' for Active; 'I' for Inactive)
REMARK    1  A    between atoms: C_2  and  C_3
REMARK    2  A    between atoms: C_9  and  C_11
REMARK    3  A    between atoms: C_11  and  O_12
REMARK    4  A    between atoms: O_12  and  C_13
REMARK                            x       y       z     vdW  Elec       q    Type
REMARK                         _______ _______ _______ _____ _____    ______ ____
ROOT
ATOM      1  C   UNL     1       4.479   5.336  17.217  0.00  0.00    +0.000 C 
ATOM      2  C   UNL     1       4.602   4.397  15.998  0.00  0.00    +0.000 C 
ATOM      3  C   UNL     1       5.658   4.836  14.979  0.00  0.00    +0.000 C 
ATOM      4  C   UNL     1       6.994   5.147  15.647  0.00  0.00    +0.000 C 
ATOM      5  C   UNL     1       6.834   6.058  16.865  0.00  0.00    +0.000 C 
ATOM      6  N   UNL     1       5.830   5.530  17.799  0.00  0.00    +0.000 N 
ATOM      7  C   UNL     1       6.277   5.011  19.017  0.00  0.00    +0.000 C 
ATOM      8  O   UNL     1       7.468   5.067  19.344  0.00  0.00    +0.000 OA
ENDROOT
BRANCH   1  10
ATOM      9  O   UNL     1       4.286   7.427  15.975  0.00  0.00    +0.000 OA
ATOM     10  C   UNL     1       3.790   6.696  16.831  0.00  0.00    +0.000 C 
ATOM     11  N   UNL     1       2.659   7.116  17.525  0.00  0.00    +0.000 N 
ATOM     12  C   UNL     1       2.057   6.465  18.687  0.00  0.00    +0.000 C 
ATOM     13  C   UNL     1       2.478   7.203  19.968  0.00  0.00    +0.000 C 
ATOM     14  N   UNL     1       2.077   8.611  19.870  0.00  0.00    +0.000 N 
ATOM     15  C   UNL     1       1.036   9.075  20.640  0.00  0.00    +0.000 A 
ATOM     16  N   UNL     1       0.492   8.252  21.556  0.00  0.00    +0.000 NA
ATOM     17  C   UNL     1      -0.469   8.739  22.359  0.00  0.00    +0.000 A 
ATOM     18  C   UNL     1      -0.924  10.029  22.294  0.00  0.00    +0.000 A 
ATOM     19  C   UNL     1      -0.332  10.796  21.325  0.00  0.00    +0.000 A 
ATOM     20  N   UNL     1       0.629  10.346  20.494  0.00  0.00    +0.000 NA
ATOM     21  C   UNL     1       2.491   9.333  18.658  0.00  0.00    +0.000 C 
ATOM     22  C   UNL     1       2.194   8.507  17.380  0.00  0.00    +0.000 C 
ENDBRANCH   1  10
BRANCH   7  23
ATOM     23  C   UNL     1       5.274   4.410  20.009  0.00  0.00    +0.000 C 
BRANCH  23  24
ATOM     24  O   UNL     1       4.839   3.119  19.624  0.00  0.00    +0.000 OA
BRANCH  24  25
ATOM     25  C   UNL     1       3.485   2.928  19.531  0.00  0.00    +0.000 A 
ATOM     26  C   UNL     1       2.755   3.419  20.617  0.00  0.00    +0.000 A 
ATOM     27  C   UNL     1       1.365   3.273  20.668  0.00  0.00    +0.000 A 
ATOM     28  C   UNL     1       0.689   2.650  19.622  0.00  0.00    +0.000 A 
ATOM     29  C   UNL     1       1.409   2.175  18.526  0.00  0.00    +0.000 A 
ATOM     30  C   UNL     1       2.804   2.317  18.476  0.00  0.00    +0.000 A 
ENDBRANCH  24  25
ENDBRANCH  23  24
ENDBRANCH   7  23
TORSDOF 4
ENDMDL
MODEL 3
REMARK VINA RESULT:      -6.3      9.322     11.942
REMARK  Name = 
REMARK  4 active torsions:
REMARK  status: ('A' for Active; 'I' for Inactive)
REMARK    1  A    between atoms: C_2  and  C_3
REMARK    2  A    between atoms: C_9  and  C_11
REMARK    3  A    between atoms: C_11  and  O_12
REMARK    4  A    between atoms: O_12  and  C_13
REMARK                            x       y       z     vdW  Elec       q    Type
REMARK                         _______ _______ _______ _____ _____    ______ ____
ROOT
ATOM      1  C   UNL     1      -1.345  13.103  21.164  0.00  0.00    +0.000 C 
ATOM      2  C   UNL     1      -0.909  13.310  22.631  0.00  0.00    +0.000 C 
ATOM      3  C   UNL     1      -0.480  14.744  22.955  0.00  0.00    +0.000 C 
ATOM      4  C   UNL     1      -1.507  15.765  22.475  0.00  0.00    +0.000 C 
ATOM      5  C   UNL     1      -1.937  15.517  21.029  0.00  0.00    +0.000 C 
ATOM      6  N   UNL     1      -2.367  14.125  20.830  0.00  0.00    +0.000 N 
ATOM      7  C   UNL     1      -3.728  13.884  20.626  0.00  0.00    +0.000 C 
ATOM      8  O   UNL     1      -4.541  14.810  20.530  0.00  0.00    +0.000 OA
ENDROOT
BRANCH   1  10
ATOM      9  O   UNL     1      -0.003  14.043  19.357  0.00  0.00    +0.000 OA
ATOM     10  C   UNL     1      -0.115  13.140  20.185  0.00  0.00    +0.000 C 
ATOM     11  N   UNL     1       0.805  12.097  20.196  0.00  0.00    +0.000 N 
ATOM     12  C   UNL     1       0.716  10.865  20.977  0.00  0.00    +0.000 C 
ATOM     13  C   UNL     1       0.216   9.720  20.081  0.00  0.00    +0.000 C 
ATOM     14  N   UNL     1       1.120   9.569  18.936  0.00  0.00    +0.000 N 
ATOM     15  C   UNL     1       1.954   8.478  18.869  0.00  0.00    +0.000 A 
ATOM     16  N   UNL     1       1.830   7.511  19.798  0.00  0.00    +0.000 NA
ATOM     17  C   UNL     1       2.592   6.411  19.678  0.00  0.00    +0.000 A 
ATOM     18  C   UNL     1       3.490   6.223  18.661  0.00  0.00    +0.000 A 
ATOM     19  C   UNL     1       3.568   7.260  17.768  0.00  0.00    +0.000 A 
ATOM     20  N   UNL     1       2.829   8.383  17.855  0.00  0.00    +0.000 NA
ATOM     21  C   UNL     1       1.415  10.785  18.163  0.00  0.00    +0.000 C 
ATOM     22  C   UNL     1       1.775  11.972  19.093  0.00  0.00    +0.000 C 
ENDBRANCH   1  10
BRANCH   7  23
ATOM     23  C   UNL     1      -4.235  12.447  20.456  0.00  0.00    +0.000 C 
BRANCH  23  24
ATOM     24  O   UNL     1      -4.966  12.269  19.257  0.00  0.00    +0.000 OA
BRANCH  24  25
ATOM     25  C   UNL     1      -4.297  11.699  18.206  0.00  0.00    +0.000 A 
ATOM     26  C   UNL     1      -3.023  11.219  18.522  0.00  0.00    +0.000 A 
ATOM     27  C   UNL     1      -2.218  10.632  17.541  0.00  0.00    +0.000 A 
ATOM     28  C   UNL     1      -2.687  10.503  16.236  0.00  0.00    +0.000 A 
ATOM     29  C   UNL     1      -3.965  10.963  15.918  0.00  0.00    +0.000 A 
ATOM     30  C   UNL     1      -4.772  11.555  16.901  0.00  0.00    +0.000 A 
ENDBRANCH  24  25
ENDBRANCH  23  24
ENDBRANCH   7  23
TORSDOF 4
ENDMDL
MODEL 4
REMARK VINA RESULT:      -6.2     10.859     12.564
REMARK  Name = 
REMARK  4 active torsions:
REMARK  status: ('A' for Active; 'I' for Inactive)
REMARK    1  A    between atoms: C_2  and  C_3
REMARK    2  A    between atoms: C_9  and  C_11
REMARK    3  A    between atoms: C_11  and  O_12
REMARK    4  A    between atoms: O_12  and  C_13
REMARK                            x       y       z     vdW  Elec       q    Type
REMARK                         _______ _______ _______ _____ _____    ______ ____
ROOT
ATOM      1  C   UNL     1      -0.410  12.484  19.082  0.00  0.00    +0.000 C 
ATOM      2  C   UNL     1       0.994  12.839  18.547  0.00  0.00    +0.000 C 
ATOM      3  C   UNL     1       2.075  11.817  18.909  0.00  0.00    +0.000 C 
ATOM      4  C   UNL     1       1.639  10.392  18.580  0.00  0.00    +0.000 C 
ATOM      5  C   UNL     1       0.236  10.081  19.102  0.00  0.00    +0.000 C 
ATOM      6  N   UNL     1      -0.734  11.096  18.668  0.00  0.00    +0.000 N 
ATOM      7  C   UNL     1      -1.679  10.731  17.707  0.00  0.00    +0.000 C 
ATOM      8  O   UNL     1      -1.761   9.570  17.290  0.00  0.00    +0.000 OA
ENDROOT
BRANCH   1  10
ATOM      9  O   UNL     1       0.368  12.224  21.380  0.00  0.00    +0.000 OA
ATOM     10  C   UNL     1      -0.501  12.683  20.640  0.00  0.00    +0.000 C 
ATOM     11  N   UNL     1      -1.617  13.305  21.190  0.00  0.00    +0.000 N 
ATOM     12  C   UNL     1      -2.817  13.735  20.475  0.00  0.00    +0.000 C 
ATOM     13  C   UNL     1      -3.938  12.704  20.682  0.00  0.00    +0.000 C 
ATOM     14  N   UNL     1      -4.193  12.546  22.119  0.00  0.00    +0.000 N 
ATOM     15  C   UNL     1      -5.352  13.051  22.661  0.00  0.00    +0.000 A 
ATOM     16  N   UNL     1      -6.280  13.569  21.836  0.00  0.00    +0.000 NA
ATOM     17  C   UNL     1      -7.443  13.985  22.366  0.00  0.00    +0.000 A 
ATOM     18  C   UNL     1      -7.731  13.910  23.703  0.00  0.00    +0.000 A 
ATOM     19  C   UNL     1      -6.728  13.387  24.477  0.00  0.00    +0.000 A 
ATOM     20  N   UNL     1      -5.545  12.965  23.987  0.00  0.00    +0.000 NA
ATOM     21  C   UNL     1      -3.026  12.269  22.970  0.00  0.00    +0.000 C 
ATOM     22  C   UNL     1      -1.850  13.225  22.643  0.00  0.00    +0.000 C 
ENDBRANCH   1  10
BRANCH   7  23
ATOM     23  C   UNL     1      -2.686  11.765  17.189  0.00  0.00    +0.000 C 
BRANCH  23  24
ATOM     24  O   UNL     1      -3.854  11.166  16.661  0.00  0.00    +0.000 OA
BRANCH  24  25
ATOM     25  C   UNL     1      -5.008  11.321  17.385  0.00  0.00    +0.000 A 
ATOM     26  C   UNL     1      -5.720  12.488  17.096  0.00  0.00    +0.000 A 
ATOM     27  C   UNL     1      -6.905  12.788  17.775  0.00  0.00    +0.000 A 
ATOM     28  C   UNL     1      -7.399  11.913  18.739  0.00  0.00    +0.000 A 
ATOM     29  C   UNL     1      -6.703  10.737  19.019  0.00  0.00    +0.000 A 
ATOM     30  C   UNL     1      -5.512  10.438  18.341  0.00  0.00    +0.000 A 
ENDBRANCH  24  25
ENDBRANCH  23  24
ENDBRANCH   7  23
TORSDOF 4
ENDMDL
MODEL 5
REMARK VINA RESULT:      -6.1      1.804      3.138
REMARK  Name = 
REMARK  4 active torsions:
REMARK  status: ('A' for Active; 'I' for Inactive)
REMARK    1  A    between atoms: C_2  and  C_3
REMARK    2  A    between atoms: C_9  and  C_11
REMARK    3  A    between atoms: C_11  and  O_12
REMARK    4  A    between atoms: O_12  and  C_13
REMARK                            x       y       z     vdW  Elec       q    Type
REMARK                         _______ _______ _______ _____ _____    ______ ____
ROOT
ATOM      1  C   UNL     1       9.399  12.986  20.150  0.00  0.00    +0.000 C 
ATOM      2  C   UNL     1      10.906  13.315  20.068  0.00  0.00    +0.000 C 
ATOM      3  C   UNL     1      11.765  12.164  19.536  0.00  0.00    +0.000 C 
ATOM      4  C   UNL     1      11.196  11.581  18.246  0.00  0.00    +0.000 C 
ATOM      5  C   UNL     1       9.698  11.291  18.353  0.00  0.00    +0.000 C 
ATOM      6  N   UNL     1       8.958  12.467  18.832  0.00  0.00    +0.000 N 
ATOM      7  C   UNL     1       8.137  13.139  17.924  0.00  0.00    +0.000 C 
ATOM      8  O   UNL     1       7.964  12.716  16.775  0.00  0.00    +0.000 OA
ENDROOT
BRANCH   1  10
ATOM      9  O   UNL     1       9.099  10.771  21.128  0.00  0.00    +0.000 OA
ATOM     10  C   UNL     1       9.090  11.986  21.324  0.00  0.00    +0.000 C 
ATOM     11  N   UNL     1       8.719  12.480  22.570  0.00  0.00    +0.000 N 
ATOM     12  C   UNL     1       8.477  13.879  22.915  0.00  0.00    +0.000 C 
ATOM     13  C   UNL     1       6.964  14.152  22.937  0.00  0.00    +0.000 C 
ATOM     14  N   UNL     1       6.320  13.241  23.890  0.00  0.00    +0.000 N 
ATOM     15  C   UNL     1       5.836  13.735  25.079  0.00  0.00    +0.000 A 
ATOM     16  N   UNL     1       5.857  15.065  25.283  0.00  0.00    +0.000 NA
ATOM     17  C   UNL     1       5.308  15.545  26.412  0.00  0.00    +0.000 A 
ATOM     18  C   UNL     1       4.731  14.751  27.366  0.00  0.00    +0.000 A 
ATOM     19  C   UNL     1       4.766  13.408  27.091  0.00  0.00    +0.000 A 
ATOM     20  N   UNL     1       5.313  12.885  25.976  0.00  0.00    +0.000 NA
ATOM     21  C   UNL     1       6.619  11.809  23.740  0.00  0.00    +0.000 C 
ATOM     22  C   UNL     1       8.141  11.566  23.571  0.00  0.00    +0.000 C 
ENDBRANCH   1  10
BRANCH   7  23
ATOM     23  C   UNL     1       7.376  14.396  18.361  0.00  0.00    +0.000 C 
BRANCH  23  24
ATOM     24  O   UNL     1       6.223  14.633  17.575  0.00  0.00    +0.000 OA
BRANCH  24  25
ATOM     25  C   UNL     1       5.139  15.169  18.219  0.00  0.00    +0.000 A 
ATOM     26  C   UNL     1       5.326  15.387  19.586  0.00  0.00    +0.000 A 
ATOM     27  C   UNL     1       4.295  15.909  20.374  0.00  0.00    +0.000 A 
ATOM     28  C   UNL     1       3.071  16.237  19.796  0.00  0.00    +0.000 A 
ATOM     29  C   UNL     1       2.883  16.040  18.428  0.00  0.00    +0.000 A 
ATOM     30  C   UNL     1       3.916  15.512  17.638  0.00  0.00    +0.000 A 
ENDBRANCH  24  25
ENDBRANCH  23  24
ENDBRANCH   7  23
TORSDOF 4
ENDMDL
MODEL 6
REMARK VINA RESULT:      -6.0      3.115      6.279
REMARK  Name = 
REMARK  4 active torsions:
REMARK  status: ('A' for Active; 'I' for Inactive)
REMARK    1  A    between atoms: C_2  and  C_3
REMARK    2  A    between atoms: C_9  and  C_11
REMARK    3  A    between atoms: C_11  and  O_12
REMARK    4  A    between atoms: O_12  and  C_13
REMARK                            x       y       z     vdW  Elec       q    Type
REMARK                         _______ _______ _______ _____ _____    ______ ____
ROOT
ATOM      1  C   UNL     1       8.304  14.700  24.489  0.00  0.00    +0.000 C 
ATOM      2  C   UNL     1       9.134  14.917  25.773  0.00  0.00    +0.000 C 
ATOM      3  C   UNL     1       8.410  14.503  27.058  0.00  0.00    +0.000 C 
ATOM      4  C   UNL     1       7.814  13.103  26.946  0.00  0.00    +0.000 C 
ATOM      5  C   UNL     1       7.021  12.913  25.653  0.00  0.00    +0.000 C 
ATOM      6  N   UNL     1       7.814  13.299  24.477  0.00  0.00    +0.000 N 
ATOM      7  C   UNL     1       8.261  12.285  23.626  0.00  0.00    +0.000 C 
ATOM      8  O   UNL     1       7.933  11.106  23.800  0.00  0.00    +0.000 OA
ENDROOT
BRANCH   1  10
ATOM      9  O   UNL     1       6.556  16.150  25.380  0.00  0.00    +0.000 OA
ATOM     10  C   UNL     1       7.136  15.746  24.372  0.00  0.00    +0.000 C 
ATOM     11  N   UNL     1       6.697  16.151  23.116  0.00  0.00    +0.000 N 
ATOM     12  C   UNL     1       7.145  15.629  21.826  0.00  0.00    +0.000 C 
ATOM     13  C   UNL     1       6.112  14.626  21.288  0.00  0.00    +0.000 C 
ATOM     14  N   UNL     1       4.806  15.286  21.179  0.00  0.00    +0.000 N 
ATOM     15  C   UNL     1       4.299  15.585  19.937  0.00  0.00    +0.000 A 
ATOM     16  N   UNL     1       4.961  15.153  18.847  0.00  0.00    +0.000 NA
ATOM     17  C   UNL     1       4.416  15.380  17.639  0.00  0.00    +0.000 A 
ATOM     18  C   UNL     1       3.224  16.030  17.460  0.00  0.00    +0.000 A 
ATOM     19  C   UNL     1       2.622  16.452  18.617  0.00  0.00    +0.000 A 
ATOM     20  N   UNL     1       3.138  16.253  19.847  0.00  0.00    +0.000 NA
ATOM     21  C   UNL     1       4.320  15.988  22.376  0.00  0.00    +0.000 C 
ATOM     22  C   UNL     1       5.425  16.884  22.993  0.00  0.00    +0.000 C 
ENDBRANCH   1  10
BRANCH   7  23
ATOM     23  C   UNL     1       9.127  12.631  22.410  0.00  0.00    +0.000 C 
BRANCH  23  24
ATOM     24  O   UNL     1       8.703  11.963  21.236  0.00  0.00    +0.000 OA
BRANCH  24  25
ATOM     25  C   UNL     1       9.628  11.836  20.232  0.00  0.00    +0.000 A 
ATOM     26  C   UNL     1      10.951  12.031  20.635  0.00  0.00    +0.000 A 
ATOM     27  C   UNL     1      11.998  11.953  19.711  0.00  0.00    +0.000 A 
ATOM     28  C   UNL     1      11.732  11.661  18.376  0.00  0.00    +0.000 A 
ATOM     29  C   UNL     1      10.415  11.446  17.970  0.00  0.00    +0.000 A 
ATOM     30  C   UNL     1       9.364  11.528  18.896  0.00  0.00    +0.000 A 
ENDBRANCH  24  25
ENDBRANCH  23  24
ENDBRANCH   7  23
TORSDOF 4
ENDMDL
MODEL 7
REMARK VINA RESULT:      -6.0     10.111     12.849
REMARK  Name = 
REMARK  4 active torsions:
REMARK  status: ('A' for Active; 'I' for Inactive)
REMARK    1  A    between atoms: C_2  and  C_3
REMARK    2  A    between atoms: C_9  and  C_11
REMARK    3  A    between atoms: C_11  and  O_12
REMARK    4  A    between atoms: O_12  and  C_13
REMARK                            x       y       z     vdW  Elec       q    Type
REMARK                         _______ _______ _______ _____ _____    ______ ____
ROOT
ATOM      1  C   UNL     1      -3.599  13.436  20.928  0.00  0.00    +0.000 C 
ATOM      2  C   UNL     1      -3.099  12.466  22.020  0.00  0.00    +0.000 C 
ATOM      3  C   UNL     1      -3.593  12.807  23.429  0.00  0.00    +0.000 C 
ATOM      4  C   UNL     1      -5.101  13.034  23.460  0.00  0.00    +0.000 C 
ATOM      5  C   UNL     1      -5.568  13.978  22.351  0.00  0.00    +0.000 C 
ATOM      6  N   UNL     1      -5.075  13.544  21.036  0.00  0.00    +0.000 N 
ATOM      7  C   UNL     1      -6.001  13.019  20.132  0.00  0.00    +0.000 C 
ATOM      8  O   UNL     1      -7.210  12.995  20.386  0.00  0.00    +0.000 OA
ENDROOT
BRANCH   1  10
ATOM      9  O   UNL     1      -3.547  15.869  21.115  0.00  0.00    +0.000 OA
ATOM     10  C   UNL     1      -2.886  14.834  21.027  0.00  0.00    +0.000 C 
ATOM     11  N   UNL     1      -1.500  14.909  20.925  0.00  0.00    +0.000 N 
ATOM     12  C   UNL     1      -0.588  13.807  20.629  0.00  0.00    +0.000 C 
ATOM     13  C   UNL     1      -0.178  13.859  19.148  0.00  0.00    +0.000 C 
ATOM     14  N   UNL     1       0.436  15.160  18.860  0.00  0.00    +0.000 N 
ATOM     15  C   UNL     1       1.791  15.236  18.636  0.00  0.00    +0.000 A 
ATOM     16  N   UNL     1       2.499  14.094  18.565  0.00  0.00    +0.000 NA
ATOM     17  C   UNL     1       3.807  14.174  18.264  0.00  0.00    +0.000 A 
ATOM     18  C   UNL     1       4.456  15.357  18.029  0.00  0.00    +0.000 A 
ATOM     19  C   UNL     1       3.668  16.473  18.137  0.00  0.00    +0.000 A 
ATOM     20  N   UNL     1       2.356  16.439  18.444  0.00  0.00    +0.000 NA
ATOM     21  C   UNL     1      -0.325  16.353  19.263  0.00  0.00    +0.000 C 
ATOM     22  C   UNL     1      -0.858  16.218  20.713  0.00  0.00    +0.000 C 
ENDBRANCH   1  10
BRANCH   7  23
ATOM     23  C   UNL     1      -5.532  12.512  18.762  0.00  0.00    +0.000 C 
BRANCH  23  24
ATOM     24  O   UNL     1      -4.995  11.203  18.824  0.00  0.00    +0.000 OA
BRANCH  24  25
ATOM     25  C   UNL     1      -4.145  10.838  17.813  0.00  0.00    +0.000 A 
ATOM     26  C   UNL     1      -4.542  11.260  16.541  0.00  0.00    +0.000 A 
ATOM     27  C   UNL     1      -3.781  10.939  15.412  0.00  0.00    +0.000 A 
ATOM     28  C   UNL     1      -2.604  10.208  15.548  0.00  0.00    +0.000 A 
ATOM     29  C   UNL     1      -2.192   9.800  16.817  0.00  0.00    +0.000 A 
ATOM     30  C   UNL     1      -2.957  10.118  17.949  0.00  0.00    +0.000 A 
ENDBRANCH  24  25
ENDBRANCH  23  24
ENDBRANCH   7  23
TORSDOF 4
ENDMDL
MODEL 8
REMARK VINA RESULT:      -5.9      9.123     10.585
REMARK  Name = 
REMARK  4 active torsions:
REMARK  status: ('A' for Active; 'I' for Inactive)
REMARK    1  A    between atoms: C_2  and  C_3
REMARK    2  A    between atoms: C_9  and  C_11
REMARK    3  A    between atoms: C_11  and  O_12
REMARK    4  A    between atoms: O_12  and  C_13
REMARK                            x       y       z     vdW  Elec       q    Type
REMARK                         _______ _______ _______ _____ _____    ______ ____
ROOT
ATOM      1  C   UNL     1       0.057  12.037  21.322  0.00  0.00    +0.000 C 
ATOM      2  C   UNL     1       1.054  10.863  21.224  0.00  0.00    +0.000 C 
ATOM      3  C   UNL     1       0.465   9.597  20.596  0.00  0.00    +0.000 C 
ATOM      4  C   UNL     1      -0.255   9.897  19.285  0.00  0.00    +0.000 C 
ATOM      5  C   UNL     1      -1.215  11.081  19.409  0.00  0.00    +0.000 C 
ATOM      6  N   UNL     1      -0.545  12.256  19.984  0.00  0.00    +0.000 N 
ATOM      7  C   UNL     1      -0.293  13.342  19.143  0.00  0.00    +0.000 C 
ATOM      8  O   UNL     1      -0.693  13.360  17.973  0.00  0.00    +0.000 OA
ENDROOT
BRANCH   1  10
ATOM      9  O   UNL     1      -1.241  10.644  22.848  0.00  0.00    +0.000 OA
ATOM     10  C   UNL     1      -1.026  11.783  22.434  0.00  0.00    +0.000 C 
ATOM     11  N   UNL     1      -1.807  12.841  22.888  0.00  0.00    +0.000 N 
ATOM     12  C   UNL     1      -1.811  14.207  22.369  0.00  0.00    +0.000 C 
ATOM     13  C   UNL     1      -3.018  14.401  21.436  0.00  0.00    +0.000 C 
ATOM     14  N   UNL     1      -4.252  14.098  22.170  0.00  0.00    +0.000 N 
ATOM     15  C   UNL     1      -5.100  15.122  22.523  0.00  0.00    +0.000 A 
ATOM     16  N   UNL     1      -4.834  16.364  22.078  0.00  0.00    +0.000 NA
ATOM     17  C   UNL     1      -5.712  17.343  22.360  0.00  0.00    +0.000 A 
ATOM     18  C   UNL     1      -6.860  17.142  23.078  0.00  0.00    +0.000 A 
ATOM     19  C   UNL     1      -7.048  15.854  23.508  0.00  0.00    +0.000 A 
ATOM     20  N   UNL     1      -6.191  14.845  23.255  0.00  0.00    +0.000 NA
ATOM     21  C   UNL     1      -4.303  12.808  22.873  0.00  0.00    +0.000 C 
ATOM     22  C   UNL     1      -3.010  12.561  23.693  0.00  0.00    +0.000 C 
ENDBRANCH   1  10
BRANCH   7  23
ATOM     23  C   UNL     1       0.441  14.575  19.682  0.00  0.00    +0.000 C 
BRANCH  23  24
ATOM     24  O   UNL     1      -0.323  15.760  19.554  0.00  0.00    +0.000 OA
BRANCH  24  25
ATOM     25  C   UNL     1       0.063  16.640  18.577  0.00  0.00    +0.000 A 
ATOM     26  C   UNL     1       1.431  16.623  18.290  0.00  0.00    +0.000 A 
ATOM     27  C   UNL     1       1.970  17.485  17.330  0.00  0.00    +0.000 A 
ATOM     28  C   UNL     1       1.141  18.360  16.632  0.00  0.00    +0.000 A 
ATOM     29  C   UNL     1      -0.228  18.368  16.899  0.00  0.00    +0.000 A 
ATOM     30  C   UNL     1      -0.769  17.507  17.866  0.00  0.00    +0.000 A 
ENDBRANCH  24  25
ENDBRANCH  23  24
ENDBRANCH   7  23
TORSDOF 4
ENDMDL
MODEL 9
REMARK VINA RESULT:      -5.9      9.496     12.383
REMARK  Name = 
REMARK  4 active torsions:
REMARK  status: ('A' for Active; 'I' for Inactive)
REMARK    1  A    between atoms: C_2  and  C_3
REMARK    2  A    between atoms: C_9  and  C_11
REMARK    3  A    between atoms: C_11  and  O_12
REMARK    4  A    between atoms: O_12  and  C_13
REMARK                            x       y       z     vdW  Elec       q    Type
REMARK                         _______ _______ _______ _____ _____    ______ ____
ROOT
ATOM      1  C   UNL     1      -2.953  13.082  22.513  0.00  0.00    +0.000 C 
ATOM      2  C   UNL     1      -3.212  12.080  23.658  0.00  0.00    +0.000 C 
ATOM      3  C   UNL     1      -4.197  12.586  24.717  0.00  0.00    +0.000 C 
ATOM      4  C   UNL     1      -5.472  13.135  24.086  0.00  0.00    +0.000 C 
ATOM      5  C   UNL     1      -5.181  14.105  22.940  0.00  0.00    +0.000 C 
ATOM      6  N   UNL     1      -4.261  13.512  21.959  0.00  0.00    +0.000 N 
ATOM      7  C   UNL     1      -4.774  13.157  20.710  0.00  0.00    +0.000 C 
ATOM      8  O   UNL     1      -5.944  13.408  20.398  0.00  0.00    +0.000 OA
ENDROOT
BRANCH   1  10
ATOM      9  O   UNL     1      -2.579  15.209  23.649  0.00  0.00    +0.000 OA
ATOM     10  C   UNL     1      -2.076  14.295  22.996  0.00  0.00    +0.000 C 
ATOM     11  N   UNL     1      -0.743  14.380  22.606  0.00  0.00    +0.000 N 
ATOM     12  C   UNL     1      -0.047  13.487  21.682  0.00  0.00    +0.000 C 
ATOM     13  C   UNL     1       0.049  14.149  20.298  0.00  0.00    +0.000 C 
ATOM     14  N   UNL     1       0.737  15.439  20.424  0.00  0.00    +0.000 N 
ATOM     15  C   UNL     1       2.015  15.576  19.934  0.00  0.00    +0.000 A 
ATOM     16  N   UNL     1       2.555  14.557  19.241  0.00  0.00    +0.000 NA
ATOM     17  C   UNL     1       3.772  14.731  18.697  0.00  0.00    +0.000 A 
ATOM     18  C   UNL     1       4.491  15.890  18.813  0.00  0.00    +0.000 A 
ATOM     19  C   UNL     1       3.878  16.872  19.547  0.00  0.00    +0.000 A 
ATOM     20  N   UNL     1       2.664  16.737  20.116  0.00  0.00    +0.000 NA
ATOM     21  C   UNL     1       0.221  16.365  21.443  0.00  0.00    +0.000 C 
ATOM     22  C   UNL     1      -0.011  15.644  22.796  0.00  0.00    +0.000 C 
ENDBRANCH   1  10
BRANCH   7  23
ATOM     23  C   UNL     1      -3.866  12.496  19.666  0.00  0.00    +0.000 C 
BRANCH  23  24
ATOM     24  O   UNL     1      -4.583  11.666  18.772  0.00  0.00    +0.000 OA
BRANCH  24  25
ATOM     25  C   UNL     1      -3.861  11.069  17.772  0.00  0.00    +0.000 A 
ATOM     26  C   UNL     1      -4.384  11.256  16.489  0.00  0.00    +0.000 A 
ATOM     27  C   UNL     1      -3.762  10.684  15.375  0.00  0.00    +0.000 A 
ATOM     28  C   UNL     1      -2.599   9.935  15.530  0.00  0.00    +0.000 A 
ATOM     29  C   UNL     1      -2.060   9.762  16.805  0.00  0.00    +0.000 A 
ATOM     30  C   UNL     1      -2.686  10.331  17.925  0.00  0.00    +0.000 A 
ENDBRANCH  24  25
ENDBRANCH  23  24
ENDBRANCH   7  23
TORSDOF 4
ENDMDL
