MODEL 1
REMARK VINA RESULT:      -7.0      0.000      0.000
REMARK  Name = 
REMARK  5 active torsions:
REMARK  status: ('A' for Active; 'I' for Inactive)
REMARK    1  A    between atoms: N_11  and  C_12
REMARK    2  A    between atoms: C_12  and  C_13
REMARK    3  A    between atoms: C_13  and  S_14
REMARK    4  A    between atoms: S_14  and  C_15
REMARK    5  A    between atoms: C_15  and  N_17
REMARK                            x       y       z     vdW  Elec       q    Type
REMARK                         _______ _______ _______ _____ _____    ______ ____
ROOT
ATOM      1  C   UNL     1       2.787   6.750  17.969  0.00  0.00    +0.000 C 
ENDROOT
BRANCH   1  12
ATOM      2  O   UNL     1       1.938   9.525  17.374  0.00  0.00    +0.000 OA
ATOM      3  C   UNL     1       1.787   8.983  18.450  0.00  0.00    +0.000 C 
ATOM      4  C   UNL     1       1.154   9.613  19.607  0.00  0.00    +0.000 A 
ATOM      5  C   UNL     1       0.613  10.875  19.760  0.00  0.00    +0.000 A 
ATOM      6  C   UNL     1       0.059  11.187  21.007  0.00  0.00    +0.000 A 
ATOM      7  C   UNL     1       0.059  10.244  22.056  0.00  0.00    +0.000 A 
ATOM      8  C   UNL     1       0.613   8.971  21.877  0.00  0.00    +0.000 A 
ATOM      9  C   UNL     1       1.150   8.687  20.637  0.00  0.00    +0.000 A 
ATOM     10  C   UNL     1       1.776   7.464  20.132  0.00  0.00    +0.000 C 
ATOM     11  O   UNL     1       1.907   6.442  20.777  0.00  0.00    +0.000 OA
ATOM     12  N   UNL     1       2.142   7.720  18.840  0.00  0.00    +0.000 N 
ENDBRANCH   1  12
BRANCH   1  13
ATOM     13  C   UNL     1       4.305   6.956  17.901  0.00  0.00    +0.000 C 
BRANCH  13  14
ATOM     14  S   UNL     1       5.135   5.593  18.771  0.00  0.00    +0.000 S 
BRANCH  14  15
ATOM     15  C   UNL     1       4.584   4.175  17.863  0.00  0.00    +0.000 C 
ATOM     16  S   UNL     1       5.119   3.925  16.286  0.00  0.00    +0.000 S 
BRANCH  15  17
ATOM     17  N   UNL     1       3.813   3.256  18.604  0.00  0.00    +0.000 N 
ATOM     18  C   UNL     1       2.541   2.722  18.102  0.00  0.00    +0.000 C 
ATOM     19  C   UNL     1       1.330   3.432  18.701  0.00  0.00    +0.000 C 
ATOM     20  C   UNL     1       1.012   3.029  20.139  0.00  0.00    +0.000 C 
ATOM     21  C   UNL     1       2.172   3.176  21.122  0.00  0.00    +0.000 C 
ATOM     22  C   UNL     1       3.299   2.178  20.860  0.00  0.00    +0.000 C 
ATOM     23  C   UNL     1       4.338   2.663  19.843  0.00  0.00    +0.000 C 
ENDBRANCH  15  17
ENDBRANCH  14  15
ENDBRANCH  13  14
ENDBRANCH   1  13
TORSDOF 5
ENDMDL
MODEL 2
REMARK VINA RESULT:      -7.0      0.047      1.824
REMARK  Name = 
REMARK  5 active torsions:
REMARK  status: ('A' for Active; 'I' for Inactive)
REMARK    1  A    between atoms: N_11  and  C_12
REMARK    2  A    between atoms: C_12  and  C_13
REMARK    3  A    between atoms: C_13  and  S_14
REMARK    4  A    between atoms: S_14  and  C_15
REMARK    5  A    between atoms: C_15  and  N_17
REMARK                            x       y       z     vdW  Elec       q    Type
REMARK                         _______ _______ _______ _____ _____    ______ ____
ROOT
ATOM      1  C   UNL     1       2.761   6.775  17.933  0.00  0.00    +0.000 C 
ENDROOT
BRANCH   1  12
ATOM      2  O   UNL     1       1.920   6.428  20.753  0.00  0.00    +0.000 OA
ATOM      3  C   UNL     1       1.759   7.449  20.115  0.00  0.00    +0.000 C 
ATOM      4  C   UNL     1       1.139   8.662  20.645  0.00  0.00    +0.000 A 
ATOM      5  C   UNL     1       0.621   8.934  21.897  0.00  0.00    +0.000 A 
ATOM      6  C   UNL     1       0.097  10.214  22.108  0.00  0.00    +0.000 A 
ATOM      7  C   UNL     1       0.100  11.178  21.078  0.00  0.00    +0.000 A 
ATOM      8  C   UNL     1       0.630  10.878  19.818  0.00  0.00    +0.000 A 
ATOM      9  C   UNL     1       1.145   9.610  19.636  0.00  0.00    +0.000 A 
ATOM     10  C   UNL     1       1.776   9.002  18.464  0.00  0.00    +0.000 C 
ATOM     11  O   UNL     1       1.966   9.576  17.409  0.00  0.00    +0.000 OA
ATOM     12  N   UNL     1       2.098   7.720  18.817  0.00  0.00    +0.000 N 
ENDBRANCH   1  12
BRANCH   1  13
ATOM     13  C   UNL     1       4.279   6.985  17.900  0.00  0.00    +0.000 C 
BRANCH  13  14
ATOM     14  S   UNL     1       5.093   5.627  18.793  0.00  0.00    +0.000 S 
BRANCH  14  15
ATOM     15  C   UNL     1       4.555   4.203  17.886  0.00  0.00    +0.000 C 
ATOM     16  S   UNL     1       5.091   3.957  16.308  0.00  0.00    +0.000 S 
BRANCH  15  17
ATOM     17  N   UNL     1       3.792   3.278  18.627  0.00  0.00    +0.000 N 
ATOM     18  C   UNL     1       2.516   2.745  18.133  0.00  0.00    +0.000 C 
ATOM     19  C   UNL     1       1.310   3.449  18.749  0.00  0.00    +0.000 C 
ATOM     20  C   UNL     1       1.005   3.036  20.186  0.00  0.00    +0.000 C 
ATOM     21  C   UNL     1       2.174   3.177  21.160  0.00  0.00    +0.000 C 
ATOM     22  C   UNL     1       3.300   2.183  20.880  0.00  0.00    +0.000 C 
ATOM     23  C   UNL     1       4.330   2.676  19.857  0.00  0.00    +0.000 C 
ENDBRANCH  15  17
ENDBRANCH  14  15
ENDBRANCH  13  14
ENDBRANCH   1  13
TORSDOF 5
ENDMDL
MODEL 3
REMARK VINA RESULT:      -6.8      3.612      6.834
REMARK  Name = 
REMARK  5 active torsions:
REMARK  status: ('A' for Active; 'I' for Inactive)
REMARK    1  A    between atoms: N_11  and  C_12
REMARK    2  A    between atoms: C_12  and  C_13
REMARK    3  A    between atoms: C_13  and  S_14
REMARK    4  A    between atoms: S_14  and  C_15
REMARK    5  A    between atoms: C_15  and  N_17
REMARK                            x       y       z     vdW  Elec       q    Type
REMARK                         _______ _______ _______ _____ _____    ______ ____
ROOT
ATOM      1  C   UNL     1       5.753   4.829  18.223  0.00  0.00    +0.000 C 
ENDROOT
BRANCH   1  12
ATOM      2  O   UNL     1       7.737   6.277  16.567  0.00  0.00    +0.000 OA
ATOM      3  C   UNL     1       6.981   5.429  16.137  0.00  0.00    +0.000 C 
ATOM      4  C   UNL     1       6.945   4.988  14.744  0.00  0.00    +0.000 A 
ATOM      5  C   UNL     1       7.694   5.388  13.654  0.00  0.00    +0.000 A 
ATOM      6  C   UNL     1       7.430   4.761  12.431  0.00  0.00    +0.000 A 
ATOM      7  C   UNL     1       6.437   3.765  12.327  0.00  0.00    +0.000 A 
ATOM      8  C   UNL     1       5.690   3.377  13.445  0.00  0.00    +0.000 A 
ATOM      9  C   UNL     1       5.973   4.008  14.641  0.00  0.00    +0.000 A 
ATOM     10  C   UNL     1       5.394   3.820  15.972  0.00  0.00    +0.000 C 
ATOM     11  O   UNL     1       4.528   3.009  16.238  0.00  0.00    +0.000 OA
ATOM     12  N   UNL     1       6.027   4.705  16.800  0.00  0.00    +0.000 N 
ENDBRANCH   1  12
BRANCH   1  13
ATOM     13  C   UNL     1       5.225   6.220  18.589  0.00  0.00    +0.000 C 
BRANCH  13  14
ATOM     14  S   UNL     1       3.662   6.519  17.710  0.00  0.00    +0.000 S 
BRANCH  14  15
ATOM     15  C   UNL     1       2.470   6.424  19.017  0.00  0.00    +0.000 C 
ATOM     16  S   UNL     1       1.980   7.824  19.814  0.00  0.00    +0.000 S 
BRANCH  15  17
ATOM     17  N   UNL     1       1.900   5.149  19.212  0.00  0.00    +0.000 N 
ATOM     18  C   UNL     1       1.272   4.761  20.482  0.00  0.00    +0.000 C 
ATOM     19  C   UNL     1       2.194   3.914  21.355  0.00  0.00    +0.000 C 
ATOM     20  C   UNL     1       2.334   2.463  20.902  0.00  0.00    +0.000 C 
ATOM     21  C   UNL     1       2.773   2.281  19.450  0.00  0.00    +0.000 C 
ATOM     22  C   UNL     1       1.704   2.721  18.450  0.00  0.00    +0.000 C 
ATOM     23  C   UNL     1       1.761   4.209  18.089  0.00  0.00    +0.000 C 
ENDBRANCH  15  17
ENDBRANCH  14  15
ENDBRANCH  13  14
ENDBRANCH   1  13
TORSDOF 5
ENDMDL
MODEL 4
REMARK VINA RESULT:      -6.7      3.624      6.955
REMARK  Name = 
REMARK  5 active torsions:
REMARK  status: ('A' for Active; 'I' for Inactive)
REMARK    1  A    between atoms: N_11  and  C_12
REMARK    2  A    between atoms: C_12  and  C_13
REMARK    3  A    between atoms: C_13  and  S_14
REMARK    4  A    between atoms: S_14  and  C_15
REMARK    5  A    between atoms: C_15  and  N_17
REMARK                            x       y       z     vdW  Elec       q    Type
REMARK                         _______ _______ _______ _____ _____    ______ ____
ROOT
ATOM      1  C   UNL     1       5.976   4.717  18.278  0.00  0.00    +0.000 C 
ENDROOT
BRANCH   1  12
ATOM      2  O   UNL     1       4.661   2.939  16.306  0.00  0.00    +0.000 OA
ATOM      3  C   UNL     1       5.531   3.740  16.027  0.00  0.00    +0.000 C 
ATOM      4  C   UNL     1       6.049   3.955  14.677  0.00  0.00    +0.000 A 
ATOM      5  C   UNL     1       5.714   3.355  13.479  0.00  0.00    +0.000 A 
ATOM      6  C   UNL     1       6.391   3.792  12.334  0.00  0.00    +0.000 A 
ATOM      7  C   UNL     1       7.373   4.801  12.413  0.00  0.00    +0.000 A 
ATOM      8  C   UNL     1       7.695   5.393  13.639  0.00  0.00    +0.000 A 
ATOM      9  C   UNL     1       7.011   4.949  14.753  0.00  0.00    +0.000 A 
ATOM     10  C   UNL     1       7.100   5.370  16.152  0.00  0.00    +0.000 C 
ATOM     11  O   UNL     1       7.833   6.250  16.560  0.00  0.00    +0.000 OA
ATOM     12  N   UNL     1       6.209   4.601  16.847  0.00  0.00    +0.000 N 
ENDBRANCH   1  12
BRANCH   1  13
ATOM     13  C   UNL     1       5.294   6.040  18.646  0.00  0.00    +0.000 C 
BRANCH  13  14
ATOM     14  S   UNL     1       3.792   6.241  17.642  0.00  0.00    +0.000 S 
BRANCH  14  15
ATOM     15  C   UNL     1       2.523   6.323  18.875  0.00  0.00    +0.000 C 
ATOM     16  S   UNL     1       2.050   7.814  19.499  0.00  0.00    +0.000 S 
BRANCH  15  17
ATOM     17  N   UNL     1       1.886   5.097  19.157  0.00  0.00    +0.000 N 
ATOM     18  C   UNL     1       1.275   4.818  20.463  0.00  0.00    +0.000 C 
ATOM     19  C   UNL     1       2.171   3.968  21.359  0.00  0.00    +0.000 C 
ATOM     20  C   UNL     1       2.215   2.489  20.986  0.00  0.00    +0.000 C 
ATOM     21  C   UNL     1       2.599   2.200  19.536  0.00  0.00    +0.000 C 
ATOM     22  C   UNL     1       1.528   2.646  18.541  0.00  0.00    +0.000 C 
ATOM     23  C   UNL     1       1.660   4.106  18.094  0.00  0.00    +0.000 C 
ENDBRANCH  15  17
ENDBRANCH  14  15
ENDBRANCH  13  14
ENDBRANCH   1  13
TORSDOF 5
ENDMDL
MODEL 5
REMARK VINA RESULT:      -6.7      2.577      6.171
REMARK  Name = 
REMARK  5 active torsions:
REMARK  status: ('A' for Active; 'I' for Inactive)
REMARK    1  A    between atoms: N_11  and  C_12
REMARK    2  A    between atoms: C_12  and  C_13
REMARK    3  A    between atoms: C_13  and  S_14
REMARK    4  A    between atoms: S_14  and  C_15
REMARK    5  A    between atoms: C_15  and  N_17
REMARK                            x       y       z     vdW  Elec       q    Type
REMARK                         _______ _______ _______ _____ _____    ______ ____
ROOT
ATOM      1  C   UNL     1       3.692   2.947  17.413  0.00  0.00    +0.000 C 
ENDROOT
BRANCH   1  12
ATOM      2  O   UNL     1       4.630   5.112  15.621  0.00  0.00    +0.000 OA
ATOM      3  C   UNL     1       5.086   4.898  16.726  0.00  0.00    +0.000 C 
ATOM      4  C   UNL     1       6.155   5.682  17.342  0.00  0.00    +0.000 A 
ATOM      5  C   UNL     1       6.860   6.771  16.867  0.00  0.00    +0.000 A 
ATOM      6  C   UNL     1       7.833   7.320  17.710  0.00  0.00    +0.000 A 
ATOM      7  C   UNL     1       8.076   6.776  18.988  0.00  0.00    +0.000 A 
ATOM      8  C   UNL     1       7.348   5.672  19.447  0.00  0.00    +0.000 A 
ATOM      9  C   UNL     1       6.392   5.150  18.599  0.00  0.00    +0.000 A 
ATOM     10  C   UNL     1       5.468   4.031  18.785  0.00  0.00    +0.000 C 
ATOM     11  O   UNL     1       5.394   3.361  19.797  0.00  0.00    +0.000 OA
ATOM     12  N   UNL     1       4.740   3.932  17.632  0.00  0.00    +0.000 N 
ENDBRANCH   1  12
BRANCH   1  13
ATOM     13  C   UNL     1       2.471   3.196  18.305  0.00  0.00    +0.000 C 
BRANCH  13  14
ATOM     14  S   UNL     1       1.805   4.853  17.963  0.00  0.00    +0.000 S 
BRANCH  14  15
ATOM     15  C   UNL     1       2.050   5.684  19.508  0.00  0.00    +0.000 C 
ATOM     16  S   UNL     1       2.252   4.791  20.922  0.00  0.00    +0.000 S 
BRANCH  15  17
ATOM     17  N   UNL     1       2.195   7.083  19.416  0.00  0.00    +0.000 N 
ATOM     18  C   UNL     1       1.948   7.970  20.560  0.00  0.00    +0.000 C 
ATOM     19  C   UNL     1       0.571   8.627  20.505  0.00  0.00    +0.000 C 
ATOM     20  C   UNL     1       0.459   9.773  19.504  0.00  0.00    +0.000 C 
ATOM     21  C   UNL     1       0.865   9.422  18.073  0.00  0.00    +0.000 C 
ATOM     22  C   UNL     1       2.362   9.154  17.933  0.00  0.00    +0.000 C 
ATOM     23  C   UNL     1       2.766   7.701  18.209  0.00  0.00    +0.000 C 
ENDBRANCH  15  17
ENDBRANCH  14  15
ENDBRANCH  13  14
ENDBRANCH   1  13
TORSDOF 5
ENDMDL
MODEL 6
REMARK VINA RESULT:      -6.6      3.799      7.037
REMARK  Name = 
REMARK  5 active torsions:
REMARK  status: ('A' for Active; 'I' for Inactive)
REMARK    1  A    between atoms: N_11  and  C_12
REMARK    2  A    between atoms: C_12  and  C_13
REMARK    3  A    between atoms: C_13  and  S_14
REMARK    4  A    between atoms: S_14  and  C_15
REMARK    5  A    between atoms: C_15  and  N_17
REMARK                            x       y       z     vdW  Elec       q    Type
REMARK                         _______ _______ _______ _____ _____    ______ ____
ROOT
ATOM      1  C   UNL     1       6.238   4.767  17.911  0.00  0.00    +0.000 C 
ENDROOT
BRANCH   1  12
ATOM      2  O   UNL     1       5.013   2.807  16.057  0.00  0.00    +0.000 OA
ATOM      3  C   UNL     1       5.793   3.673  15.714  0.00  0.00    +0.000 C 
ATOM      4  C   UNL     1       6.234   3.885  14.336  0.00  0.00    +0.000 A 
ATOM      5  C   UNL     1       5.907   3.215  13.174  0.00  0.00    +0.000 A 
ATOM      6  C   UNL     1       6.493   3.668  11.987  0.00  0.00    +0.000 A 
ATOM      7  C   UNL     1       7.381   4.764  11.990  0.00  0.00    +0.000 A 
ATOM      8  C   UNL     1       7.698   5.427  13.181  0.00  0.00    +0.000 A 
ATOM      9  C   UNL     1       7.103   4.963  14.338  0.00  0.00    +0.000 A 
ATOM     10  C   UNL     1       7.210   5.442  15.717  0.00  0.00    +0.000 C 
ATOM     11  O   UNL     1       7.876   6.399  16.063  0.00  0.00    +0.000 OA
ATOM     12  N   UNL     1       6.422   4.621  16.475  0.00  0.00    +0.000 N 
ENDBRANCH   1  12
BRANCH   1  13
ATOM     13  C   UNL     1       5.769   6.176  18.291  0.00  0.00    +0.000 C 
BRANCH  13  14
ATOM     14  S   UNL     1       4.175   6.515  17.487  0.00  0.00    +0.000 S 
BRANCH  14  15
ATOM     15  C   UNL     1       3.023   6.257  18.808  0.00  0.00    +0.000 C 
ATOM     16  S   UNL     1       2.094   7.540  19.378  0.00  0.00    +0.000 S 
BRANCH  15  17
ATOM     17  N   UNL     1       2.870   4.914  19.211  0.00  0.00    +0.000 N 
ATOM     18  C   UNL     1       2.709   3.823  18.241  0.00  0.00    +0.000 C 
ATOM     19  C   UNL     1       1.252   3.400  18.073  0.00  0.00    +0.000 C 
ATOM     20  C   UNL     1       0.705   2.555  19.220  0.00  0.00    +0.000 C 
ATOM     21  C   UNL     1       0.851   3.178  20.607  0.00  0.00    +0.000 C 
ATOM     22  C   UNL     1       2.305   3.258  21.069  0.00  0.00    +0.000 C 
ATOM     23  C   UNL     1       3.034   4.530  20.621  0.00  0.00    +0.000 C 
ENDBRANCH  15  17
ENDBRANCH  14  15
ENDBRANCH  13  14
ENDBRANCH   1  13
TORSDOF 5
ENDMDL
MODEL 7
REMARK VINA RESULT:      -6.6      1.195      2.379
REMARK  Name = 
REMARK  5 active torsions:
REMARK  status: ('A' for Active; 'I' for Inactive)
REMARK    1  A    between atoms: N_11  and  C_12
REMARK    2  A    between atoms: C_12  and  C_13
REMARK    3  A    between atoms: C_13  and  S_14
REMARK    4  A    between atoms: S_14  and  C_15
REMARK    5  A    between atoms: C_15  and  N_17
REMARK                            x       y       z     vdW  Elec       q    Type
REMARK                         _______ _______ _______ _____ _____    ______ ____
ROOT
ATOM      1  C   UNL     1       2.742   7.178  19.334  0.00  0.00    +0.000 C 
ENDROOT
BRANCH   1  12
ATOM      2  O   UNL     1       1.174   8.014  21.705  0.00  0.00    +0.000 OA
ATOM      3  C   UNL     1       1.153   8.591  20.636  0.00  0.00    +0.000 C 
ATOM      4  C   UNL     1       0.362   9.790  20.364  0.00  0.00    +0.000 A 
ATOM      5  C   UNL     1      -0.490  10.509  21.179  0.00  0.00    +0.000 A 
ATOM      6  C   UNL     1      -1.105  11.638  20.625  0.00  0.00    +0.000 A 
ATOM      7  C   UNL     1      -0.858  12.015  19.289  0.00  0.00    +0.000 A 
ATOM      8  C   UNL     1       0.010  11.269  18.482  0.00  0.00    +0.000 A 
ATOM      9  C   UNL     1       0.606  10.163  19.053  0.00  0.00    +0.000 A 
ATOM     10  C   UNL     1       1.559   9.204  18.492  0.00  0.00    +0.000 C 
ATOM     11  O   UNL     1       2.007   9.259  17.363  0.00  0.00    +0.000 OA
ATOM     12  N   UNL     1       1.823   8.296  19.480  0.00  0.00    +0.000 N 
ENDBRANCH   1  12
BRANCH   1  13
ATOM     13  C   UNL     1       2.334   6.242  18.190  0.00  0.00    +0.000 C 
BRANCH  13  14
ATOM     14  S   UNL     1       3.828   5.602  17.376  0.00  0.00    +0.000 S 
BRANCH  14  15
ATOM     15  C   UNL     1       4.589   4.661  18.670  0.00  0.00    +0.000 C 
ATOM     16  S   UNL     1       6.112   5.094  19.242  0.00  0.00    +0.000 S 
BRANCH  15  17
ATOM     17  N   UNL     1       3.773   3.660  19.237  0.00  0.00    +0.000 N 
ATOM     18  C   UNL     1       3.488   2.399  18.541  0.00  0.00    +0.000 C 
ATOM     19  C   UNL     1       2.122   2.403  17.860  0.00  0.00    +0.000 C 
ATOM     20  C   UNL     1       0.943   2.224  18.813  0.00  0.00    +0.000 C 
ATOM     21  C   UNL     1       0.889   3.223  19.968  0.00  0.00    +0.000 C 
ATOM     22  C   UNL     1       2.019   3.020  20.977  0.00  0.00    +0.000 C 
ATOM     23  C   UNL     1       3.309   3.769  20.629  0.00  0.00    +0.000 C 
ENDBRANCH  15  17
ENDBRANCH  14  15
ENDBRANCH  13  14
ENDBRANCH   1  13
TORSDOF 5
ENDMDL
MODEL 8
REMARK VINA RESULT:      -6.6      1.748      3.255
REMARK  Name = 
REMARK  5 active torsions:
REMARK  status: ('A' for Active; 'I' for Inactive)
REMARK    1  A    between atoms: N_11  and  C_12
REMARK    2  A    between atoms: C_12  and  C_13
REMARK    3  A    between atoms: C_13  and  S_14
REMARK    4  A    between atoms: S_14  and  C_15
REMARK    5  A    between atoms: C_15  and  N_17
REMARK                            x       y       z     vdW  Elec       q    Type
REMARK                         _______ _______ _______ _____ _____    ______ ____
ROOT
ATOM      1  C   UNL     1       2.997   6.999  18.684  0.00  0.00    +0.000 C 
ENDROOT
BRANCH   1  12
ATOM      2  O   UNL     1       2.005   9.381  17.228  0.00  0.00    +0.000 OA
ATOM      3  C   UNL     1       1.700   9.106  18.371  0.00  0.00    +0.000 C 
ATOM      4  C   UNL     1       0.791   9.901  19.195  0.00  0.00    +0.000 A 
ATOM      5  C   UNL     1       0.106  11.067  18.910  0.00  0.00    +0.000 A 
ATOM      6  C   UNL     1      -0.712  11.591  19.917  0.00  0.00    +0.000 A 
ATOM      7  C   UNL     1      -0.822  10.949  21.168  0.00  0.00    +0.000 A 
ATOM      8  C   UNL     1      -0.117   9.769  21.434  0.00  0.00    +0.000 A 
ATOM      9  C   UNL     1       0.679   9.270  20.422  0.00  0.00    +0.000 A 
ATOM     10  C   UNL     1       1.513   8.068  20.377  0.00  0.00    +0.000 C 
ATOM     11  O   UNL     1       1.618   7.269  21.288  0.00  0.00    +0.000 OA
ATOM     12  N   UNL     1       2.098   8.047  19.141  0.00  0.00    +0.000 N 
ENDBRANCH   1  12
BRANCH   1  13
ATOM     13  C   UNL     1       2.319   5.624  18.667  0.00  0.00    +0.000 C 
BRANCH  13  14
ATOM     14  S   UNL     1       3.281   4.468  19.687  0.00  0.00    +0.000 S 
BRANCH  14  15
ATOM     15  C   UNL     1       3.997   3.398  18.470  0.00  0.00    +0.000 C 
ATOM     16  S   UNL     1       3.400   1.836  18.266  0.00  0.00    +0.000 S 
BRANCH  15  17
ATOM     17  N   UNL     1       4.964   4.001  17.640  0.00  0.00    +0.000 N 
ATOM     18  C   UNL     1       6.300   4.360  18.133  0.00  0.00    +0.000 C 
ATOM     19  C   UNL     1       6.418   5.843  18.476  0.00  0.00    +0.000 C 
ATOM     20  C   UNL     1       6.542   6.762  17.264  0.00  0.00    +0.000 C 
ATOM     21  C   UNL     1       5.433   6.613  16.225  0.00  0.00    +0.000 C 
ATOM     22  C   UNL     1       5.488   5.274  15.490  0.00  0.00    +0.000 C 
ATOM     23  C   UNL     1       4.730   4.143  16.195  0.00  0.00    +0.000 C 
ENDBRANCH  15  17
ENDBRANCH  14  15
ENDBRANCH  13  14
ENDBRANCH   1  13
TORSDOF 5
ENDMDL
MODEL 9
REMARK VINA RESULT:      -6.5      1.720      3.729
REMARK  Name = 
REMARK  5 active torsions:
REMARK  status: ('A' for Active; 'I' for Inactive)
REMARK    1  A    between atoms: N_11  and  C_12
REMARK    2  A    between atoms: C_12  and  C_13
REMARK    3  A    between atoms: C_13  and  S_14
REMARK    4  A    between atoms: S_14  and  C_15
REMARK    5  A    between atoms: C_15  and  N_17
REMARK                            x       y       z     vdW  Elec       q    Type
REMARK                         _______ _______ _______ _____ _____    ______ ____
ROOT
ATOM      1  C   UNL     1       2.897   6.933  18.617  0.00  0.00    +0.000 C 
ENDROOT
BRANCH   1  12
ATOM      2  O   UNL     1       1.595   7.175  21.267  0.00  0.00    +0.000 OA
ATOM      3  C   UNL     1       1.483   7.993  20.376  0.00  0.00    +0.000 C 
ATOM      4  C   UNL     1       0.701   9.223  20.482  0.00  0.00    +0.000 A 
ATOM      5  C   UNL     1      -0.047   9.726  21.529  0.00  0.00    +0.000 A 
ATOM      6  C   UNL     1      -0.683  10.956  21.328  0.00  0.00    +0.000 A 
ATOM      7  C   UNL     1      -0.560  11.644  20.103  0.00  0.00    +0.000 A 
ATOM      8  C   UNL     1       0.203  11.114  19.056  0.00  0.00    +0.000 A 
ATOM      9  C   UNL     1       0.824   9.901  19.281  0.00  0.00    +0.000 A 
ATOM     10  C   UNL     1       1.690   9.104  18.411  0.00  0.00    +0.000 C 
ATOM     11  O   UNL     1       2.026   9.430  17.289  0.00  0.00    +0.000 OA
ATOM     12  N   UNL     1       2.028   7.984  19.120  0.00  0.00    +0.000 N 
ENDBRANCH   1  12
BRANCH   1  13
ATOM     13  C   UNL     1       2.266   5.544  18.760  0.00  0.00    +0.000 C 
BRANCH  13  14
ATOM     14  S   UNL     1       3.392   4.466  19.695  0.00  0.00    +0.000 S 
BRANCH  14  15
ATOM     15  C   UNL     1       4.047   3.416  18.427  0.00  0.00    +0.000 C 
ATOM     16  S   UNL     1       3.400   1.880  18.187  0.00  0.00    +0.000 S 
BRANCH  15  17
ATOM     17  N   UNL     1       5.012   4.019  17.594  0.00  0.00    +0.000 N 
ATOM     18  C   UNL     1       6.347   4.385  18.084  0.00  0.00    +0.000 C 
ATOM     19  C   UNL     1       6.460   5.870  18.420  0.00  0.00    +0.000 C 
ATOM     20  C   UNL     1       6.580   6.783  17.203  0.00  0.00    +0.000 C 
ATOM     21  C   UNL     1       5.471   6.624  16.164  0.00  0.00    +0.000 C 
ATOM     22  C   UNL     1       5.531   5.281  15.437  0.00  0.00    +0.000 C 
ATOM     23  C   UNL     1       4.777   4.152  16.148  0.00  0.00    +0.000 C 
ENDBRANCH  15  17
ENDBRANCH  14  15
ENDBRANCH  13  14
ENDBRANCH   1  13
TORSDOF 5
ENDMDL
