MODEL 1
REMARK VINA RESULT:      -7.5      0.000      0.000
REMARK  Name = 
REMARK  15 active torsions:
REMARK  status: ('A' for Active; 'I' for Inactive)
REMARK    1  A    between atoms: C_1  and  C_2
REMARK    2  A    between atoms: C_2  and  C_3
REMARK    3  A    between atoms: C_4  and  C_5
REMARK    4  A    between atoms: C_5  and  C_6
REMARK    5  A    between atoms: C_7  and  O_8
REMARK    6  A    between atoms: O_8  and  C_9
REMARK    7  A    between atoms: C_9  and  C_11
REMARK    8  A    between atoms: C_12  and  C_13
REMARK    9  A    between atoms: C_15  and  O_16
REMARK   10  A    between atoms: C_18  and  O_19
REMARK   11  A    between atoms: C_21  and  C_22
REMARK   12  A    between atoms: C_22  and  O_23
REMARK   13  A    between atoms: C_24  and  C_25
REMARK   14  A    between atoms: C_25  and  O_26
REMARK   15  A    between atoms: C_27  and  O_28
REMARK                            x       y       z     vdW  Elec       q    Type
REMARK                         _______ _______ _______ _____ _____    ______ ____
ROOT
ATOM      1  C   UNL     1       3.038   5.349  17.777  0.00  0.00    +0.000 A 
ATOM      2  C   UNL     1       3.167   6.737  17.912  0.00  0.00    +0.000 A 
ATOM      3  C   UNL     1       4.396   7.372  17.671  0.00  0.00    +0.000 A 
ATOM      4  C   UNL     1       5.547   6.654  17.329  0.00  0.00    +0.000 A 
ATOM      5  C   UNL     1       5.448   5.248  17.209  0.00  0.00    +0.000 A 
ATOM      6  C   UNL     1       4.185   4.631  17.399  0.00  0.00    +0.000 A 
ENDROOT
BRANCH   6   7
ATOM      7  O   UNL     1       4.028   3.283  17.173  0.00  0.00    +0.000 OA
ATOM      8  H   UNL     1       4.357   3.075  16.274  0.00  0.00    +0.000 HD
ENDBRANCH   6   7
BRANCH   1   9
ATOM      9  C   UNL     1       1.716   4.646  18.031  0.00  0.00    +0.000 C 
BRANCH   9  13
ATOM     10  C   UNL     1       1.270   2.775  21.448  0.00  0.00    +0.000 C 
ATOM     11  C   UNL     1       1.515   3.027  19.984  0.00  0.00    +0.000 C 
ATOM     12  C   UNL     1       1.748   1.819  19.122  0.00  0.00    +0.000 C 
ATOM     13  C   UNL     1       1.490   4.279  19.482  0.00  0.00    +0.000 C 
ENDBRANCH   9  13
ENDBRANCH   1   9
BRANCH   2  14
ATOM     14  O   UNL     1       2.020   7.531  18.113  0.00  0.00    +0.000 OA
BRANCH  14  15
ATOM     15  C   UNL     1       1.886   8.016  19.400  0.00  0.00    +0.000 C 
ATOM     16  O   UNL     1       2.400   7.546  20.405  0.00  0.00    +0.000 OA
BRANCH  15  17
ATOM     17  C   UNL     1       1.053   9.251  19.422  0.00  0.00    +0.000 A 
ATOM     18  C   UNL     1       0.132   9.463  20.472  0.00  0.00    +0.000 A 
ATOM     19  C   UNL     1      -0.201   8.434  21.518  0.00  0.00    +0.000 C 
ATOM     20  C   UNL     1      -0.494  10.719  20.586  0.00  0.00    +0.000 A 
ATOM     21  C   UNL     1      -0.222  11.729  19.669  0.00  0.00    +0.000 A 
ATOM     22  C   UNL     1       0.649  11.515  18.615  0.00  0.00    +0.000 A 
ATOM     23  C   UNL     1       1.299  10.286  18.499  0.00  0.00    +0.000 A 
BRANCH  21  24
ATOM     24  O   UNL     1      -0.782  12.966  19.785  0.00  0.00    +0.000 OA
ATOM     25  H   UNL     1      -0.658  13.284  20.695  0.00  0.00    +0.000 HD
ENDBRANCH  21  24
BRANCH  23  26
ATOM     26  O   UNL     1       2.225  10.138  17.502  0.00  0.00    +0.000 OA
ATOM     27  H   UNL     1       2.102   9.275  17.069  0.00  0.00    +0.000 HD
ENDBRANCH  23  26
ENDBRANCH  15  17
ENDBRANCH  14  15
ENDBRANCH   2  14
BRANCH   4  28
ATOM     28  C   UNL     1       6.853   7.385  17.092  0.00  0.00    +0.000 C 
BRANCH  28  29
ATOM     29  O   UNL     1       7.802   7.234  18.141  0.00  0.00    +0.000 OA
ATOM     30  H   UNL     1       7.387   6.684  18.827  0.00  0.00    +0.000 HD
ENDBRANCH  28  29
ENDBRANCH   4  28
BRANCH   5  31
ATOM     31  C   UNL     1       6.672   4.444  16.818  0.00  0.00    +0.000 C 
BRANCH  31  32
ATOM     32  O   UNL     1       7.498   4.180  17.950  0.00  0.00    +0.000 OA
ATOM     33  H   UNL     1       7.525   3.206  18.041  0.00  0.00    +0.000 HD
ENDBRANCH  31  32
ENDBRANCH   5  31
TORSDOF 12
ENDMDL
MODEL 2
REMARK VINA RESULT:      -7.4      1.963      7.315
REMARK  Name = 
REMARK  15 active torsions:
REMARK  status: ('A' for Active; 'I' for Inactive)
REMARK    1  A    between atoms: C_1  and  C_2
REMARK    2  A    between atoms: C_2  and  C_3
REMARK    3  A    between atoms: C_4  and  C_5
REMARK    4  A    between atoms: C_5  and  C_6
REMARK    5  A    between atoms: C_7  and  O_8
REMARK    6  A    between atoms: O_8  and  C_9
REMARK    7  A    between atoms: C_9  and  C_11
REMARK    8  A    between atoms: C_12  and  C_13
REMARK    9  A    between atoms: C_15  and  O_16
REMARK   10  A    between atoms: C_18  and  O_19
REMARK   11  A    between atoms: C_21  and  C_22
REMARK   12  A    between atoms: C_22  and  O_23
REMARK   13  A    between atoms: C_24  and  C_25
REMARK   14  A    between atoms: C_25  and  O_26
REMARK   15  A    between atoms: C_27  and  O_28
REMARK                            x       y       z     vdW  Elec       q    Type
REMARK                         _______ _______ _______ _____ _____    ______ ____
ROOT
ATOM      1  C   UNL     1       2.166   7.864  18.875  0.00  0.00    +0.000 A 
ATOM      2  C   UNL     1       2.071   7.308  20.157  0.00  0.00    +0.000 A 
ATOM      3  C   UNL     1       1.359   7.962  21.174  0.00  0.00    +0.000 A 
ATOM      4  C   UNL     1       0.750   9.207  20.971  0.00  0.00    +0.000 A 
ATOM      5  C   UNL     1       0.851   9.799  19.690  0.00  0.00    +0.000 A 
ATOM      6  C   UNL     1       1.525   9.096  18.660  0.00  0.00    +0.000 A 
ENDROOT
BRANCH   6   7
ATOM      7  O   UNL     1       1.538   9.587  17.375  0.00  0.00    +0.000 OA
ATOM      8  H   UNL     1       2.445   9.499  17.014  0.00  0.00    +0.000 HD
ENDBRANCH   6   7
BRANCH   1   9
ATOM      9  C   UNL     1       2.930   7.169  17.762  0.00  0.00    +0.000 C 
BRANCH   9  13
ATOM     10  C   UNL     1       6.824   6.878  17.396  0.00  0.00    +0.000 C 
ATOM     11  C   UNL     1       5.354   6.576  17.264  0.00  0.00    +0.000 C 
ATOM     12  C   UNL     1       4.988   5.329  16.512  0.00  0.00    +0.000 C 
ATOM     13  C   UNL     1       4.428   7.379  17.827  0.00  0.00    +0.000 C 
ENDBRANCH   9  13
ENDBRANCH   1   9
BRANCH   2  14
ATOM     14  O   UNL     1       2.537   5.998  20.388  0.00  0.00    +0.000 OA
BRANCH  14  15
ATOM     15  C   UNL     1       1.570   5.021  20.251  0.00  0.00    +0.000 C 
ATOM     16  O   UNL     1       0.376   5.152  20.479  0.00  0.00    +0.000 OA
BRANCH  15  17
ATOM     17  C   UNL     1       2.158   3.756  19.729  0.00  0.00    +0.000 A 
ATOM     18  C   UNL     1       2.150   3.493  18.341  0.00  0.00    +0.000 A 
ATOM     19  C   UNL     1       1.428   4.342  17.329  0.00  0.00    +0.000 C 
ATOM     20  C   UNL     1       2.885   2.397  17.851  0.00  0.00    +0.000 A 
ATOM     21  C   UNL     1       3.595   1.577  18.721  0.00  0.00    +0.000 A 
ATOM     22  C   UNL     1       3.576   1.805  20.087  0.00  0.00    +0.000 A 
ATOM     23  C   UNL     1       2.874   2.901  20.590  0.00  0.00    +0.000 A 
BRANCH  21  24
ATOM     24  O   UNL     1       4.350   0.538  18.265  0.00  0.00    +0.000 OA
ATOM     25  H   UNL     1       3.830  -0.281  18.330  0.00  0.00    +0.000 HD
ENDBRANCH  21  24
BRANCH  23  26
ATOM     26  O   UNL     1       2.951   3.155  21.933  0.00  0.00    +0.000 OA
ATOM     27  H   UNL     1       2.114   3.546  22.239  0.00  0.00    +0.000 HD
ENDBRANCH  23  26
ENDBRANCH  15  17
ENDBRANCH  14  15
ENDBRANCH   2  14
BRANCH   4  28
ATOM     28  C   UNL     1       0.004   9.878  22.106  0.00  0.00    +0.000 C 
BRANCH  28  29
ATOM     29  O   UNL     1       0.645   9.766  23.370  0.00  0.00    +0.000 OA
ATOM     30  H   UNL     1       1.291  10.490  23.429  0.00  0.00    +0.000 HD
ENDBRANCH  28  29
ENDBRANCH   4  28
BRANCH   5  31
ATOM     31  C   UNL     1       0.183  11.135  19.433  0.00  0.00    +0.000 C 
BRANCH  31  32
ATOM     32  O   UNL     1      -0.850  11.015  18.457  0.00  0.00    +0.000 OA
ATOM     33  H   UNL     1      -0.507  11.446  17.648  0.00  0.00    +0.000 HD
ENDBRANCH  31  32
ENDBRANCH   5  31
TORSDOF 12
ENDMDL
MODEL 3
REMARK VINA RESULT:      -7.2      1.257      2.161
REMARK  Name = 
REMARK  15 active torsions:
REMARK  status: ('A' for Active; 'I' for Inactive)
REMARK    1  A    between atoms: C_1  and  C_2
REMARK    2  A    between atoms: C_2  and  C_3
REMARK    3  A    between atoms: C_4  and  C_5
REMARK    4  A    between atoms: C_5  and  C_6
REMARK    5  A    between atoms: C_7  and  O_8
REMARK    6  A    between atoms: O_8  and  C_9
REMARK    7  A    between atoms: C_9  and  C_11
REMARK    8  A    between atoms: C_12  and  C_13
REMARK    9  A    between atoms: C_15  and  O_16
REMARK   10  A    between atoms: C_18  and  O_19
REMARK   11  A    between atoms: C_21  and  C_22
REMARK   12  A    between atoms: C_22  and  O_23
REMARK   13  A    between atoms: C_24  and  C_25
REMARK   14  A    between atoms: C_25  and  O_26
REMARK   15  A    between atoms: C_27  and  O_28
REMARK                            x       y       z     vdW  Elec       q    Type
REMARK                         _______ _______ _______ _____ _____    ______ ____
ROOT
ATOM      1  C   UNL     1       3.439   4.795  17.473  0.00  0.00    +0.000 A 
ATOM      2  C   UNL     1       3.359   6.171  17.721  0.00  0.00    +0.000 A 
ATOM      3  C   UNL     1       4.498   6.986  17.625  0.00  0.00    +0.000 A 
ATOM      4  C   UNL     1       5.760   6.463  17.322  0.00  0.00    +0.000 A 
ATOM      5  C   UNL     1       5.870   5.072  17.089  0.00  0.00    +0.000 A 
ATOM      6  C   UNL     1       4.699   4.275  17.134  0.00  0.00    +0.000 A 
ENDROOT
BRANCH   6   7
ATOM      7  O   UNL     1       4.751   2.943  16.796  0.00  0.00    +0.000 OA
ATOM      8  H   UNL     1       4.857   2.415  17.614  0.00  0.00    +0.000 HD
ENDBRANCH   6   7
BRANCH   1   9
ATOM      9  C   UNL     1       2.216   3.899  17.570  0.00  0.00    +0.000 C 
BRANCH   9  13
ATOM     10  C   UNL     1       1.429   3.174  21.343  0.00  0.00    +0.000 C 
ATOM     11  C   UNL     1       2.121   3.166  20.005  0.00  0.00    +0.000 C 
ATOM     12  C   UNL     1       3.373   2.344  19.900  0.00  0.00    +0.000 C 
ATOM     13  C   UNL     1       1.609   3.843  18.956  0.00  0.00    +0.000 C 
ENDBRANCH   9  13
ENDBRANCH   1   9
BRANCH   2  14
ATOM     14  O   UNL     1       2.099   6.781  17.891  0.00  0.00    +0.000 OA
BRANCH  14  15
ATOM     15  C   UNL     1       2.154   8.146  18.094  0.00  0.00    +0.000 C 
ATOM     16  O   UNL     1       2.632   8.970  17.328  0.00  0.00    +0.000 OA
BRANCH  15  17
ATOM     17  C   UNL     1       1.499   8.522  19.377  0.00  0.00    +0.000 A 
ATOM     18  C   UNL     1       0.531   9.551  19.401  0.00  0.00    +0.000 A 
ATOM     19  C   UNL     1       0.214  10.434  18.224  0.00  0.00    +0.000 C 
ATOM     20  C   UNL     1      -0.220   9.754  20.575  0.00  0.00    +0.000 A 
ATOM     21  C   UNL     1      -0.001   8.964  21.699  0.00  0.00    +0.000 A 
ATOM     22  C   UNL     1       0.974   7.980  21.695  0.00  0.00    +0.000 A 
ATOM     23  C   UNL     1       1.711   7.747  20.534  0.00  0.00    +0.000 A 
BRANCH  21  24
ATOM     24  O   UNL     1      -0.745   9.112  22.830  0.00  0.00    +0.000 OA
ATOM     25  H   UNL     1      -0.345   9.805  23.382  0.00  0.00    +0.000 HD
ENDBRANCH  21  24
BRANCH  23  26
ATOM     26  O   UNL     1       2.600   6.706  20.532  0.00  0.00    +0.000 OA
ATOM     27  H   UNL     1       3.205   6.794  21.289  0.00  0.00    +0.000 HD
ENDBRANCH  23  26
ENDBRANCH  15  17
ENDBRANCH  14  15
ENDBRANCH   2  14
BRANCH   4  28
ATOM     28  C   UNL     1       6.962   7.384  17.244  0.00  0.00    +0.000 C 
BRANCH  28  29
ATOM     29  O   UNL     1       7.894   7.215  18.305  0.00  0.00    +0.000 OA
ATOM     30  H   UNL     1       7.773   6.315  18.652  0.00  0.00    +0.000 HD
ENDBRANCH  28  29
ENDBRANCH   4  28
BRANCH   5  31
ATOM     31  C   UNL     1       7.220   4.480  16.736  0.00  0.00    +0.000 C 
BRANCH  31  32
ATOM     32  O   UNL     1       7.932   4.085  17.908  0.00  0.00    +0.000 OA
ATOM     33  H   UNL     1       8.608   4.777  18.056  0.00  0.00    +0.000 HD
ENDBRANCH  31  32
ENDBRANCH   5  31
TORSDOF 12
ENDMDL
MODEL 4
REMARK VINA RESULT:      -7.2      1.589      4.120
REMARK  Name = 
REMARK  15 active torsions:
REMARK  status: ('A' for Active; 'I' for Inactive)
REMARK    1  A    between atoms: C_1  and  C_2
REMARK    2  A    between atoms: C_2  and  C_3
REMARK    3  A    between atoms: C_4  and  C_5
REMARK    4  A    between atoms: C_5  and  C_6
REMARK    5  A    between atoms: C_7  and  O_8
REMARK    6  A    between atoms: O_8  and  C_9
REMARK    7  A    between atoms: C_9  and  C_11
REMARK    8  A    between atoms: C_12  and  C_13
REMARK    9  A    between atoms: C_15  and  O_16
REMARK   10  A    between atoms: C_18  and  O_19
REMARK   11  A    between atoms: C_21  and  C_22
REMARK   12  A    between atoms: C_22  and  O_23
REMARK   13  A    between atoms: C_24  and  C_25
REMARK   14  A    between atoms: C_25  and  O_26
REMARK   15  A    between atoms: C_27  and  O_28
REMARK                            x       y       z     vdW  Elec       q    Type
REMARK                         _______ _______ _______ _____ _____    ______ ____
ROOT
ATOM      1  C   UNL     1       3.455   5.629  18.021  0.00  0.00    +0.000 A 
ATOM      2  C   UNL     1       2.668   6.221  19.017  0.00  0.00    +0.000 A 
ATOM      3  C   UNL     1       1.989   5.433  19.960  0.00  0.00    +0.000 A 
ATOM      4  C   UNL     1       2.032   4.034  19.927  0.00  0.00    +0.000 A 
ATOM      5  C   UNL     1       2.803   3.413  18.916  0.00  0.00    +0.000 A 
ATOM      6  C   UNL     1       3.527   4.226  18.008  0.00  0.00    +0.000 A 
ENDROOT
BRANCH   6   7
ATOM      7  O   UNL     1       4.379   3.657  17.091  0.00  0.00    +0.000 OA
ATOM      8  H   UNL     1       5.114   3.223  17.572  0.00  0.00    +0.000 HD
ENDBRANCH   6   7
BRANCH   1   9
ATOM      9  C   UNL     1       4.198   6.467  16.995  0.00  0.00    +0.000 C 
BRANCH   9  13
ATOM     10  C   UNL     1       7.880   7.514  17.844  0.00  0.00    +0.000 C 
ATOM     11  C   UNL     1       6.711   6.782  17.240  0.00  0.00    +0.000 C 
ATOM     12  C   UNL     1       7.034   5.631  16.330  0.00  0.00    +0.000 C 
ATOM     13  C   UNL     1       5.443   7.134  17.538  0.00  0.00    +0.000 C 
ENDBRANCH   9  13
ENDBRANCH   1   9
BRANCH   2  14
ATOM     14  O   UNL     1       2.696   7.619  19.194  0.00  0.00    +0.000 OA
BRANCH  14  15
ATOM     15  C   UNL     1       1.684   8.293  18.538  0.00  0.00    +0.000 C 
ATOM     16  O   UNL     1       1.103   7.917  17.530  0.00  0.00    +0.000 OA
BRANCH  15  17
ATOM     17  C   UNL     1       1.332   9.554  19.248  0.00  0.00    +0.000 A 
ATOM     18  C   UNL     1       0.839   9.506  20.571  0.00  0.00    +0.000 A 
ATOM     19  C   UNL     1       0.477   8.232  21.286  0.00  0.00    +0.000 C 
ATOM     20  C   UNL     1       0.705  10.707  21.293  0.00  0.00    +0.000 A 
ATOM     21  C   UNL     1       1.039  11.924  20.707  0.00  0.00    +0.000 A 
ATOM     22  C   UNL     1       1.486  11.982  19.398  0.00  0.00    +0.000 A 
ATOM     23  C   UNL     1       1.649  10.800  18.674  0.00  0.00    +0.000 A 
BRANCH  21  24
ATOM     24  O   UNL     1       0.961  13.094  21.401  0.00  0.00    +0.000 OA
ATOM     25  H   UNL     1       0.867  13.828  20.771  0.00  0.00    +0.000 HD
ENDBRANCH  21  24
BRANCH  23  26
ATOM     26  O   UNL     1       2.182  10.883  17.416  0.00  0.00    +0.000 OA
ATOM     27  H   UNL     1       1.514  11.236  16.802  0.00  0.00    +0.000 HD
ENDBRANCH  23  26
ENDBRANCH  15  17
ENDBRANCH  14  15
ENDBRANCH   2  14
BRANCH   4  28
ATOM     28  C   UNL     1       1.271   3.229  20.960  0.00  0.00    +0.000 C 
BRANCH  28  29
ATOM     29  O   UNL     1       1.999   2.981  22.156  0.00  0.00    +0.000 OA
ATOM     30  H   UNL     1       1.876   2.042  22.377  0.00  0.00    +0.000 HD
ENDBRANCH  28  29
ENDBRANCH   4  28
BRANCH   5  31
ATOM     31  C   UNL     1       2.887   1.900  18.867  0.00  0.00    +0.000 C 
BRANCH  31  32
ATOM     32  O   UNL     1       4.244   1.461  18.854  0.00  0.00    +0.000 OA
ATOM     33  H   UNL     1       4.654   1.831  19.662  0.00  0.00    +0.000 HD
ENDBRANCH  31  32
ENDBRANCH   5  31
TORSDOF 12
ENDMDL
MODEL 5
REMARK VINA RESULT:      -7.0      3.760      6.415
REMARK  Name = 
REMARK  15 active torsions:
REMARK  status: ('A' for Active; 'I' for Inactive)
REMARK    1  A    between atoms: C_1  and  C_2
REMARK    2  A    between atoms: C_2  and  C_3
REMARK    3  A    between atoms: C_4  and  C_5
REMARK    4  A    between atoms: C_5  and  C_6
REMARK    5  A    between atoms: C_7  and  O_8
REMARK    6  A    between atoms: O_8  and  C_9
REMARK    7  A    between atoms: C_9  and  C_11
REMARK    8  A    between atoms: C_12  and  C_13
REMARK    9  A    between atoms: C_15  and  O_16
REMARK   10  A    between atoms: C_18  and  O_19
REMARK   11  A    between atoms: C_21  and  C_22
REMARK   12  A    between atoms: C_22  and  O_23
REMARK   13  A    between atoms: C_24  and  C_25
REMARK   14  A    between atoms: C_25  and  O_26
REMARK   15  A    between atoms: C_27  and  O_28
REMARK                            x       y       z     vdW  Elec       q    Type
REMARK                         _______ _______ _______ _____ _____    ______ ____
ROOT
ATOM      1  C   UNL     1       5.603   4.642  15.939  0.00  0.00    +0.000 A 
ATOM      2  C   UNL     1       5.280   3.923  17.097  0.00  0.00    +0.000 A 
ATOM      3  C   UNL     1       5.788   4.309  18.348  0.00  0.00    +0.000 A 
ATOM      4  C   UNL     1       6.663   5.392  18.491  0.00  0.00    +0.000 A 
ATOM      5  C   UNL     1       7.022   6.120  17.333  0.00  0.00    +0.000 A 
ATOM      6  C   UNL     1       6.454   5.751  16.087  0.00  0.00    +0.000 A 
ENDROOT
BRANCH   6   7
ATOM      7  O   UNL     1       6.687   6.510  14.964  0.00  0.00    +0.000 OA
ATOM      8  H   UNL     1       7.355   6.054  14.410  0.00  0.00    +0.000 HD
ENDBRANCH   6   7
BRANCH   1   9
ATOM      9  C   UNL     1       5.061   4.241  14.579  0.00  0.00    +0.000 C 
BRANCH   9  13
ATOM     10  C   UNL     1       7.026   2.784  11.513  0.00  0.00    +0.000 C 
ATOM     11  C   UNL     1       5.900   3.313  12.362  0.00  0.00    +0.000 C 
ATOM     12  C   UNL     1       4.538   3.348  11.730  0.00  0.00    +0.000 C 
ATOM     13  C   UNL     1       6.116   3.701  13.637  0.00  0.00    +0.000 C 
ENDBRANCH   9  13
ENDBRANCH   1   9
BRANCH   2  14
ATOM     14  O   UNL     1       4.297   2.915  17.044  0.00  0.00    +0.000 OA
BRANCH  14  15
ATOM     15  C   UNL     1       3.014   3.362  17.299  0.00  0.00    +0.000 C 
ATOM     16  O   UNL     1       2.208   3.752  16.466  0.00  0.00    +0.000 OA
BRANCH  15  17
ATOM     17  C   UNL     1       2.692   3.265  18.749  0.00  0.00    +0.000 A 
ATOM     18  C   UNL     1       2.325   4.424  19.470  0.00  0.00    +0.000 A 
ATOM     19  C   UNL     1       2.390   5.818  18.908  0.00  0.00    +0.000 C 
ATOM     20  C   UNL     1       1.830   4.283  20.781  0.00  0.00    +0.000 A 
ATOM     21  C   UNL     1       1.720   3.024  21.362  0.00  0.00    +0.000 A 
ATOM     22  C   UNL     1       2.116   1.888  20.676  0.00  0.00    +0.000 A 
ATOM     23  C   UNL     1       2.585   2.005  19.367  0.00  0.00    +0.000 A 
BRANCH  21  24
ATOM     24  O   UNL     1       1.203   2.860  22.612  0.00  0.00    +0.000 OA
ATOM     25  H   UNL     1       1.780   3.308  23.253  0.00  0.00    +0.000 HD
ENDBRANCH  21  24
BRANCH  23  26
ATOM     26  O   UNL     1       2.878   0.855  18.683  0.00  0.00    +0.000 OA
ATOM     27  H   UNL     1       3.698   0.467  19.036  0.00  0.00    +0.000 HD
ENDBRANCH  23  26
ENDBRANCH  15  17
ENDBRANCH  14  15
ENDBRANCH   2  14
BRANCH   4  28
ATOM     28  C   UNL     1       7.195   5.759  19.862  0.00  0.00    +0.000 C 
BRANCH  28  29
ATOM     29  O   UNL     1       8.465   5.195  20.164  0.00  0.00    +0.000 OA
ATOM     30  H   UNL     1       9.089   5.932  20.268  0.00  0.00    +0.000 HD
ENDBRANCH  28  29
ENDBRANCH   4  28
BRANCH   5  31
ATOM     31  C   UNL     1       7.950   7.312  17.459  0.00  0.00    +0.000 C 
BRANCH  31  32
ATOM     32  O   UNL     1       7.242   8.537  17.280  0.00  0.00    +0.000 OA
ATOM     33  H   UNL     1       7.894   9.249  17.441  0.00  0.00    +0.000 HD
ENDBRANCH  31  32
ENDBRANCH   5  31
TORSDOF 12
ENDMDL
MODEL 6
REMARK VINA RESULT:      -7.0      1.437      4.016
REMARK  Name = 
REMARK  15 active torsions:
REMARK  status: ('A' for Active; 'I' for Inactive)
REMARK    1  A    between atoms: C_1  and  C_2
REMARK    2  A    between atoms: C_2  and  C_3
REMARK    3  A    between atoms: C_4  and  C_5
REMARK    4  A    between atoms: C_5  and  C_6
REMARK    5  A    between atoms: C_7  and  O_8
REMARK    6  A    between atoms: O_8  and  C_9
REMARK    7  A    between atoms: C_9  and  C_11
REMARK    8  A    between atoms: C_12  and  C_13
REMARK    9  A    between atoms: C_15  and  O_16
REMARK   10  A    between atoms: C_18  and  O_19
REMARK   11  A    between atoms: C_21  and  C_22
REMARK   12  A    between atoms: C_22  and  O_23
REMARK   13  A    between atoms: C_24  and  C_25
REMARK   14  A    between atoms: C_25  and  O_26
REMARK   15  A    between atoms: C_27  and  O_28
REMARK                            x       y       z     vdW  Elec       q    Type
REMARK                         _______ _______ _______ _____ _____    ______ ____
ROOT
ATOM      1  C   UNL     1       3.539   5.307  17.889  0.00  0.00    +0.000 A 
ATOM      2  C   UNL     1       2.381   5.762  18.532  0.00  0.00    +0.000 A 
ATOM      3  C   UNL     1       1.717   4.958  19.472  0.00  0.00    +0.000 A 
ATOM      4  C   UNL     1       2.150   3.662  19.777  0.00  0.00    +0.000 A 
ATOM      5  C   UNL     1       3.305   3.171  19.124  0.00  0.00    +0.000 A 
ATOM      6  C   UNL     1       3.995   4.020  18.222  0.00  0.00    +0.000 A 
ENDROOT
BRANCH   6   7
ATOM      7  O   UNL     1       5.186   3.619  17.662  0.00  0.00    +0.000 OA
ATOM      8  H   UNL     1       5.866   3.578  18.366  0.00  0.00    +0.000 HD
ENDBRANCH   6   7
BRANCH   1   9
ATOM      9  C   UNL     1       4.272   6.165  16.873  0.00  0.00    +0.000 C 
BRANCH   9  13
ATOM     10  C   UNL     1       7.779   7.645  17.817  0.00  0.00    +0.000 C 
ATOM     11  C   UNL     1       6.721   6.793  17.166  0.00  0.00    +0.000 C 
ATOM     12  C   UNL     1       7.199   5.734  16.215  0.00  0.00    +0.000 C 
ATOM     13  C   UNL     1       5.415   6.965  17.461  0.00  0.00    +0.000 C 
ENDBRANCH   9  13
ENDBRANCH   1   9
BRANCH   2  14
ATOM     14  O   UNL     1       1.975   7.103  18.378  0.00  0.00    +0.000 OA
BRANCH  14  15
ATOM     15  C   UNL     1       1.965   7.830  19.552  0.00  0.00    +0.000 C 
ATOM     16  O   UNL     1       2.612   7.582  20.559  0.00  0.00    +0.000 OA
BRANCH  15  17
ATOM     17  C   UNL     1       1.082   9.023  19.435  0.00  0.00    +0.000 A 
ATOM     18  C   UNL     1       0.164   9.327  20.465  0.00  0.00    +0.000 A 
ATOM     19  C   UNL     1      -0.114   8.423  21.636  0.00  0.00    +0.000 C 
ATOM     20  C   UNL     1      -0.514  10.561  20.433  0.00  0.00    +0.000 A 
ATOM     21  C   UNL     1      -0.294  11.460  19.394  0.00  0.00    +0.000 A 
ATOM     22  C   UNL     1       0.574  11.152  18.360  0.00  0.00    +0.000 A 
ATOM     23  C   UNL     1       1.274   9.945  18.387  0.00  0.00    +0.000 A 
BRANCH  21  24
ATOM     24  O   UNL     1      -0.905  12.678  19.365  0.00  0.00    +0.000 OA
ATOM     25  H   UNL     1      -0.724  13.101  18.509  0.00  0.00    +0.000 HD
ENDBRANCH  21  24
BRANCH  23  26
ATOM     26  O   UNL     1       2.194   9.711  17.401  0.00  0.00    +0.000 OA
ATOM     27  H   UNL     1       1.743   9.657  16.541  0.00  0.00    +0.000 HD
ENDBRANCH  23  26
ENDBRANCH  15  17
ENDBRANCH  14  15
ENDBRANCH   2  14
BRANCH   4  28
ATOM     28  C   UNL     1       1.389   2.828  20.788  0.00  0.00    +0.000 C 
BRANCH  28  29
ATOM     29  O   UNL     1       1.885   2.932  22.118  0.00  0.00    +0.000 OA
ATOM     30  H   UNL     1       2.630   3.555  22.098  0.00  0.00    +0.000 HD
ENDBRANCH  28  29
ENDBRANCH   4  28
BRANCH   5  31
ATOM     31  C   UNL     1       3.812   1.781  19.450  0.00  0.00    +0.000 C 
BRANCH  31  32
ATOM     32  O   UNL     1       5.145   1.824  19.956  0.00  0.00    +0.000 OA
ATOM     33  H   UNL     1       5.655   1.182  19.422  0.00  0.00    +0.000 HD
ENDBRANCH  31  32
ENDBRANCH   5  31
TORSDOF 12
ENDMDL
MODEL 7
REMARK VINA RESULT:      -6.9      1.847      4.154
REMARK  Name = 
REMARK  15 active torsions:
REMARK  status: ('A' for Active; 'I' for Inactive)
REMARK    1  A    between atoms: C_1  and  C_2
REMARK    2  A    between atoms: C_2  and  C_3
REMARK    3  A    between atoms: C_4  and  C_5
REMARK    4  A    between atoms: C_5  and  C_6
REMARK    5  A    between atoms: C_7  and  O_8
REMARK    6  A    between atoms: O_8  and  C_9
REMARK    7  A    between atoms: C_9  and  C_11
REMARK    8  A    between atoms: C_12  and  C_13
REMARK    9  A    between atoms: C_15  and  O_16
REMARK   10  A    between atoms: C_18  and  O_19
REMARK   11  A    between atoms: C_21  and  C_22
REMARK   12  A    between atoms: C_22  and  O_23
REMARK   13  A    between atoms: C_24  and  C_25
REMARK   14  A    between atoms: C_25  and  O_26
REMARK   15  A    between atoms: C_27  and  O_28
REMARK                            x       y       z     vdW  Elec       q    Type
REMARK                         _______ _______ _______ _____ _____    ______ ____
ROOT
ATOM      1  C   UNL     1       4.381   5.459  18.742  0.00  0.00    +0.000 A 
ATOM      2  C   UNL     1       3.297   6.088  19.369  0.00  0.00    +0.000 A 
ATOM      3  C   UNL     1       2.458   5.376  20.240  0.00  0.00    +0.000 A 
ATOM      4  C   UNL     1       2.635   4.010  20.489  0.00  0.00    +0.000 A 
ATOM      5  C   UNL     1       3.710   3.347  19.850  0.00  0.00    +0.000 A 
ATOM      6  C   UNL     1       4.581   4.096  19.020  0.00  0.00    +0.000 A 
ENDROOT
BRANCH   6   7
ATOM      7  O   UNL     1       5.703   3.511  18.480  0.00  0.00    +0.000 OA
ATOM      8  H   UNL     1       5.506   3.247  17.557  0.00  0.00    +0.000 HD
ENDBRANCH   6   7
BRANCH   1   9
ATOM      9  C   UNL     1       5.301   6.215  17.800  0.00  0.00    +0.000 C 
BRANCH   9  13
ATOM     10  C   UNL     1       5.639   4.949  14.104  0.00  0.00    +0.000 C 
ATOM     11  C   UNL     1       5.956   5.222  15.550  0.00  0.00    +0.000 C 
ATOM     12  C   UNL     1       7.295   4.755  16.046  0.00  0.00    +0.000 C 
ATOM     13  C   UNL     1       5.084   5.883  16.339  0.00  0.00    +0.000 C 
ENDBRANCH   9  13
ENDBRANCH   1   9
BRANCH   2  14
ATOM     14  O   UNL     1       3.148   7.487  19.273  0.00  0.00    +0.000 OA
BRANCH  14  15
ATOM     15  C   UNL     1       2.018   7.890  18.589  0.00  0.00    +0.000 C 
ATOM     16  O   UNL     1       1.482   7.291  17.667  0.00  0.00    +0.000 OA
BRANCH  15  17
ATOM     17  C   UNL     1       1.476   9.158  19.150  0.00  0.00    +0.000 A 
ATOM     18  C   UNL     1       0.947   9.182  20.460  0.00  0.00    +0.000 A 
ATOM     19  C   UNL     1       0.733   7.953  21.302  0.00  0.00    +0.000 C 
ATOM     20  C   UNL     1       0.628  10.423  21.044  0.00  0.00    +0.000 A 
ATOM     21  C   UNL     1       0.817  11.605  20.337  0.00  0.00    +0.000 A 
ATOM     22  C   UNL     1       1.298  11.587  19.039  0.00  0.00    +0.000 A 
ATOM     23  C   UNL     1       1.644  10.369  18.451  0.00  0.00    +0.000 A 
BRANCH  21  24
ATOM     24  O   UNL     1       0.558  12.820  20.898  0.00  0.00    +0.000 OA
ATOM     25  H   UNL     1       0.006  12.691  21.687  0.00  0.00    +0.000 HD
ENDBRANCH  21  24
BRANCH  23  26
ATOM     26  O   UNL     1       2.205  10.392  17.202  0.00  0.00    +0.000 OA
ATOM     27  H   UNL     1       3.143  10.638  17.272  0.00  0.00    +0.000 HD
ENDBRANCH  23  26
ENDBRANCH  15  17
ENDBRANCH  14  15
ENDBRANCH   2  14
BRANCH   4  28
ATOM     28  C   UNL     1       1.693   3.283  21.427  0.00  0.00    +0.000 C 
BRANCH  28  29
ATOM     29  O   UNL     1       0.481   2.854  20.817  0.00  0.00    +0.000 OA
ATOM     30  H   UNL     1      -0.226   2.968  21.473  0.00  0.00    +0.000 HD
ENDBRANCH  28  29
ENDBRANCH   4  28
BRANCH   5  31
ATOM     31  C   UNL     1       3.941   1.873  20.117  0.00  0.00    +0.000 C 
BRANCH  31  32
ATOM     32  O   UNL     1       5.317   1.609  20.386  0.00  0.00    +0.000 OA
ATOM     33  H   UNL     1       5.822   2.102  19.708  0.00  0.00    +0.000 HD
ENDBRANCH  31  32
ENDBRANCH   5  31
TORSDOF 12
ENDMDL
MODEL 8
REMARK VINA RESULT:      -6.8      1.845      6.563
REMARK  Name = 
REMARK  15 active torsions:
REMARK  status: ('A' for Active; 'I' for Inactive)
REMARK    1  A    between atoms: C_1  and  C_2
REMARK    2  A    between atoms: C_2  and  C_3
REMARK    3  A    between atoms: C_4  and  C_5
REMARK    4  A    between atoms: C_5  and  C_6
REMARK    5  A    between atoms: C_7  and  O_8
REMARK    6  A    between atoms: O_8  and  C_9
REMARK    7  A    between atoms: C_9  and  C_11
REMARK    8  A    between atoms: C_12  and  C_13
REMARK    9  A    between atoms: C_15  and  O_16
REMARK   10  A    between atoms: C_18  and  O_19
REMARK   11  A    between atoms: C_21  and  C_22
REMARK   12  A    between atoms: C_22  and  O_23
REMARK   13  A    between atoms: C_24  and  C_25
REMARK   14  A    between atoms: C_25  and  O_26
REMARK   15  A    between atoms: C_27  and  O_28
REMARK                            x       y       z     vdW  Elec       q    Type
REMARK                         _______ _______ _______ _____ _____    ______ ____
ROOT
ATOM      1  C   UNL     1       1.951   6.917  19.936  0.00  0.00    +0.000 A 
ATOM      2  C   UNL     1       2.305   7.033  18.586  0.00  0.00    +0.000 A 
ATOM      3  C   UNL     1       2.184   8.259  17.914  0.00  0.00    +0.000 A 
ATOM      4  C   UNL     1       1.671   9.401  18.540  0.00  0.00    +0.000 A 
ATOM      5  C   UNL     1       1.286   9.303  19.898  0.00  0.00    +0.000 A 
ATOM      6  C   UNL     1       1.470   8.072  20.576  0.00  0.00    +0.000 A 
ENDROOT
BRANCH   6   7
ATOM      7  O   UNL     1       1.218   7.976  21.925  0.00  0.00    +0.000 OA
ATOM      8  H   UNL     1       0.330   8.347  22.106  0.00  0.00    +0.000 HD
ENDBRANCH   6   7
BRANCH   1   9
ATOM      9  C   UNL     1       2.078   5.599  20.680  0.00  0.00    +0.000 C 
BRANCH   9  13
ATOM     10  C   UNL     1       0.690   2.093  19.606  0.00  0.00    +0.000 C 
ATOM     11  C   UNL     1       1.491   3.150  20.320  0.00  0.00    +0.000 C 
ATOM     12  C   UNL     1       2.494   2.668  21.329  0.00  0.00    +0.000 C 
ATOM     13  C   UNL     1       1.326   4.458  20.031  0.00  0.00    +0.000 C 
ENDBRANCH   9  13
ENDBRANCH   1   9
BRANCH   2  14
ATOM     14  O   UNL     1       2.958   5.964  17.939  0.00  0.00    +0.000 OA
BRANCH  14  15
ATOM     15  C   UNL     1       4.316   5.902  18.179  0.00  0.00    +0.000 C 
ATOM     16  O   UNL     1       4.892   6.315  19.176  0.00  0.00    +0.000 OA
BRANCH  15  17
ATOM     17  C   UNL     1       5.025   5.205  17.071  0.00  0.00    +0.000 A 
ATOM     18  C   UNL     1       4.744   3.848  16.795  0.00  0.00    +0.000 A 
ATOM     19  C   UNL     1       3.876   2.977  17.662  0.00  0.00    +0.000 C 
ATOM     20  C   UNL     1       5.269   3.268  15.624  0.00  0.00    +0.000 A 
ATOM     21  C   UNL     1       6.063   4.015  14.760  0.00  0.00    +0.000 A 
ATOM     22  C   UNL     1       6.375   5.334  15.044  0.00  0.00    +0.000 A 
ATOM     23  C   UNL     1       5.844   5.934  16.187  0.00  0.00    +0.000 A 
BRANCH  21  24
ATOM     24  O   UNL     1       6.545   3.488  13.600  0.00  0.00    +0.000 OA
ATOM     25  H   UNL     1       6.232   2.571  13.516  0.00  0.00    +0.000 HD
ENDBRANCH  21  24
BRANCH  23  26
ATOM     26  O   UNL     1       6.093   7.265  16.390  0.00  0.00    +0.000 OA
ATOM     27  H   UNL     1       6.229   7.429  17.340  0.00  0.00    +0.000 HD
ENDBRANCH  23  26
ENDBRANCH  15  17
ENDBRANCH  14  15
ENDBRANCH   2  14
BRANCH   4  28
ATOM     28  C   UNL     1       1.547  10.698  17.766  0.00  0.00    +0.000 C 
BRANCH  28  29
ATOM     29  O   UNL     1       2.792  11.259  17.368  0.00  0.00    +0.000 OA
ATOM     30  H   UNL     1       3.319  11.388  18.174  0.00  0.00    +0.000 HD
ENDBRANCH  28  29
ENDBRANCH   4  28
BRANCH   5  31
ATOM     31  C   UNL     1       0.748  10.529  20.610  0.00  0.00    +0.000 C 
BRANCH  31  32
ATOM     32  O   UNL     1       1.337  10.673  21.901  0.00  0.00    +0.000 OA
ATOM     33  H   UNL     1       1.756   9.812  22.102  0.00  0.00    +0.000 HD
ENDBRANCH  31  32
ENDBRANCH   5  31
TORSDOF 12
ENDMDL
MODEL 9
REMARK VINA RESULT:      -6.7      2.211      6.821
REMARK  Name = 
REMARK  15 active torsions:
REMARK  status: ('A' for Active; 'I' for Inactive)
REMARK    1  A    between atoms: C_1  and  C_2
REMARK    2  A    between atoms: C_2  and  C_3
REMARK    3  A    between atoms: C_4  and  C_5
REMARK    4  A    between atoms: C_5  and  C_6
REMARK    5  A    between atoms: C_7  and  O_8
REMARK    6  A    between atoms: O_8  and  C_9
REMARK    7  A    between atoms: C_9  and  C_11
REMARK    8  A    between atoms: C_12  and  C_13
REMARK    9  A    between atoms: C_15  and  O_16
REMARK   10  A    between atoms: C_18  and  O_19
REMARK   11  A    between atoms: C_21  and  C_22
REMARK   12  A    between atoms: C_22  and  O_23
REMARK   13  A    between atoms: C_24  and  C_25
REMARK   14  A    between atoms: C_25  and  O_26
REMARK   15  A    between atoms: C_27  and  O_28
REMARK                            x       y       z     vdW  Elec       q    Type
REMARK                         _______ _______ _______ _____ _____    ______ ____
ROOT
ATOM      1  C   UNL     1       3.090   6.444  18.392  0.00  0.00    +0.000 A 
ATOM      2  C   UNL     1       3.794   5.847  17.339  0.00  0.00    +0.000 A 
ATOM      3  C   UNL     1       3.792   4.453  17.171  0.00  0.00    +0.000 A 
ATOM      4  C   UNL     1       3.129   3.600  18.061  0.00  0.00    +0.000 A 
ATOM      5  C   UNL     1       2.430   4.178  19.146  0.00  0.00    +0.000 A 
ATOM      6  C   UNL     1       2.395   5.590  19.265  0.00  0.00    +0.000 A 
ENDROOT
BRANCH   6   7
ATOM      7  O   UNL     1       1.626   6.188  20.237  0.00  0.00    +0.000 OA
ATOM      8  H   UNL     1       2.156   6.258  21.058  0.00  0.00    +0.000 HD
ENDBRANCH   6   7
BRANCH   1   9
ATOM      9  C   UNL     1       3.079   7.950  18.587  0.00  0.00    +0.000 C 
BRANCH   9  13
ATOM     10  C   UNL     1      -0.193   9.998  17.894  0.00  0.00    +0.000 C 
ATOM     11  C   UNL     1       0.960   9.360  18.622  0.00  0.00    +0.000 C 
ATOM     12  C   UNL     1       0.999   9.539  20.113  0.00  0.00    +0.000 C 
ATOM     13  C   UNL     1       1.886   8.637  17.957  0.00  0.00    +0.000 C 
ENDBRANCH   9  13
ENDBRANCH   1   9
BRANCH   2  14
ATOM     14  O   UNL     1       4.361   6.652  16.330  0.00  0.00    +0.000 OA
BRANCH  14  15
ATOM     15  C   UNL     1       5.533   6.150  15.797  0.00  0.00    +0.000 C 
ATOM     16  O   UNL     1       5.753   5.936  14.614  0.00  0.00    +0.000 OA
BRANCH  15  17
ATOM     17  C   UNL     1       6.555   5.937  16.859  0.00  0.00    +0.000 A 
ATOM     18  C   UNL     1       7.037   7.034  17.607  0.00  0.00    +0.000 A 
ATOM     19  C   UNL     1       6.708   8.470  17.299  0.00  0.00    +0.000 C 
ATOM     20  C   UNL     1       7.845   6.789  18.734  0.00  0.00    +0.000 A 
ATOM     21  C   UNL     1       8.176   5.488  19.096  0.00  0.00    +0.000 A 
ATOM     22  C   UNL     1       7.739   4.409  18.345  0.00  0.00    +0.000 A 
ATOM     23  C   UNL     1       6.917   4.630  17.239  0.00  0.00    +0.000 A 
BRANCH  21  24
ATOM     24  O   UNL     1       8.918   5.224  20.207  0.00  0.00    +0.000 OA
ATOM     25  H   UNL     1       9.614   4.586  19.978  0.00  0.00    +0.000 HD
ENDBRANCH  21  24
BRANCH  23  26
ATOM     26  O   UNL     1       6.425   3.539  16.573  0.00  0.00    +0.000 OA
ATOM     27  H   UNL     1       6.725   2.726  17.015  0.00  0.00    +0.000 HD
ENDBRANCH  23  26
ENDBRANCH  15  17
ENDBRANCH  14  15
ENDBRANCH   2  14
BRANCH   4  28
ATOM     28  C   UNL     1       3.169   2.101  17.844  0.00  0.00    +0.000 C 
BRANCH  28  29
ATOM     29  O   UNL     1       4.242   1.445  18.509  0.00  0.00    +0.000 OA
ATOM     30  H   UNL     1       4.240   0.519  18.213  0.00  0.00    +0.000 HD
ENDBRANCH  28  29
ENDBRANCH   4  28
BRANCH   5  31
ATOM     31  C   UNL     1       1.683   3.282  20.114  0.00  0.00    +0.000 C 
BRANCH  31  32
ATOM     32  O   UNL     1       0.281   3.540  20.079  0.00  0.00    +0.000 OA
ATOM     33  H   UNL     1       0.176   4.481  20.329  0.00  0.00    +0.000 HD
ENDBRANCH  31  32
ENDBRANCH   5  31
TORSDOF 12
ENDMDL
