MODEL 1
REMARK VINA RESULT:      -7.3      0.000      0.000
REMARK  Name = 
REMARK  6 active torsions:
REMARK  status: ('A' for Active; 'I' for Inactive)
REMARK    1  A    between atoms: C_2  and  C_3
REMARK    2  A    between atoms: C_2  and  O_15
REMARK    3  A    between atoms: C_3  and  N_4
REMARK    4  A    between atoms: C_5  and  C_7
REMARK    5  A    between atoms: O_15  and  C_16
REMARK    6  A    between atoms: C_16  and  C_17
REMARK                            x       y       z     vdW  Elec       q    Type
REMARK                         _______ _______ _______ _____ _____    ______ ____
ROOT
ATOM      1  N   UNL     1       4.904   2.842  19.375  0.00  0.00    +0.000 N 
ATOM      2  C   UNL     1       5.294   4.125  19.064  0.00  0.00    +0.000 C 
ATOM      3  O   UNL     1       5.175   5.055  19.856  0.00  0.00    +0.000 OA
ATOM      4  H   UNL     1       5.120   2.079  18.743  0.00  0.00    +0.000 HD
ENDROOT
BRANCH   2   5
ATOM      5  C   UNL     1       5.829   4.389  17.698  0.00  0.00    +0.000 A 
ATOM      6  C   UNL     1       5.156   3.742  16.643  0.00  0.00    +0.000 A 
ATOM      7  C   UNL     1       5.554   3.920  15.316  0.00  0.00    +0.000 A 
ATOM      8  C   UNL     1       6.629   4.752  15.029  0.00  0.00    +0.000 A 
ATOM      9 CL   UNL     1       7.120   4.983  13.397  0.00  0.00    +0.000 Cl
ATOM     10  C   UNL     1       7.308   5.404  16.055  0.00  0.00    +0.000 A 
ATOM     11  C   UNL     1       6.911   5.229  17.389  0.00  0.00    +0.000 A 
ATOM     12 CL   UNL     1       7.802   6.126  18.569  0.00  0.00    +0.000 Cl
ENDBRANCH   2   5
BRANCH   1  13
ATOM     13  C   UNL     1       4.441   2.513  20.707  0.00  0.00    +0.000 C 
BRANCH  13  15
ATOM     14  O   UNL     1       2.323   2.496  21.892  0.00  0.00    +0.000 OA
ATOM     15  C   UNL     1       2.920   2.519  20.825  0.00  0.00    +0.000 C 
BRANCH  15  16
ATOM     16  O   UNL     1       2.344   2.547  19.593  0.00  0.00    +0.000 OA
BRANCH  16  17
ATOM     17  C   UNL     1       1.260   3.467  19.428  0.00  0.00    +0.000 C 
BRANCH  17  18
ATOM     18  C   UNL     1       1.708   4.902  19.319  0.00  0.00    +0.000 A 
ATOM     19  C   UNL     1       2.144   5.425  18.093  0.00  0.00    +0.000 A 
ATOM     20  C   UNL     1       2.478   6.778  17.976  0.00  0.00    +0.000 A 
ATOM     21  C   UNL     1       2.390   7.618  19.084  0.00  0.00    +0.000 A 
ATOM     22  C   UNL     1       1.980   7.103  20.313  0.00  0.00    +0.000 A 
ATOM     23  C   UNL     1       1.646   5.752  20.432  0.00  0.00    +0.000 A 
ENDBRANCH  17  18
ENDBRANCH  16  17
ENDBRANCH  15  16
ENDBRANCH  13  15
ENDBRANCH   1  13
TORSDOF 6
ENDMDL
MODEL 2
REMARK VINA RESULT:      -7.3      4.826      7.475
REMARK  Name = 
REMARK  6 active torsions:
REMARK  status: ('A' for Active; 'I' for Inactive)
REMARK    1  A    between atoms: C_2  and  C_3
REMARK    2  A    between atoms: C_2  and  O_15
REMARK    3  A    between atoms: C_3  and  N_4
REMARK    4  A    between atoms: C_5  and  C_7
REMARK    5  A    between atoms: O_15  and  C_16
REMARK    6  A    between atoms: C_16  and  C_17
REMARK                            x       y       z     vdW  Elec       q    Type
REMARK                         _______ _______ _______ _____ _____    ______ ____
ROOT
ATOM      1  N   UNL     1       6.601   5.572  19.127  0.00  0.00    +0.000 N 
ATOM      2  C   UNL     1       5.681   4.769  18.492  0.00  0.00    +0.000 C 
ATOM      3  O   UNL     1       5.790   4.458  17.310  0.00  0.00    +0.000 OA
ATOM      4  H   UNL     1       6.542   5.716  20.129  0.00  0.00    +0.000 HD
ENDROOT
BRANCH   2   5
ATOM      5  C   UNL     1       4.491   4.312  19.263  0.00  0.00    +0.000 A 
ATOM      6  C   UNL     1       4.561   3.001  19.774  0.00  0.00    +0.000 A 
ATOM      7  C   UNL     1       3.513   2.461  20.524  0.00  0.00    +0.000 A 
ATOM      8  C   UNL     1       2.384   3.231  20.776  0.00  0.00    +0.000 A 
ATOM      9 CL   UNL     1       1.094   2.577  21.706  0.00  0.00    +0.000 Cl
ATOM     10  C   UNL     1       2.294   4.530  20.284  0.00  0.00    +0.000 A 
ATOM     11  C   UNL     1       3.343   5.076  19.530  0.00  0.00    +0.000 A 
ATOM     12 CL   UNL     1       3.134   6.713  19.014  0.00  0.00    +0.000 Cl
ENDBRANCH   2   5
BRANCH   1  13
ATOM     13  C   UNL     1       7.811   5.990  18.448  0.00  0.00    +0.000 C 
BRANCH  13  15
ATOM     14  O   UNL     1       7.009   7.599  16.818  0.00  0.00    +0.000 OA
ATOM     15  C   UNL     1       7.686   7.370  17.810  0.00  0.00    +0.000 C 
BRANCH  15  16
ATOM     16  O   UNL     1       8.427   8.282  18.493  0.00  0.00    +0.000 OA
BRANCH  16  17
ATOM     17  C   UNL     1       8.327   9.637  18.044  0.00  0.00    +0.000 C 
BRANCH  17  18
ATOM     18  C   UNL     1       9.362  10.546  18.656  0.00  0.00    +0.000 A 
ATOM     19  C   UNL     1       9.378  10.785  20.038  0.00  0.00    +0.000 A 
ATOM     20  C   UNL     1      10.389  11.559  20.614  0.00  0.00    +0.000 A 
ATOM     21  C   UNL     1      11.388  12.111  19.814  0.00  0.00    +0.000 A 
ATOM     22  C   UNL     1      11.369  11.899  18.436  0.00  0.00    +0.000 A 
ATOM     23  C   UNL     1      10.359  11.126  17.860  0.00  0.00    +0.000 A 
ENDBRANCH  17  18
ENDBRANCH  16  17
ENDBRANCH  15  16
ENDBRANCH  13  15
ENDBRANCH   1  13
TORSDOF 6
ENDMDL
MODEL 3
REMARK VINA RESULT:      -7.0      0.604      1.287
REMARK  Name = 
REMARK  6 active torsions:
REMARK  status: ('A' for Active; 'I' for Inactive)
REMARK    1  A    between atoms: C_2  and  C_3
REMARK    2  A    between atoms: C_2  and  O_15
REMARK    3  A    between atoms: C_3  and  N_4
REMARK    4  A    between atoms: C_5  and  C_7
REMARK    5  A    between atoms: O_15  and  C_16
REMARK    6  A    between atoms: C_16  and  C_17
REMARK                            x       y       z     vdW  Elec       q    Type
REMARK                         _______ _______ _______ _____ _____    ______ ____
ROOT
ATOM      1  N   UNL     1       4.857   2.763  19.020  0.00  0.00    +0.000 N 
ATOM      2  C   UNL     1       5.227   4.067  18.778  0.00  0.00    +0.000 C 
ATOM      3  O   UNL     1       5.012   4.969  19.583  0.00  0.00    +0.000 OA
ATOM      4  H   UNL     1       5.149   2.028  18.386  0.00  0.00    +0.000 HD
ENDROOT
BRANCH   2   5
ATOM      5  C   UNL     1       5.861   4.391  17.468  0.00  0.00    +0.000 A 
ATOM      6  C   UNL     1       5.225   3.851  16.333  0.00  0.00    +0.000 A 
ATOM      7  C   UNL     1       5.716   4.093  15.047  0.00  0.00    +0.000 A 
ATOM      8  C   UNL     1       6.847   4.883  14.884  0.00  0.00    +0.000 A 
ATOM      9 CL   UNL     1       7.452   5.193  13.304  0.00  0.00    +0.000 Cl
ATOM     10  C   UNL     1       7.490   5.429  15.991  0.00  0.00    +0.000 A 
ATOM     11  C   UNL     1       7.001   5.189  17.283  0.00  0.00    +0.000 A 
ATOM     12 CL   UNL     1       7.857   5.959  18.574  0.00  0.00    +0.000 Cl
ENDBRANCH   2   5
BRANCH   1  13
ATOM     13  C   UNL     1       4.300   2.379  20.300  0.00  0.00    +0.000 C 
BRANCH  13  15
ATOM     14  O   UNL     1       2.163   1.539  19.514  0.00  0.00    +0.000 OA
ATOM     15  C   UNL     1       2.778   2.272  20.276  0.00  0.00    +0.000 C 
BRANCH  15  16
ATOM     16  O   UNL     1       2.225   3.096  21.206  0.00  0.00    +0.000 OA
BRANCH  16  17
ATOM     17  C   UNL     1       1.132   3.903  20.758  0.00  0.00    +0.000 C 
BRANCH  17  18
ATOM     18  C   UNL     1       1.564   5.075  19.914  0.00  0.00    +0.000 A 
ATOM     19  C   UNL     1       1.810   6.327  20.498  0.00  0.00    +0.000 A 
ATOM     20  C   UNL     1       2.293   7.388  19.727  0.00  0.00    +0.000 A 
ATOM     21  C   UNL     1       2.524   7.214  18.365  0.00  0.00    +0.000 A 
ATOM     22  C   UNL     1       2.261   5.981  17.769  0.00  0.00    +0.000 A 
ATOM     23  C   UNL     1       1.779   4.919  18.538  0.00  0.00    +0.000 A 
ENDBRANCH  17  18
ENDBRANCH  16  17
ENDBRANCH  15  16
ENDBRANCH  13  15
ENDBRANCH   1  13
TORSDOF 6
ENDMDL
MODEL 4
REMARK VINA RESULT:      -6.9      5.131      7.459
REMARK  Name = 
REMARK  6 active torsions:
REMARK  status: ('A' for Active; 'I' for Inactive)
REMARK    1  A    between atoms: C_2  and  C_3
REMARK    2  A    between atoms: C_2  and  O_15
REMARK    3  A    between atoms: C_3  and  N_4
REMARK    4  A    between atoms: C_5  and  C_7
REMARK    5  A    between atoms: O_15  and  C_16
REMARK    6  A    between atoms: C_16  and  C_17
REMARK                            x       y       z     vdW  Elec       q    Type
REMARK                         _______ _______ _______ _____ _____    ______ ____
ROOT
ATOM      1  N   UNL     1       6.561   5.919  18.789  0.00  0.00    +0.000 N 
ATOM      2  C   UNL     1       6.362   4.704  18.173  0.00  0.00    +0.000 C 
ATOM      3  O   UNL     1       7.264   4.113  17.586  0.00  0.00    +0.000 OA
ATOM      4  H   UNL     1       5.827   6.324  19.360  0.00  0.00    +0.000 HD
ENDROOT
BRANCH   2   5
ATOM      5  C   UNL     1       4.990   4.124  18.182  0.00  0.00    +0.000 A 
ATOM      6  C   UNL     1       4.471   3.802  19.452  0.00  0.00    +0.000 A 
ATOM      7  C   UNL     1       3.190   3.263  19.594  0.00  0.00    +0.000 A 
ATOM      8  C   UNL     1       2.411   3.044  18.464  0.00  0.00    +0.000 A 
ATOM      9 CL   UNL     1       0.830   2.388  18.631  0.00  0.00    +0.000 Cl
ATOM     10  C   UNL     1       2.902   3.356  17.199  0.00  0.00    +0.000 A 
ATOM     11  C   UNL     1       4.187   3.898  17.052  0.00  0.00    +0.000 A 
ATOM     12 CL   UNL     1       4.666   4.286  15.437  0.00  0.00    +0.000 Cl
ENDBRANCH   2   5
BRANCH   1  13
ATOM     13  C   UNL     1       7.886   6.498  18.871  0.00  0.00    +0.000 C 
BRANCH  13  15
ATOM     14  O   UNL     1       7.478   7.975  16.988  0.00  0.00    +0.000 OA
ATOM     15  C   UNL     1       8.019   7.790  18.069  0.00  0.00    +0.000 C 
BRANCH  15  16
ATOM     16  O   UNL     1       8.814   8.679  18.722  0.00  0.00    +0.000 OA
BRANCH  16  17
ATOM     17  C   UNL     1       8.683  10.047  18.326  0.00  0.00    +0.000 C 
BRANCH  17  18
ATOM     18  C   UNL     1       9.817  10.917  18.807  0.00  0.00    +0.000 A 
ATOM     19  C   UNL     1      10.778  11.403  17.909  0.00  0.00    +0.000 A 
ATOM     20  C   UNL     1      11.778  12.278  18.344  0.00  0.00    +0.000 A 
ATOM     21  C   UNL     1      11.834  12.668  19.680  0.00  0.00    +0.000 A 
ATOM     22  C   UNL     1      10.897  12.173  20.586  0.00  0.00    +0.000 A 
ATOM     23  C   UNL     1       9.897  11.299  20.154  0.00  0.00    +0.000 A 
ENDBRANCH  17  18
ENDBRANCH  16  17
ENDBRANCH  15  16
ENDBRANCH  13  15
ENDBRANCH   1  13
TORSDOF 6
ENDMDL
MODEL 5
REMARK VINA RESULT:      -6.9      5.304      7.586
REMARK  Name = 
REMARK  6 active torsions:
REMARK  status: ('A' for Active; 'I' for Inactive)
REMARK    1  A    between atoms: C_2  and  C_3
REMARK    2  A    between atoms: C_2  and  O_15
REMARK    3  A    between atoms: C_3  and  N_4
REMARK    4  A    between atoms: C_5  and  C_7
REMARK    5  A    between atoms: O_15  and  C_16
REMARK    6  A    between atoms: C_16  and  C_17
REMARK                            x       y       z     vdW  Elec       q    Type
REMARK                         _______ _______ _______ _____ _____    ______ ____
ROOT
ATOM      1  N   UNL     1       5.982   6.694  17.474  0.00  0.00    +0.000 N 
ATOM      2  C   UNL     1       5.123   6.077  16.592  0.00  0.00    +0.000 C 
ATOM      3  O   UNL     1       5.223   6.215  15.376  0.00  0.00    +0.000 OA
ATOM      4  H   UNL     1       5.941   6.470  18.461  0.00  0.00    +0.000 HD
ENDROOT
BRANCH   2   5
ATOM      5  C   UNL     1       4.007   5.261  17.147  0.00  0.00    +0.000 A 
ATOM      6  C   UNL     1       4.085   3.875  16.904  0.00  0.00    +0.000 A 
ATOM      7  C   UNL     1       3.106   3.001  17.384  0.00  0.00    +0.000 A 
ATOM      8  C   UNL     1       2.039   3.505  18.118  0.00  0.00    +0.000 A 
ATOM      9 CL   UNL     1       0.834   2.435  18.719  0.00  0.00    +0.000 Cl
ATOM     10  C   UNL     1       1.942   4.871  18.372  0.00  0.00    +0.000 A 
ATOM     11  C   UNL     1       2.923   5.751  17.893  0.00  0.00    +0.000 A 
ATOM     12 CL   UNL     1       2.717   7.416  18.313  0.00  0.00    +0.000 Cl
ENDBRANCH   2   5
BRANCH   1  13
ATOM     13  C   UNL     1       7.123   7.444  16.991  0.00  0.00    +0.000 C 
BRANCH  13  15
ATOM     14  O   UNL     1       8.499   7.128  18.965  0.00  0.00    +0.000 OA
ATOM     15  C   UNL     1       8.060   7.886  18.111  0.00  0.00    +0.000 C 
BRANCH  15  16
ATOM     16  O   UNL     1       8.322   9.217  18.019  0.00  0.00    +0.000 OA
BRANCH  16  17
ATOM     17  C   UNL     1       9.100   9.779  19.081  0.00  0.00    +0.000 C 
BRANCH  17  18
ATOM     18  C   UNL     1       9.746  11.091  18.715  0.00  0.00    +0.000 A 
ATOM     19  C   UNL     1      11.049  11.390  19.138  0.00  0.00    +0.000 A 
ATOM     20  C   UNL     1      11.676  12.570  18.726  0.00  0.00    +0.000 A 
ATOM     21  C   UNL     1      11.005  13.466  17.898  0.00  0.00    +0.000 A 
ATOM     22  C   UNL     1       9.701  13.190  17.490  0.00  0.00    +0.000 A 
ATOM     23  C   UNL     1       9.073  12.012  17.900  0.00  0.00    +0.000 A 
ENDBRANCH  17  18
ENDBRANCH  16  17
ENDBRANCH  15  16
ENDBRANCH  13  15
ENDBRANCH   1  13
TORSDOF 6
ENDMDL
MODEL 6
REMARK VINA RESULT:      -6.9      1.807      2.685
REMARK  Name = 
REMARK  6 active torsions:
REMARK  status: ('A' for Active; 'I' for Inactive)
REMARK    1  A    between atoms: C_2  and  C_3
REMARK    2  A    between atoms: C_2  and  O_15
REMARK    3  A    between atoms: C_3  and  N_4
REMARK    4  A    between atoms: C_5  and  C_7
REMARK    5  A    between atoms: O_15  and  C_16
REMARK    6  A    between atoms: C_16  and  C_17
REMARK                            x       y       z     vdW  Elec       q    Type
REMARK                         _______ _______ _______ _____ _____    ______ ____
ROOT
ATOM      1  N   UNL     1       5.164   3.646  18.877  0.00  0.00    +0.000 N 
ATOM      2  C   UNL     1       5.626   4.225  17.716  0.00  0.00    +0.000 C 
ATOM      3  O   UNL     1       5.487   3.691  16.619  0.00  0.00    +0.000 OA
ATOM      4  H   UNL     1       5.194   4.164  19.748  0.00  0.00    +0.000 HD
ENDROOT
BRANCH   2   5
ATOM      5  C   UNL     1       6.362   5.516  17.815  0.00  0.00    +0.000 A 
ATOM      6  C   UNL     1       7.375   5.568  18.793  0.00  0.00    +0.000 A 
ATOM      7  C   UNL     1       8.145   6.720  18.974  0.00  0.00    +0.000 A 
ATOM      8  C   UNL     1       7.913   7.832  18.174  0.00  0.00    +0.000 A 
ATOM      9 CL   UNL     1       8.862   9.250  18.385  0.00  0.00    +0.000 Cl
ATOM     10  C   UNL     1       6.919   7.802  17.199  0.00  0.00    +0.000 A 
ATOM     11  C   UNL     1       6.144   6.649  17.013  0.00  0.00    +0.000 A 
ATOM     12 CL   UNL     1       4.974   6.718  15.742  0.00  0.00    +0.000 Cl
ENDBRANCH   2   5
BRANCH   1  13
ATOM     13  C   UNL     1       4.384   2.426  18.835  0.00  0.00    +0.000 C 
BRANCH  13  15
ATOM     14  O   UNL     1       3.549   2.389  21.114  0.00  0.00    +0.000 OA
ATOM     15  C   UNL     1       3.307   2.374  19.915  0.00  0.00    +0.000 C 
BRANCH  15  16
ATOM     16  O   UNL     1       2.070   2.305  19.355  0.00  0.00    +0.000 OA
BRANCH  16  17
ATOM     17  C   UNL     1       1.145   3.322  19.748  0.00  0.00    +0.000 C 
BRANCH  17  18
ATOM     18  C   UNL     1       1.652   4.719  19.493  0.00  0.00    +0.000 A 
ATOM     19  C   UNL     1       2.012   5.125  18.200  0.00  0.00    +0.000 A 
ATOM     20  C   UNL     1       2.401   6.445  17.952  0.00  0.00    +0.000 A 
ATOM     21  C   UNL     1       2.443   7.368  18.995  0.00  0.00    +0.000 A 
ATOM     22  C   UNL     1       2.109   6.970  20.288  0.00  0.00    +0.000 A 
ATOM     23  C   UNL     1       1.721   5.652  20.537  0.00  0.00    +0.000 A 
ENDBRANCH  17  18
ENDBRANCH  16  17
ENDBRANCH  15  16
ENDBRANCH  13  15
ENDBRANCH   1  13
TORSDOF 6
ENDMDL
MODEL 7
REMARK VINA RESULT:      -6.8      4.823      6.989
REMARK  Name = 
REMARK  6 active torsions:
REMARK  status: ('A' for Active; 'I' for Inactive)
REMARK    1  A    between atoms: C_2  and  C_3
REMARK    2  A    between atoms: C_2  and  O_15
REMARK    3  A    between atoms: C_3  and  N_4
REMARK    4  A    between atoms: C_5  and  C_7
REMARK    5  A    between atoms: O_15  and  C_16
REMARK    6  A    between atoms: C_16  and  C_17
REMARK                            x       y       z     vdW  Elec       q    Type
REMARK                         _______ _______ _______ _____ _____    ______ ____
ROOT
ATOM      1  N   UNL     1       5.652   6.457  17.645  0.00  0.00    +0.000 N 
ATOM      2  C   UNL     1       5.363   5.222  17.110  0.00  0.00    +0.000 C 
ATOM      3  O   UNL     1       6.102   4.670  16.300  0.00  0.00    +0.000 OA
ATOM      4  H   UNL     1       5.080   6.832  18.392  0.00  0.00    +0.000 HD
ENDROOT
BRANCH   2   5
ATOM      5  C   UNL     1       4.080   4.568  17.494  0.00  0.00    +0.000 A 
ATOM      6  C   UNL     1       4.084   3.159  17.476  0.00  0.00    +0.000 A 
ATOM      7  C   UNL     1       2.946   2.430  17.829  0.00  0.00    +0.000 A 
ATOM      8  C   UNL     1       1.792   3.103  18.209  0.00  0.00    +0.000 A 
ATOM      9 CL   UNL     1       0.390   2.212  18.653  0.00  0.00    +0.000 Cl
ATOM     10  C   UNL     1       1.765   4.495  18.237  0.00  0.00    +0.000 A 
ATOM     11  C   UNL     1       2.905   5.231  17.884  0.00  0.00    +0.000 A 
ATOM     12 CL   UNL     1       2.764   6.951  18.002  0.00  0.00    +0.000 Cl
ENDBRANCH   2   5
BRANCH   1  13
ATOM     13  C   UNL     1       6.914   7.108  17.359  0.00  0.00    +0.000 C 
BRANCH  13  15
ATOM     14  O   UNL     1       8.135   5.783  18.985  0.00  0.00    +0.000 OA
ATOM     15  C   UNL     1       7.965   6.864  18.437  0.00  0.00    +0.000 C 
BRANCH  15  16
ATOM     16  O   UNL     1       8.663   8.002  18.693  0.00  0.00    +0.000 OA
BRANCH  16  17
ATOM     17  C   UNL     1       8.209   9.182  18.024  0.00  0.00    +0.000 C 
BRANCH  17  18
ATOM     18  C   UNL     1       8.864  10.443  18.528  0.00  0.00    +0.000 A 
ATOM     19  C   UNL     1       9.559  10.451  19.746  0.00  0.00    +0.000 A 
ATOM     20  C   UNL     1      10.237  11.597  20.170  0.00  0.00    +0.000 A 
ATOM     21  C   UNL     1      10.219  12.750  19.387  0.00  0.00    +0.000 A 
ATOM     22  C   UNL     1       9.512  12.760  18.185  0.00  0.00    +0.000 A 
ATOM     23  C   UNL     1       8.834  11.615  17.761  0.00  0.00    +0.000 A 
ENDBRANCH  17  18
ENDBRANCH  16  17
ENDBRANCH  15  16
ENDBRANCH  13  15
ENDBRANCH   1  13
TORSDOF 6
ENDMDL
MODEL 8
REMARK VINA RESULT:      -6.7      1.108      1.547
REMARK  Name = 
REMARK  6 active torsions:
REMARK  status: ('A' for Active; 'I' for Inactive)
REMARK    1  A    between atoms: C_2  and  C_3
REMARK    2  A    between atoms: C_2  and  O_15
REMARK    3  A    between atoms: C_3  and  N_4
REMARK    4  A    between atoms: C_5  and  C_7
REMARK    5  A    between atoms: O_15  and  C_16
REMARK    6  A    between atoms: C_16  and  C_17
REMARK                            x       y       z     vdW  Elec       q    Type
REMARK                         _______ _______ _______ _____ _____    ______ ____
ROOT
ATOM      1  N   UNL     1       3.725   3.532  18.549  0.00  0.00    +0.000 N 
ATOM      2  C   UNL     1       5.008   4.031  18.593  0.00  0.00    +0.000 C 
ATOM      3  O   UNL     1       5.578   4.275  19.653  0.00  0.00    +0.000 OA
ATOM      4  H   UNL     1       3.327   3.236  17.665  0.00  0.00    +0.000 HD
ENDROOT
BRANCH   2   5
ATOM      5  C   UNL     1       5.695   4.330  17.306  0.00  0.00    +0.000 A 
ATOM      6  C   UNL     1       5.062   3.837  16.147  0.00  0.00    +0.000 A 
ATOM      7  C   UNL     1       5.602   4.062  14.878  0.00  0.00    +0.000 A 
ATOM      8  C   UNL     1       6.779   4.789  14.754  0.00  0.00    +0.000 A 
ATOM      9 CL   UNL     1       7.445   5.079  13.196  0.00  0.00    +0.000 Cl
ATOM     10  C   UNL     1       7.420   5.289  15.885  0.00  0.00    +0.000 A 
ATOM     11  C   UNL     1       6.883   5.065  17.161  0.00  0.00    +0.000 A 
ATOM     12 CL   UNL     1       7.744   5.774  18.482  0.00  0.00    +0.000 Cl
ENDBRANCH   2   5
BRANCH   1  13
ATOM     13  C   UNL     1       3.035   3.159  19.766  0.00  0.00    +0.000 C 
BRANCH  13  15
ATOM     14  O   UNL     1       0.819   2.443  19.080  0.00  0.00    +0.000 OA
ATOM     15  C   UNL     1       1.518   3.273  19.646  0.00  0.00    +0.000 C 
BRANCH  15  16
ATOM     16  O   UNL     1       1.074   4.409  20.245  0.00  0.00    +0.000 OA
BRANCH  16  17
ATOM     17  C   UNL     1       2.083   5.326  20.680  0.00  0.00    +0.000 C 
BRANCH  17  18
ATOM     18  C   UNL     1       1.990   6.674  20.009  0.00  0.00    +0.000 A 
ATOM     19  C   UNL     1       2.444   6.853  18.695  0.00  0.00    +0.000 A 
ATOM     20  C   UNL     1       2.280   8.080  18.047  0.00  0.00    +0.000 A 
ATOM     21  C   UNL     1       1.670   9.144  18.709  0.00  0.00    +0.000 A 
ATOM     22  C   UNL     1       1.236   8.984  20.024  0.00  0.00    +0.000 A 
ATOM     23  C   UNL     1       1.400   7.759  20.673  0.00  0.00    +0.000 A 
ENDBRANCH  17  18
ENDBRANCH  16  17
ENDBRANCH  15  16
ENDBRANCH  13  15
ENDBRANCH   1  13
TORSDOF 6
ENDMDL
MODEL 9
REMARK VINA RESULT:      -6.7      1.672      2.806
REMARK  Name = 
REMARK  6 active torsions:
REMARK  status: ('A' for Active; 'I' for Inactive)
REMARK    1  A    between atoms: C_2  and  C_3
REMARK    2  A    between atoms: C_2  and  O_15
REMARK    3  A    between atoms: C_3  and  N_4
REMARK    4  A    between atoms: C_5  and  C_7
REMARK    5  A    between atoms: O_15  and  C_16
REMARK    6  A    between atoms: C_16  and  C_17
REMARK                            x       y       z     vdW  Elec       q    Type
REMARK                         _______ _______ _______ _____ _____    ______ ____
ROOT
ATOM      1  N   UNL     1       5.128   3.080  19.231  0.00  0.00    +0.000 N 
ATOM      2  C   UNL     1       5.234   3.803  18.065  0.00  0.00    +0.000 C 
ATOM      3  O   UNL     1       4.701   3.441  17.019  0.00  0.00    +0.000 OA
ATOM      4  H   UNL     1       5.484   3.463  20.099  0.00  0.00    +0.000 HD
ENDROOT
BRANCH   2   5
ATOM      5  C   UNL     1       6.070   5.036  18.072  0.00  0.00    +0.000 A 
ATOM      6  C   UNL     1       6.961   5.163  19.155  0.00  0.00    +0.000 A 
ATOM      7  C   UNL     1       7.808   6.269  19.268  0.00  0.00    +0.000 A 
ATOM      8  C   UNL     1       7.776   7.258  18.293  0.00  0.00    +0.000 A 
ATOM      9 CL   UNL     1       8.821   8.618  18.420  0.00  0.00    +0.000 Cl
ATOM     10  C   UNL     1       6.905   7.153  17.212  0.00  0.00    +0.000 A 
ATOM     11  C   UNL     1       6.053   6.045  17.095  0.00  0.00    +0.000 A 
ATOM     12 CL   UNL     1       5.052   6.004  15.685  0.00  0.00    +0.000 Cl
ENDBRANCH   2   5
BRANCH   1  13
ATOM     13  C   UNL     1       4.274   1.911  19.301  0.00  0.00    +0.000 C 
BRANCH  13  15
ATOM     14  O   UNL     1       1.874   1.809  18.960  0.00  0.00    +0.000 OA
ATOM     15  C   UNL     1       2.818   2.256  19.596  0.00  0.00    +0.000 C 
BRANCH  15  16
ATOM     16  O   UNL     1       2.733   3.117  20.645  0.00  0.00    +0.000 OA
BRANCH  16  17
ATOM     17  C   UNL     1       1.563   3.940  20.690  0.00  0.00    +0.000 C 
BRANCH  17  18
ATOM     18  C   UNL     1       1.768   5.301  20.074  0.00  0.00    +0.000 A 
ATOM     19  C   UNL     1       1.522   6.466  20.815  0.00  0.00    +0.000 A 
ATOM     20  C   UNL     1       1.795   7.724  20.270  0.00  0.00    +0.000 A 
ATOM     21  C   UNL     1       2.305   7.832  18.978  0.00  0.00    +0.000 A 
ATOM     22  C   UNL     1       2.532   6.681  18.225  0.00  0.00    +0.000 A 
ATOM     23  C   UNL     1       2.260   5.423  18.767  0.00  0.00    +0.000 A 
ENDBRANCH  17  18
ENDBRANCH  16  17
ENDBRANCH  15  16
ENDBRANCH  13  15
ENDBRANCH   1  13
TORSDOF 6
ENDMDL
