MODEL 1
REMARK VINA RESULT:      -8.4      0.000      0.000
REMARK  Name = 
REMARK  17 active torsions:
REMARK  status: ('A' for Active; 'I' for Inactive)
REMARK    1  A    between atoms: C_1  and  C_2
REMARK    2  A    between atoms: C_2  and  C_3
REMARK    3  A    between atoms: C_4  and  C_5
REMARK    4  A    between atoms: C_5  and  C_7
REMARK    5  A    between atoms: C_7  and  O_8
REMARK    6  A    between atoms: C_7  and  C_9
REMARK    7  A    between atoms: C_9  and  C_10
REMARK    8  A    between atoms: C_11  and  C_12
REMARK    9  A    between atoms: C_12  and  C_13
REMARK   10  A    between atoms: C_13  and  C_14
REMARK   11  A    between atoms: C_14  and  C_15
REMARK   12  A    between atoms: C_16  and  C_17
REMARK   13  A    between atoms: C_17  and  C_18
REMARK   14  A    between atoms: C_18  and  C_19
REMARK   15  A    between atoms: C_19  and  C_20
REMARK   16  A    between atoms: C_25  and  O_26
REMARK   17  A    between atoms: C_28  and  C_29
REMARK                            x       y       z     vdW  Elec       q    Type
REMARK                         _______ _______ _______ _____ _____    ______ ____
ROOT
ATOM      1  C   UNL     1       2.095   5.447  19.101  0.00  0.00    +0.000 C 
ATOM      2  C   UNL     1       1.796   5.678  20.566  0.00  0.00    +0.000 C 
ATOM      3  C   UNL     1       2.353   6.499  18.301  0.00  0.00    +0.000 C 
ENDROOT
BRANCH   1   4
ATOM      4  C   UNL     1       2.149   4.036  18.526  0.00  0.00    +0.000 C 
BRANCH   4   5
ATOM      5  C   UNL     1       3.514   3.368  18.684  0.00  0.00    +0.000 C 
BRANCH   5   8
ATOM      6  C   UNL     1       5.573   4.372  17.719  0.00  0.00    +0.000 C 
ATOM      7  C   UNL     1       5.782   5.133  19.013  0.00  0.00    +0.000 C 
ATOM      8  C   UNL     1       4.513   3.543  17.576  0.00  0.00    +0.000 C 
BRANCH   6   9
ATOM      9  C   UNL     1       6.562   4.618  16.598  0.00  0.00    +0.000 C 
BRANCH   9  10
ATOM     10  C   UNL     1       5.889   5.203  15.325  0.00  0.00    +0.000 C 
ATOM     11  O   UNL     1       5.577   6.389  15.204  0.00  0.00    +0.000 OA
BRANCH  10  15
ATOM     12  C   UNL     1       6.014   3.090  12.058  0.00  0.00    +0.000 C 
ATOM     13  C   UNL     1       6.394   4.091  13.114  0.00  0.00    +0.000 C 
ATOM     14  C   UNL     1       7.617   4.927  12.842  0.00  0.00    +0.000 C 
ATOM     15  C   UNL     1       5.633   4.219  14.221  0.00  0.00    +0.000 C 
ENDBRANCH  10  15
ENDBRANCH   9  10
BRANCH   9  16
ATOM     16  O   UNL     1       7.623   5.438  17.069  0.00  0.00    +0.000 OA
ATOM     17  H   UNL     1       8.418   4.884  17.134  0.00  0.00    +0.000 HD
ENDBRANCH   9  16
ENDBRANCH   6   9
ENDBRANCH   5   8
ENDBRANCH   4   5
ENDBRANCH   1   4
BRANCH   3  18
ATOM     18  C   UNL     1       2.361   7.932  18.766  0.00  0.00    +0.000 C 
BRANCH  18  19
ATOM     19  C   UNL     1       1.606   8.861  17.815  0.00  0.00    +0.000 C 
BRANCH  19  20
ATOM     20  C   UNL     1       0.799   9.978  18.530  0.00  0.00    +0.000 C 
ATOM     21  C   UNL     1      -0.562  10.065  17.812  0.00  0.00    +0.000 C 
ATOM     22  C   UNL     1       1.574  11.305  18.502  0.00  0.00    +0.000 C 
ATOM     23  C   UNL     1       0.786  12.405  19.188  0.00  0.00    +0.000 C 
ATOM     24  C   UNL     1       0.203  11.903  20.477  0.00  0.00    +0.000 A 
ATOM     25  C   UNL     1      -0.320  12.828  21.390  0.00  0.00    +0.000 A 
ATOM     26  C   UNL     1      -0.861  12.380  22.589  0.00  0.00    +0.000 A 
ATOM     27  C   UNL     1      -0.872  11.027  22.908  0.00  0.00    +0.000 A 
ATOM     28  C   UNL     1      -0.361  10.086  22.002  0.00  0.00    +0.000 A 
ATOM     29  C   UNL     1      -0.364   8.627  22.364  0.00  0.00    +0.000 C 
ATOM     30  C   UNL     1       0.149  10.529  20.769  0.00  0.00    +0.000 A 
ATOM     31  O   UNL     1       0.586   9.561  19.894  0.00  0.00    +0.000 OA
BRANCH  26  32
ATOM     32  O   UNL     1      -1.392  13.252  23.495  0.00  0.00    +0.000 OA
ATOM     33  H   UNL     1      -0.785  14.005  23.592  0.00  0.00    +0.000 HD
ENDBRANCH  26  32
ENDBRANCH  19  20
ENDBRANCH  18  19
ENDBRANCH   3  18
TORSDOF 11
ENDMDL
MODEL 2
REMARK VINA RESULT:      -8.4      2.151      3.052
REMARK  Name = 
REMARK  17 active torsions:
REMARK  status: ('A' for Active; 'I' for Inactive)
REMARK    1  A    between atoms: C_1  and  C_2
REMARK    2  A    between atoms: C_2  and  C_3
REMARK    3  A    between atoms: C_4  and  C_5
REMARK    4  A    between atoms: C_5  and  C_7
REMARK    5  A    between atoms: C_7  and  O_8
REMARK    6  A    between atoms: C_7  and  C_9
REMARK    7  A    between atoms: C_9  and  C_10
REMARK    8  A    between atoms: C_11  and  C_12
REMARK    9  A    between atoms: C_12  and  C_13
REMARK   10  A    between atoms: C_13  and  C_14
REMARK   11  A    between atoms: C_14  and  C_15
REMARK   12  A    between atoms: C_16  and  C_17
REMARK   13  A    between atoms: C_17  and  C_18
REMARK   14  A    between atoms: C_18  and  C_19
REMARK   15  A    between atoms: C_19  and  C_20
REMARK   16  A    between atoms: C_25  and  O_26
REMARK   17  A    between atoms: C_28  and  C_29
REMARK                            x       y       z     vdW  Elec       q    Type
REMARK                         _______ _______ _______ _____ _____    ______ ____
ROOT
ATOM      1  C   UNL     1       2.424   5.824  19.541  0.00  0.00    +0.000 C 
ATOM      2  C   UNL     1       1.629   5.805  20.829  0.00  0.00    +0.000 C 
ATOM      3  C   UNL     1       2.557   6.978  18.858  0.00  0.00    +0.000 C 
ENDROOT
BRANCH   1   4
ATOM      4  C   UNL     1       3.112   4.564  19.027  0.00  0.00    +0.000 C 
BRANCH   4   5
ATOM      5  C   UNL     1       3.160   4.478  17.503  0.00  0.00    +0.000 C 
BRANCH   5   8
ATOM      6  C   UNL     1       5.383   4.714  16.417  0.00  0.00    +0.000 C 
ATOM      7  C   UNL     1       5.265   6.219  16.552  0.00  0.00    +0.000 C 
ATOM      8  C   UNL     1       4.398   3.907  16.871  0.00  0.00    +0.000 C 
BRANCH   6   9
ATOM      9  C   UNL     1       6.613   4.171  15.718  0.00  0.00    +0.000 C 
BRANCH   9  10
ATOM     10  C   UNL     1       6.706   4.621  14.234  0.00  0.00    +0.000 C 
ATOM     11  O   UNL     1       7.655   5.261  13.775  0.00  0.00    +0.000 OA
BRANCH  10  15
ATOM     12  C   UNL     1       4.413   3.159  11.450  0.00  0.00    +0.000 C 
ATOM     13  C   UNL     1       5.643   3.460  12.260  0.00  0.00    +0.000 C 
ATOM     14  C   UNL     1       6.941   2.893  11.749  0.00  0.00    +0.000 C 
ATOM     15  C   UNL     1       5.548   4.225  13.366  0.00  0.00    +0.000 C 
ENDBRANCH  10  15
ENDBRANCH   9  10
BRANCH   9  16
ATOM     16  O   UNL     1       7.776   4.520  16.459  0.00  0.00    +0.000 OA
ATOM     17  H   UNL     1       7.509   5.153  17.146  0.00  0.00    +0.000 HD
ENDBRANCH   9  16
ENDBRANCH   6   9
ENDBRANCH   5   8
ENDBRANCH   4   5
ENDBRANCH   1   4
BRANCH   3  18
ATOM     18  C   UNL     1       1.950   8.288  19.288  0.00  0.00    +0.000 C 
BRANCH  18  19
ATOM     19  C   UNL     1       1.519   9.151  18.103  0.00  0.00    +0.000 C 
BRANCH  19  20
ATOM     20  C   UNL     1       0.470  10.238  18.461  0.00  0.00    +0.000 C 
ATOM     21  C   UNL     1       1.127  11.599  18.156  0.00  0.00    +0.000 C 
ATOM     22  C   UNL     1       0.032  10.103  19.928  0.00  0.00    +0.000 C 
ATOM     23  C   UNL     1      -0.983  11.171  20.289  0.00  0.00    +0.000 C 
ATOM     24  C   UNL     1      -2.015  11.296  19.206  0.00  0.00    +0.000 A 
ATOM     25  C   UNL     1      -3.187  12.020  19.466  0.00  0.00    +0.000 A 
ATOM     26  C   UNL     1      -4.153  12.144  18.474  0.00  0.00    +0.000 A 
ATOM     27  C   UNL     1      -3.986  11.541  17.233  0.00  0.00    +0.000 A 
ATOM     28  C   UNL     1      -2.816  10.820  16.952  0.00  0.00    +0.000 A 
ATOM     29  C   UNL     1      -2.653  10.160  15.612  0.00  0.00    +0.000 C 
ATOM     30  C   UNL     1      -1.816  10.727  17.936  0.00  0.00    +0.000 A 
ATOM     31  O   UNL     1      -0.665  10.057  17.590  0.00  0.00    +0.000 OA
BRANCH  26  32
ATOM     32  O   UNL     1      -5.299  12.853  18.689  0.00  0.00    +0.000 OA
ATOM     33  H   UNL     1      -6.019  12.229  18.875  0.00  0.00    +0.000 HD
ENDBRANCH  26  32
ENDBRANCH  19  20
ENDBRANCH  18  19
ENDBRANCH   3  18
TORSDOF 11
ENDMDL
MODEL 3
REMARK VINA RESULT:      -7.8      6.187      8.441
REMARK  Name = 
REMARK  17 active torsions:
REMARK  status: ('A' for Active; 'I' for Inactive)
REMARK    1  A    between atoms: C_1  and  C_2
REMARK    2  A    between atoms: C_2  and  C_3
REMARK    3  A    between atoms: C_4  and  C_5
REMARK    4  A    between atoms: C_5  and  C_7
REMARK    5  A    between atoms: C_7  and  O_8
REMARK    6  A    between atoms: C_7  and  C_9
REMARK    7  A    between atoms: C_9  and  C_10
REMARK    8  A    between atoms: C_11  and  C_12
REMARK    9  A    between atoms: C_12  and  C_13
REMARK   10  A    between atoms: C_13  and  C_14
REMARK   11  A    between atoms: C_14  and  C_15
REMARK   12  A    between atoms: C_16  and  C_17
REMARK   13  A    between atoms: C_17  and  C_18
REMARK   14  A    between atoms: C_18  and  C_19
REMARK   15  A    between atoms: C_19  and  C_20
REMARK   16  A    between atoms: C_25  and  O_26
REMARK   17  A    between atoms: C_28  and  C_29
REMARK                            x       y       z     vdW  Elec       q    Type
REMARK                         _______ _______ _______ _____ _____    ______ ____
ROOT
ATOM      1  C   UNL     1       7.567   7.144  17.848  0.00  0.00    +0.000 C 
ATOM      2  C   UNL     1       6.651   7.745  16.803  0.00  0.00    +0.000 C 
ATOM      3  C   UNL     1       8.406   7.943  18.536  0.00  0.00    +0.000 C 
ENDROOT
BRANCH   1   4
ATOM      4  C   UNL     1       7.525   5.652  18.161  0.00  0.00    +0.000 C 
BRANCH   4   5
ATOM      5  C   UNL     1       6.586   5.301  19.313  0.00  0.00    +0.000 C 
BRANCH   5   8
ATOM      6  C   UNL     1       4.357   5.244  18.213  0.00  0.00    +0.000 C 
ATOM      7  C   UNL     1       4.906   4.254  17.204  0.00  0.00    +0.000 C 
ATOM      8  C   UNL     1       5.148   5.723  19.200  0.00  0.00    +0.000 C 
BRANCH   6   9
ATOM      9  C   UNL     1       2.923   5.699  18.035  0.00  0.00    +0.000 C 
BRANCH   9  10
ATOM     10  C   UNL     1       1.903   4.536  18.185  0.00  0.00    +0.000 C 
ATOM     11  O   UNL     1       1.401   3.943  17.228  0.00  0.00    +0.000 OA
BRANCH  10  15
ATOM     12  C   UNL     1       1.646   2.846  21.682  0.00  0.00    +0.000 C 
ATOM     13  C   UNL     1       2.107   3.144  20.282  0.00  0.00    +0.000 C 
ATOM     14  C   UNL     1       3.168   2.238  19.716  0.00  0.00    +0.000 C 
ATOM     15  C   UNL     1       1.552   4.164  19.596  0.00  0.00    +0.000 C 
ENDBRANCH  10  15
ENDBRANCH   9  10
BRANCH   9  16
ATOM     16  O   UNL     1       2.649   6.772  18.927  0.00  0.00    +0.000 OA
ATOM     17  H   UNL     1       1.904   6.505  19.490  0.00  0.00    +0.000 HD
ENDBRANCH   9  16
ENDBRANCH   6   9
ENDBRANCH   5   8
ENDBRANCH   4   5
ENDBRANCH   1   4
BRANCH   3  18
ATOM     18  C   UNL     1       8.509   9.432  18.334  0.00  0.00    +0.000 C 
BRANCH  18  19
ATOM     19  C   UNL     1       9.224  10.132  19.489  0.00  0.00    +0.000 C 
BRANCH  19  20
ATOM     20  C   UNL     1       9.899  11.474  19.096  0.00  0.00    +0.000 C 
ATOM     21  C   UNL     1      10.712  11.198  17.816  0.00  0.00    +0.000 C 
ATOM     22  C   UNL     1      10.765  12.001  20.251  0.00  0.00    +0.000 C 
ATOM     23  C   UNL     1      11.437  13.306  19.869  0.00  0.00    +0.000 C 
ATOM     24  C   UNL     1      10.458  14.218  19.188  0.00  0.00    +0.000 A 
ATOM     25  C   UNL     1      10.798  15.565  19.008  0.00  0.00    +0.000 A 
ATOM     26  C   UNL     1       9.902  16.422  18.381  0.00  0.00    +0.000 A 
ATOM     27  C   UNL     1       8.661  15.969  17.949  0.00  0.00    +0.000 A 
ATOM     28  C   UNL     1       8.307  14.622  18.113  0.00  0.00    +0.000 A 
ATOM     29  C   UNL     1       6.957  14.147  17.656  0.00  0.00    +0.000 C 
ATOM     30  C   UNL     1       9.226  13.741  18.708  0.00  0.00    +0.000 A 
ATOM     31  O   UNL     1       8.852  12.419  18.794  0.00  0.00    +0.000 OA
BRANCH  26  32
ATOM     32  O   UNL     1      10.207  17.738  18.177  0.00  0.00    +0.000 OA
ATOM     33  H   UNL     1      11.126  17.888  18.452  0.00  0.00    +0.000 HD
ENDBRANCH  26  32
ENDBRANCH  19  20
ENDBRANCH  18  19
ENDBRANCH   3  18
TORSDOF 11
ENDMDL
MODEL 4
REMARK VINA RESULT:      -7.7      2.580      4.964
REMARK  Name = 
REMARK  17 active torsions:
REMARK  status: ('A' for Active; 'I' for Inactive)
REMARK    1  A    between atoms: C_1  and  C_2
REMARK    2  A    between atoms: C_2  and  C_3
REMARK    3  A    between atoms: C_4  and  C_5
REMARK    4  A    between atoms: C_5  and  C_7
REMARK    5  A    between atoms: C_7  and  O_8
REMARK    6  A    between atoms: C_7  and  C_9
REMARK    7  A    between atoms: C_9  and  C_10
REMARK    8  A    between atoms: C_11  and  C_12
REMARK    9  A    between atoms: C_12  and  C_13
REMARK   10  A    between atoms: C_13  and  C_14
REMARK   11  A    between atoms: C_14  and  C_15
REMARK   12  A    between atoms: C_16  and  C_17
REMARK   13  A    between atoms: C_17  and  C_18
REMARK   14  A    between atoms: C_18  and  C_19
REMARK   15  A    between atoms: C_19  and  C_20
REMARK   16  A    between atoms: C_25  and  O_26
REMARK   17  A    between atoms: C_28  and  C_29
REMARK                            x       y       z     vdW  Elec       q    Type
REMARK                         _______ _______ _______ _____ _____    ______ ____
ROOT
ATOM      1  C   UNL     1       5.185   6.583  17.271  0.00  0.00    +0.000 C 
ATOM      2  C   UNL     1       5.124   6.579  15.759  0.00  0.00    +0.000 C 
ATOM      3  C   UNL     1       4.290   7.307  17.971  0.00  0.00    +0.000 C 
ENDROOT
BRANCH   1   4
ATOM      4  C   UNL     1       6.220   5.745  18.015  0.00  0.00    +0.000 C 
BRANCH   4   5
ATOM      5  C   UNL     1       5.641   4.475  18.634  0.00  0.00    +0.000 C 
BRANCH   5   8
ATOM      6  C   UNL     1       3.789   2.819  18.566  0.00  0.00    +0.000 C 
ATOM      7  C   UNL     1       4.440   2.077  19.717  0.00  0.00    +0.000 C 
ATOM      8  C   UNL     1       4.354   3.943  18.070  0.00  0.00    +0.000 C 
BRANCH   6   9
ATOM      9  C   UNL     1       2.526   2.223  17.977  0.00  0.00    +0.000 C 
BRANCH   9  10
ATOM     10  C   UNL     1       1.240   2.719  18.693  0.00  0.00    +0.000 C 
ATOM     11  O   UNL     1       0.219   2.038  18.808  0.00  0.00    +0.000 OA
BRANCH  10  15
ATOM     12  C   UNL     1       1.540   5.842  20.997  0.00  0.00    +0.000 C 
ATOM     13  C   UNL     1       1.528   4.407  20.550  0.00  0.00    +0.000 C 
ATOM     14  C   UNL     1       1.740   3.367  21.618  0.00  0.00    +0.000 C 
ATOM     15  C   UNL     1       1.308   4.110  19.252  0.00  0.00    +0.000 C 
ENDBRANCH  10  15
ENDBRANCH   9  10
BRANCH   9  16
ATOM     16  O   UNL     1       2.491   2.470  16.577  0.00  0.00    +0.000 OA
ATOM     17  H   UNL     1       2.778   3.386  16.432  0.00  0.00    +0.000 HD
ENDBRANCH   9  16
ENDBRANCH   6   9
ENDBRANCH   5   8
ENDBRANCH   4   5
ENDBRANCH   1   4
BRANCH   3  18
ATOM     18  C   UNL     1       3.205   8.143  17.344  0.00  0.00    +0.000 C 
BRANCH  18  19
ATOM     19  C   UNL     1       1.851   7.950  18.025  0.00  0.00    +0.000 C 
BRANCH  19  20
ATOM     20  C   UNL     1       1.202   9.269  18.527  0.00  0.00    +0.000 C 
ATOM     21  C   UNL     1       2.082  10.419  18.001  0.00  0.00    +0.000 C 
ATOM     22  C   UNL     1       1.083   9.262  20.060  0.00  0.00    +0.000 C 
ATOM     23  C   UNL     1       0.462  10.552  20.559  0.00  0.00    +0.000 C 
ATOM     24  C   UNL     1      -0.724  10.921  19.715  0.00  0.00    +0.000 A 
ATOM     25  C   UNL     1      -1.598  11.916  20.172  0.00  0.00    +0.000 A 
ATOM     26  C   UNL     1      -2.702  12.267  19.404  0.00  0.00    +0.000 A 
ATOM     27  C   UNL     1      -2.966  11.630  18.198  0.00  0.00    +0.000 A 
ATOM     28  C   UNL     1      -2.098  10.637  17.720  0.00  0.00    +0.000 A 
ATOM     29  C   UNL     1      -2.402   9.945  16.422  0.00  0.00    +0.000 C 
ATOM     30  C   UNL     1      -0.956  10.308  18.472  0.00  0.00    +0.000 A 
ATOM     31  O   UNL     1      -0.108   9.368  17.932  0.00  0.00    +0.000 OA
BRANCH  26  32
ATOM     32  O   UNL     1      -3.565  13.243  19.813  0.00  0.00    +0.000 OA
ATOM     33  H   UNL     1      -4.456  12.861  19.876  0.00  0.00    +0.000 HD
ENDBRANCH  26  32
ENDBRANCH  19  20
ENDBRANCH  18  19
ENDBRANCH   3  18
TORSDOF 11
ENDMDL
MODEL 5
REMARK VINA RESULT:      -7.3      6.457      8.614
REMARK  Name = 
REMARK  17 active torsions:
REMARK  status: ('A' for Active; 'I' for Inactive)
REMARK    1  A    between atoms: C_1  and  C_2
REMARK    2  A    between atoms: C_2  and  C_3
REMARK    3  A    between atoms: C_4  and  C_5
REMARK    4  A    between atoms: C_5  and  C_7
REMARK    5  A    between atoms: C_7  and  O_8
REMARK    6  A    between atoms: C_7  and  C_9
REMARK    7  A    between atoms: C_9  and  C_10
REMARK    8  A    between atoms: C_11  and  C_12
REMARK    9  A    between atoms: C_12  and  C_13
REMARK   10  A    between atoms: C_13  and  C_14
REMARK   11  A    between atoms: C_14  and  C_15
REMARK   12  A    between atoms: C_16  and  C_17
REMARK   13  A    between atoms: C_17  and  C_18
REMARK   14  A    between atoms: C_18  and  C_19
REMARK   15  A    between atoms: C_19  and  C_20
REMARK   16  A    between atoms: C_25  and  O_26
REMARK   17  A    between atoms: C_28  and  C_29
REMARK                            x       y       z     vdW  Elec       q    Type
REMARK                         _______ _______ _______ _____ _____    ______ ____
ROOT
ATOM      1  C   UNL     1       7.304   7.944  17.793  0.00  0.00    +0.000 C 
ATOM      2  C   UNL     1       7.979   6.740  18.413  0.00  0.00    +0.000 C 
ATOM      3  C   UNL     1       7.878   9.158  17.903  0.00  0.00    +0.000 C 
ENDROOT
BRANCH   1   4
ATOM      4  C   UNL     1       6.004   7.796  17.010  0.00  0.00    +0.000 C 
BRANCH   4   5
ATOM      5  C   UNL     1       5.841   6.424  16.360  0.00  0.00    +0.000 C 
BRANCH   5   8
ATOM      6  C   UNL     1       5.018   4.106  16.717  0.00  0.00    +0.000 C 
ATOM      7  C   UNL     1       5.955   3.628  15.626  0.00  0.00    +0.000 C 
ATOM      8  C   UNL     1       4.975   5.414  17.059  0.00  0.00    +0.000 C 
BRANCH   6   9
ATOM      9  C   UNL     1       4.112   3.075  17.360  0.00  0.00    +0.000 C 
BRANCH   9  10
ATOM     10  C   UNL     1       4.235   3.052  18.909  0.00  0.00    +0.000 C 
ATOM     11  O   UNL     1       5.308   3.147  19.508  0.00  0.00    +0.000 OA
BRANCH  10  15
ATOM     12  C   UNL     1       0.953   3.655  20.914  0.00  0.00    +0.000 C 
ATOM     13  C   UNL     1       2.218   3.931  20.149  0.00  0.00    +0.000 C 
ATOM     14  C   UNL     1       2.617   5.376  20.006  0.00  0.00    +0.000 C 
ATOM     15  C   UNL     1       2.942   2.905  19.656  0.00  0.00    +0.000 C 
ENDBRANCH  10  15
ENDBRANCH   9  10
BRANCH   9  16
ATOM     16  O   UNL     1       2.772   3.283  16.930  0.00  0.00    +0.000 OA
ATOM     17  H   UNL     1       2.209   3.309  17.721  0.00  0.00    +0.000 HD
ENDBRANCH   9  16
ENDBRANCH   6   9
ENDBRANCH   5   8
ENDBRANCH   4   5
ENDBRANCH   1   4
BRANCH   3  18
ATOM     18  C   UNL     1       9.176   9.416  18.623  0.00  0.00    +0.000 C 
BRANCH  18  19
ATOM     19  C   UNL     1       9.086  10.602  19.584  0.00  0.00    +0.000 C 
BRANCH  19  20
ATOM     20  C   UNL     1       9.876  11.854  19.117  0.00  0.00    +0.000 C 
ATOM     21  C   UNL     1      10.601  11.458  17.816  0.00  0.00    +0.000 C 
ATOM     22  C   UNL     1      10.841  12.324  20.218  0.00  0.00    +0.000 C 
ATOM     23  C   UNL     1      11.626  13.540  19.764  0.00  0.00    +0.000 C 
ATOM     24  C   UNL     1      10.716  14.527  19.092  0.00  0.00    +0.000 A 
ATOM     25  C   UNL     1      11.184  15.826  18.852  0.00  0.00    +0.000 A 
ATOM     26  C   UNL     1      10.353  16.752  18.233  0.00  0.00    +0.000 A 
ATOM     27  C   UNL     1       9.055  16.417  17.868  0.00  0.00    +0.000 A 
ATOM     28  C   UNL     1       8.573  15.120  18.092  0.00  0.00    +0.000 A 
ATOM     29  C   UNL     1       7.163  14.773  17.706  0.00  0.00    +0.000 C 
ATOM     30  C   UNL     1       9.423  14.166  18.679  0.00  0.00    +0.000 A 
ATOM     31  O   UNL     1       8.919  12.893  18.825  0.00  0.00    +0.000 OA
BRANCH  26  32
ATOM     32  O   UNL     1      10.782  18.022  17.971  0.00  0.00    +0.000 OA
ATOM     33  H   UNL     1      11.749  18.010  17.882  0.00  0.00    +0.000 HD
ENDBRANCH  26  32
ENDBRANCH  19  20
ENDBRANCH  18  19
ENDBRANCH   3  18
TORSDOF 11
ENDMDL
MODEL 6
REMARK VINA RESULT:      -7.2      2.975      5.010
REMARK  Name = 
REMARK  17 active torsions:
REMARK  status: ('A' for Active; 'I' for Inactive)
REMARK    1  A    between atoms: C_1  and  C_2
REMARK    2  A    between atoms: C_2  and  C_3
REMARK    3  A    between atoms: C_4  and  C_5
REMARK    4  A    between atoms: C_5  and  C_7
REMARK    5  A    between atoms: C_7  and  O_8
REMARK    6  A    between atoms: C_7  and  C_9
REMARK    7  A    between atoms: C_9  and  C_10
REMARK    8  A    between atoms: C_11  and  C_12
REMARK    9  A    between atoms: C_12  and  C_13
REMARK   10  A    between atoms: C_13  and  C_14
REMARK   11  A    between atoms: C_14  and  C_15
REMARK   12  A    between atoms: C_16  and  C_17
REMARK   13  A    between atoms: C_17  and  C_18
REMARK   14  A    between atoms: C_18  and  C_19
REMARK   15  A    between atoms: C_19  and  C_20
REMARK   16  A    between atoms: C_25  and  O_26
REMARK   17  A    between atoms: C_28  and  C_29
REMARK                            x       y       z     vdW  Elec       q    Type
REMARK                         _______ _______ _______ _____ _____    ______ ____
ROOT
ATOM      1  C   UNL     1       1.063   9.449  18.942  0.00  0.00    +0.000 C 
ATOM      2  C   UNL     1       1.024   9.109  20.416  0.00  0.00    +0.000 C 
ATOM      3  C   UNL     1       0.069  10.179  18.401  0.00  0.00    +0.000 C 
ENDROOT
BRANCH   1   4
ATOM      4  C   UNL     1       2.235   9.013  18.069  0.00  0.00    +0.000 C 
BRANCH   4   5
ATOM      5  C   UNL     1       2.227   7.521  17.745  0.00  0.00    +0.000 C 
BRANCH   5   8
ATOM      6  C   UNL     1       2.349   5.254  18.759  0.00  0.00    +0.000 C 
ATOM      7  C   UNL     1       1.543   4.715  17.594  0.00  0.00    +0.000 C 
ATOM      8  C   UNL     1       2.671   6.567  18.818  0.00  0.00    +0.000 C 
BRANCH   6   9
ATOM      9  C   UNL     1       2.727   4.281  19.857  0.00  0.00    +0.000 C 
BRANCH   9  10
ATOM     10  C   UNL     1       3.989   3.446  19.508  0.00  0.00    +0.000 C 
ATOM     11  O   UNL     1       3.991   2.215  19.428  0.00  0.00    +0.000 OA
BRANCH  10  15
ATOM     12  C   UNL     1       7.054   5.263  17.941  0.00  0.00    +0.000 C 
ATOM     13  C   UNL     1       5.773   4.484  18.053  0.00  0.00    +0.000 C 
ATOM     14  C   UNL     1       5.170   3.992  16.764  0.00  0.00    +0.000 C 
ATOM     15  C   UNL     1       5.241   4.238  19.267  0.00  0.00    +0.000 C 
ENDBRANCH  10  15
ENDBRANCH   9  10
BRANCH   9  16
ATOM     16  O   UNL     1       2.869   4.981  21.086  0.00  0.00    +0.000 OA
ATOM     17  H   UNL     1       3.288   5.835  20.893  0.00  0.00    +0.000 HD
ENDBRANCH   9  16
ENDBRANCH   6   9
ENDBRANCH   5   8
ENDBRANCH   4   5
ENDBRANCH   1   4
BRANCH   3  18
ATOM     18  C   UNL     1      -1.119  10.691  19.173  0.00  0.00    +0.000 C 
BRANCH  18  19
ATOM     19  C   UNL     1      -1.084  12.207  19.362  0.00  0.00    +0.000 C 
BRANCH  19  20
ATOM     20  C   UNL     1      -1.805  12.701  20.646  0.00  0.00    +0.000 C 
ATOM     21  C   UNL     1      -1.428  14.185  20.818  0.00  0.00    +0.000 C 
ATOM     22  C   UNL     1      -1.405  11.840  21.855  0.00  0.00    +0.000 C 
ATOM     23  C   UNL     1      -2.095  12.325  23.116  0.00  0.00    +0.000 C 
ATOM     24  C   UNL     1      -3.544  12.606  22.841  0.00  0.00    +0.000 A 
ATOM     25  C   UNL     1      -4.415  12.794  23.923  0.00  0.00    +0.000 A 
ATOM     26  C   UNL     1      -5.760  13.052  23.686  0.00  0.00    +0.000 A 
ATOM     27  C   UNL     1      -6.260  13.106  22.391  0.00  0.00    +0.000 A 
ATOM     28  C   UNL     1      -5.402  12.930  21.296  0.00  0.00    +0.000 A 
ATOM     29  C   UNL     1      -5.958  12.975  19.900  0.00  0.00    +0.000 C 
ATOM     30  C   UNL     1      -4.033  12.710  21.528  0.00  0.00    +0.000 A 
ATOM     31  O   UNL     1      -3.226  12.599  20.419  0.00  0.00    +0.000 OA
BRANCH  26  32
ATOM     32  O   UNL     1      -6.633  13.254  24.716  0.00  0.00    +0.000 OA
ATOM     33  H   UNL     1      -7.130  12.433  24.865  0.00  0.00    +0.000 HD
ENDBRANCH  26  32
ENDBRANCH  19  20
ENDBRANCH  18  19
ENDBRANCH   3  18
TORSDOF 11
ENDMDL
MODEL 7
REMARK VINA RESULT:      -7.2      1.534      2.720
REMARK  Name = 
REMARK  17 active torsions:
REMARK  status: ('A' for Active; 'I' for Inactive)
REMARK    1  A    between atoms: C_1  and  C_2
REMARK    2  A    between atoms: C_2  and  C_3
REMARK    3  A    between atoms: C_4  and  C_5
REMARK    4  A    between atoms: C_5  and  C_7
REMARK    5  A    between atoms: C_7  and  O_8
REMARK    6  A    between atoms: C_7  and  C_9
REMARK    7  A    between atoms: C_9  and  C_10
REMARK    8  A    between atoms: C_11  and  C_12
REMARK    9  A    between atoms: C_12  and  C_13
REMARK   10  A    between atoms: C_13  and  C_14
REMARK   11  A    between atoms: C_14  and  C_15
REMARK   12  A    between atoms: C_16  and  C_17
REMARK   13  A    between atoms: C_17  and  C_18
REMARK   14  A    between atoms: C_18  and  C_19
REMARK   15  A    between atoms: C_19  and  C_20
REMARK   16  A    between atoms: C_25  and  O_26
REMARK   17  A    between atoms: C_28  and  C_29
REMARK                            x       y       z     vdW  Elec       q    Type
REMARK                         _______ _______ _______ _____ _____    ______ ____
ROOT
ATOM      1  C   UNL     1       1.289   4.011  20.257  0.00  0.00    +0.000 C 
ATOM      2  C   UNL     1       1.935   3.514  21.532  0.00  0.00    +0.000 C 
ATOM      3  C   UNL     1       1.124   5.334  20.067  0.00  0.00    +0.000 C 
ENDROOT
BRANCH   1   4
ATOM      4  C   UNL     1       0.860   3.037  19.165  0.00  0.00    +0.000 C 
BRANCH   4   5
ATOM      5  C   UNL     1       2.015   2.565  18.285  0.00  0.00    +0.000 C 
BRANCH   5   8
ATOM      6  C   UNL     1       4.173   3.789  18.119  0.00  0.00    +0.000 C 
ATOM      7  C   UNL     1       4.724   2.921  19.233  0.00  0.00    +0.000 C 
ATOM      8  C   UNL     1       2.907   3.611  17.676  0.00  0.00    +0.000 C 
BRANCH   6   9
ATOM      9  C   UNL     1       5.073   4.876  17.570  0.00  0.00    +0.000 C 
BRANCH   9  10
ATOM     10  C   UNL     1       6.242   4.311  16.716  0.00  0.00    +0.000 C 
ATOM     11  O   UNL     1       7.421   4.335  17.076  0.00  0.00    +0.000 OA
BRANCH  10  15
ATOM     12  C   UNL     1       5.829   3.472  12.938  0.00  0.00    +0.000 C 
ATOM     13  C   UNL     1       6.327   4.121  14.200  0.00  0.00    +0.000 C 
ATOM     14  C   UNL     1       7.335   5.228  14.035  0.00  0.00    +0.000 C 
ATOM     15  C   UNL     1       5.849   3.719  15.395  0.00  0.00    +0.000 C 
ENDBRANCH  10  15
ENDBRANCH   9  10
BRANCH   9  16
ATOM     16  O   UNL     1       4.293   5.824  16.852  0.00  0.00    +0.000 OA
ATOM     17  H   UNL     1       4.571   6.710  17.135  0.00  0.00    +0.000 HD
ENDBRANCH   9  16
ENDBRANCH   6   9
ENDBRANCH   5   8
ENDBRANCH   4   5
ENDBRANCH   1   4
BRANCH   3  18
ATOM     18  C   UNL     1       1.540   6.388  21.061  0.00  0.00    +0.000 C 
BRANCH  18  19
ATOM     19  C   UNL     1       1.545   7.792  20.457  0.00  0.00    +0.000 C 
BRANCH  19  20
ATOM     20  C   UNL     1       1.046   8.898  21.426  0.00  0.00    +0.000 C 
ATOM     21  C   UNL     1       2.070   8.968  22.577  0.00  0.00    +0.000 C 
ATOM     22  C   UNL     1      -0.378   8.588  21.913  0.00  0.00    +0.000 C 
ATOM     23  C   UNL     1      -0.867   9.658  22.870  0.00  0.00    +0.000 C 
ATOM     24  C   UNL     1      -0.536  11.023  22.339  0.00  0.00    +0.000 A 
ATOM     25  C   UNL     1      -1.139  12.143  22.927  0.00  0.00    +0.000 A 
ATOM     26  C   UNL     1      -0.844  13.414  22.445  0.00  0.00    +0.000 A 
ATOM     27  C   UNL     1       0.024  13.590  21.374  0.00  0.00    +0.000 A 
ATOM     28  C   UNL     1       0.644  12.481  20.780  0.00  0.00    +0.000 A 
ATOM     29  C   UNL     1       1.569  12.682  19.614  0.00  0.00    +0.000 C 
ATOM     30  C   UNL     1       0.383  11.197  21.290  0.00  0.00    +0.000 A 
ATOM     31  O   UNL     1       1.060  10.149  20.708  0.00  0.00    +0.000 OA
BRANCH  26  32
ATOM     32  O   UNL     1      -1.403  14.528  23.003  0.00  0.00    +0.000 OA
ATOM     33  H   UNL     1      -1.712  14.304  23.896  0.00  0.00    +0.000 HD
ENDBRANCH  26  32
ENDBRANCH  19  20
ENDBRANCH  18  19
ENDBRANCH   3  18
TORSDOF 11
ENDMDL
MODEL 8
REMARK VINA RESULT:      -7.2      5.775     10.094
REMARK  Name = 
REMARK  17 active torsions:
REMARK  status: ('A' for Active; 'I' for Inactive)
REMARK    1  A    between atoms: C_1  and  C_2
REMARK    2  A    between atoms: C_2  and  C_3
REMARK    3  A    between atoms: C_4  and  C_5
REMARK    4  A    between atoms: C_5  and  C_7
REMARK    5  A    between atoms: C_7  and  O_8
REMARK    6  A    between atoms: C_7  and  C_9
REMARK    7  A    between atoms: C_9  and  C_10
REMARK    8  A    between atoms: C_11  and  C_12
REMARK    9  A    between atoms: C_12  and  C_13
REMARK   10  A    between atoms: C_13  and  C_14
REMARK   11  A    between atoms: C_14  and  C_15
REMARK   12  A    between atoms: C_16  and  C_17
REMARK   13  A    between atoms: C_17  and  C_18
REMARK   14  A    between atoms: C_18  and  C_19
REMARK   15  A    between atoms: C_19  and  C_20
REMARK   16  A    between atoms: C_25  and  O_26
REMARK   17  A    between atoms: C_28  and  C_29
REMARK                            x       y       z     vdW  Elec       q    Type
REMARK                         _______ _______ _______ _____ _____    ______ ____
ROOT
ATOM      1  C   UNL     1       9.444  10.693  18.713  0.00  0.00    +0.000 C 
ATOM      2  C   UNL     1       9.298  10.420  20.195  0.00  0.00    +0.000 C 
ATOM      3  C   UNL     1       8.844   9.878  17.825  0.00  0.00    +0.000 C 
ENDROOT
BRANCH   1   4
ATOM      4  C   UNL     1      10.227  11.902  18.213  0.00  0.00    +0.000 C 
BRANCH   4   5
ATOM      5  C   UNL     1       9.356  12.939  17.508  0.00  0.00    +0.000 C 
BRANCH   5   8
ATOM      6  C   UNL     1       8.109  14.830  18.532  0.00  0.00    +0.000 C 
ATOM      7  C   UNL     1       9.196  15.774  18.059  0.00  0.00    +0.000 C 
ATOM      8  C   UNL     1       8.188  13.506  18.264  0.00  0.00    +0.000 C 
BRANCH   6   9
ATOM      9  C   UNL     1       6.977  15.421  19.348  0.00  0.00    +0.000 C 
BRANCH   9  10
ATOM     10  C   UNL     1       7.382  15.700  20.821  0.00  0.00    +0.000 C 
ATOM     11  O   UNL     1       7.048  16.713  21.439  0.00  0.00    +0.000 OA
BRANCH  10  15
ATOM     12  C   UNL     1       8.708  12.692  22.905  0.00  0.00    +0.000 C 
ATOM     13  C   UNL     1       7.756  13.677  22.285  0.00  0.00    +0.000 C 
ATOM     14  C   UNL     1       6.303  13.532  22.653  0.00  0.00    +0.000 C 
ATOM     15  C   UNL     1       8.226  14.642  21.469  0.00  0.00    +0.000 C 
ENDBRANCH  10  15
ENDBRANCH   9  10
BRANCH   9  16
ATOM     16  O   UNL     1       6.479  16.584  18.698  0.00  0.00    +0.000 OA
ATOM     17  H   UNL     1       6.789  16.565  17.779  0.00  0.00    +0.000 HD
ENDBRANCH   9  16
ENDBRANCH   6   9
ENDBRANCH   5   8
ENDBRANCH   4   5
ENDBRANCH   1   4
BRANCH   3  18
ATOM     18  C   UNL     1       8.019   8.675  18.205  0.00  0.00    +0.000 C 
BRANCH  18  19
ATOM     19  C   UNL     1       7.684   7.791  17.005  0.00  0.00    +0.000 C 
BRANCH  19  20
ATOM     20  C   UNL     1       6.842   6.536  17.359  0.00  0.00    +0.000 C 
ATOM     21  C   UNL     1       7.324   6.059  18.743  0.00  0.00    +0.000 C 
ATOM     22  C   UNL     1       6.993   5.460  16.271  0.00  0.00    +0.000 C 
ATOM     23  C   UNL     1       6.182   4.225  16.617  0.00  0.00    +0.000 C 
ATOM     24  C   UNL     1       4.816   4.617  17.101  0.00  0.00    +0.000 A 
ATOM     25  C   UNL     1       3.826   3.632  17.205  0.00  0.00    +0.000 A 
ATOM     26  C   UNL     1       2.555   3.979  17.649  0.00  0.00    +0.000 A 
ATOM     27  C   UNL     1       2.244   5.294  17.971  0.00  0.00    +0.000 A 
ATOM     28  C   UNL     1       3.225   6.292  17.881  0.00  0.00    +0.000 A 
ATOM     29  C   UNL     1       2.873   7.714  18.218  0.00  0.00    +0.000 C 
ATOM     30  C   UNL     1       4.524   5.940  17.473  0.00  0.00    +0.000 A 
ATOM     31  O   UNL     1       5.463   6.946  17.457  0.00  0.00    +0.000 OA
BRANCH  26  32
ATOM     32  O   UNL     1       1.571   3.041  17.776  0.00  0.00    +0.000 OA
ATOM     33  H   UNL     1       0.844   3.424  18.295  0.00  0.00    +0.000 HD
ENDBRANCH  26  32
ENDBRANCH  19  20
ENDBRANCH  18  19
ENDBRANCH   3  18
TORSDOF 11
ENDMDL
MODEL 9
REMARK VINA RESULT:      -7.2      2.377      3.451
REMARK  Name = 
REMARK  17 active torsions:
REMARK  status: ('A' for Active; 'I' for Inactive)
REMARK    1  A    between atoms: C_1  and  C_2
REMARK    2  A    between atoms: C_2  and  C_3
REMARK    3  A    between atoms: C_4  and  C_5
REMARK    4  A    between atoms: C_5  and  C_7
REMARK    5  A    between atoms: C_7  and  O_8
REMARK    6  A    between atoms: C_7  and  C_9
REMARK    7  A    between atoms: C_9  and  C_10
REMARK    8  A    between atoms: C_11  and  C_12
REMARK    9  A    between atoms: C_12  and  C_13
REMARK   10  A    between atoms: C_13  and  C_14
REMARK   11  A    between atoms: C_14  and  C_15
REMARK   12  A    between atoms: C_16  and  C_17
REMARK   13  A    between atoms: C_17  and  C_18
REMARK   14  A    between atoms: C_18  and  C_19
REMARK   15  A    between atoms: C_19  and  C_20
REMARK   16  A    between atoms: C_25  and  O_26
REMARK   17  A    between atoms: C_28  and  C_29
REMARK                            x       y       z     vdW  Elec       q    Type
REMARK                         _______ _______ _______ _____ _____    ______ ____
ROOT
ATOM      1  C   UNL     1       1.511   4.647  18.877  0.00  0.00    +0.000 C 
ATOM      2  C   UNL     1       1.362   4.651  20.382  0.00  0.00    +0.000 C 
ATOM      3  C   UNL     1       1.833   5.788  18.236  0.00  0.00    +0.000 C 
ENDROOT
BRANCH   1   4
ATOM      4  C   UNL     1       1.342   3.359  18.077  0.00  0.00    +0.000 C 
BRANCH   4   5
ATOM      5  C   UNL     1       2.635   2.876  17.425  0.00  0.00    +0.000 C 
BRANCH   5   8
ATOM      6  C   UNL     1       4.693   3.602  18.615  0.00  0.00    +0.000 C 
ATOM      7  C   UNL     1       4.422   2.554  19.676  0.00  0.00    +0.000 C 
ATOM      8  C   UNL     1       3.856   3.741  17.562  0.00  0.00    +0.000 C 
BRANCH   6   9
ATOM      9  C   UNL     1       5.896   4.501  18.814  0.00  0.00    +0.000 C 
BRANCH   9  10
ATOM     10  C   UNL     1       6.582   4.887  17.475  0.00  0.00    +0.000 C 
ATOM     11  O   UNL     1       6.986   4.061  16.654  0.00  0.00    +0.000 OA
BRANCH  10  15
ATOM     12  C   UNL     1       7.598   8.643  17.596  0.00  0.00    +0.000 C 
ATOM     13  C   UNL     1       7.562   7.174  17.913  0.00  0.00    +0.000 C 
ATOM     14  C   UNL     1       8.459   6.702  19.027  0.00  0.00    +0.000 C 
ATOM     15  C   UNL     1       6.733   6.360  17.228  0.00  0.00    +0.000 C 
ENDBRANCH  10  15
ENDBRANCH   9  10
BRANCH   9  16
ATOM     16  O   UNL     1       5.517   5.643  19.572  0.00  0.00    +0.000 OA
ATOM     17  H   UNL     1       4.622   5.897  19.296  0.00  0.00    +0.000 HD
ENDBRANCH   9  16
ENDBRANCH   6   9
ENDBRANCH   5   8
ENDBRANCH   4   5
ENDBRANCH   1   4
BRANCH   3  18
ATOM     18  C   UNL     1       2.056   7.108  18.926  0.00  0.00    +0.000 C 
BRANCH  18  19
ATOM     19  C   UNL     1       2.021   8.289  17.956  0.00  0.00    +0.000 C 
BRANCH  19  20
ATOM     20  C   UNL     1       1.263   9.531  18.500  0.00  0.00    +0.000 C 
ATOM     21  C   UNL     1       2.072  10.766  18.058  0.00  0.00    +0.000 C 
ATOM     22  C   UNL     1       1.100   9.439  20.025  0.00  0.00    +0.000 C 
ATOM     23  C   UNL     1       0.372  10.655  20.565  0.00  0.00    +0.000 C 
ATOM     24  C   UNL     1      -0.813  10.979  19.701  0.00  0.00    +0.000 A 
ATOM     25  C   UNL     1      -1.770  11.886  20.176  0.00  0.00    +0.000 A 
ATOM     26  C   UNL     1      -2.873  12.195  19.389  0.00  0.00    +0.000 A 
ATOM     27  C   UNL     1      -3.055  11.602  18.146  0.00  0.00    +0.000 A 
ATOM     28  C   UNL     1      -2.102  10.699  17.651  0.00  0.00    +0.000 A 
ATOM     29  C   UNL     1      -2.317  10.052  16.312  0.00  0.00    +0.000 C 
ATOM     30  C   UNL     1      -0.963  10.414  18.423  0.00  0.00    +0.000 A 
ATOM     31  O   UNL     1      -0.032   9.566  17.867  0.00  0.00    +0.000 OA
BRANCH  26  32
ATOM     32  O   UNL     1      -3.817  13.085  19.815  0.00  0.00    +0.000 OA
ATOM     33  H   UNL     1      -4.696  12.721  19.620  0.00  0.00    +0.000 HD
ENDBRANCH  26  32
ENDBRANCH  19  20
ENDBRANCH  18  19
ENDBRANCH   3  18
TORSDOF 11
ENDMDL
