MODEL 1
REMARK VINA RESULT:      -8.1      0.000      0.000
REMARK  Name = 
REMARK  5 active torsions:
REMARK  status: ('A' for Active; 'I' for Inactive)
REMARK    1  A    between atoms: C_1  and  C_2
REMARK    2  A    between atoms: C_2  and  C_3
REMARK    3  A    between atoms: C_2  and  C_4
REMARK    4  A    between atoms: N_6  and  C_7
REMARK    5  A    between atoms: C_11  and  C_12
REMARK                            x       y       z     vdW  Elec       q    Type
REMARK                         _______ _______ _______ _____ _____    ______ ____
ROOT
ATOM      1  C   UNL     1       6.142   4.017  14.728  0.00  0.00    +0.000 A 
ATOM      2  C   UNL     1       7.164   4.978  14.749  0.00  0.00    +0.000 A 
ATOM      3  C   UNL     1       7.493   5.665  15.911  0.00  0.00    +0.000 A 
ATOM      4  C   UNL     1       6.798   5.414  17.088  0.00  0.00    +0.000 A 
ATOM      5  C   UNL     1       5.762   4.475  17.090  0.00  0.00    +0.000 A 
ATOM      6  C   UNL     1       5.427   3.778  15.911  0.00  0.00    +0.000 A 
ENDROOT
BRANCH   5   7
ATOM      7  C   UNL     1       5.061   4.175  18.368  0.00  0.00    +0.000 C 
ATOM      8  O   UNL     1       5.713   4.054  19.394  0.00  0.00    +0.000 OA
ATOM      9  N   UNL     1       3.695   3.998  18.240  0.00  0.00    +0.000 N 
ATOM     10  C   UNL     1       2.870   3.643  19.308  0.00  0.00    +0.000 A 
ATOM     11  C   UNL     1       2.940   4.287  20.536  0.00  0.00    +0.000 A 
ATOM     12  C   UNL     1       2.107   3.849  21.563  0.00  0.00    +0.000 A 
ATOM     13  C   UNL     1       1.266   2.768  21.339  0.00  0.00    +0.000 A 
ATOM     14  C   UNL     1       1.245   2.209  20.071  0.00  0.00    +0.000 A 
ATOM     15  N   UNL     1       1.993   2.656  19.037  0.00  0.00    +0.000 NA
ATOM     16  H   UNL     1       3.356   3.655  17.351  0.00  0.00    +0.000 HD
ENDBRANCH   5   7
BRANCH   1  19
ATOM     17  C   UNL     1       6.339   3.525  12.289  0.00  0.00    +0.000 C 
ATOM     18  O   UNL     1       7.281   4.278  12.048  0.00  0.00    +0.000 OA
ATOM     19  N   UNL     1       5.805   3.298  13.551  0.00  0.00    +0.000 N 
ATOM     20  H   UNL     1       5.213   2.483  13.668  0.00  0.00    +0.000 HD
BRANCH  17  22
ATOM     21  C   UNL     1       5.962   1.235  11.305  0.00  0.00    +0.000 C 
ATOM     22  C   UNL     1       5.672   2.727  11.165  0.00  0.00    +0.000 C 
ATOM     23  C   UNL     1       4.155   2.956  11.182  0.00  0.00    +0.000 C 
ENDBRANCH  17  22
ENDBRANCH   1  19
TORSDOF 3
ENDMDL
MODEL 2
REMARK VINA RESULT:      -8.1      1.014      1.063
REMARK  Name = 
REMARK  5 active torsions:
REMARK  status: ('A' for Active; 'I' for Inactive)
REMARK    1  A    between atoms: C_1  and  C_2
REMARK    2  A    between atoms: C_2  and  C_3
REMARK    3  A    between atoms: C_2  and  C_4
REMARK    4  A    between atoms: N_6  and  C_7
REMARK    5  A    between atoms: C_11  and  C_12
REMARK                            x       y       z     vdW  Elec       q    Type
REMARK                         _______ _______ _______ _____ _____    ______ ____
ROOT
ATOM      1  C   UNL     1       6.008   4.144  14.726  0.00  0.00    +0.000 A 
ATOM      2  C   UNL     1       7.201   4.853  14.927  0.00  0.00    +0.000 A 
ATOM      3  C   UNL     1       7.429   5.578  16.091  0.00  0.00    +0.000 A 
ATOM      4  C   UNL     1       6.460   5.620  17.086  0.00  0.00    +0.000 A 
ATOM      5  C   UNL     1       5.253   4.937  16.902  0.00  0.00    +0.000 A 
ATOM      6  C   UNL     1       5.021   4.203  15.722  0.00  0.00    +0.000 A 
ENDROOT
BRANCH   5   7
ATOM      7  C   UNL     1       4.245   4.945  17.997  0.00  0.00    +0.000 C 
ATOM      8  O   UNL     1       3.852   6.013  18.441  0.00  0.00    +0.000 OA
ATOM      9  N   UNL     1       3.892   3.688  18.454  0.00  0.00    +0.000 N 
ATOM     10  C   UNL     1       3.015   3.484  19.519  0.00  0.00    +0.000 A 
ATOM     11  C   UNL     1       1.800   4.150  19.609  0.00  0.00    +0.000 A 
ATOM     12  C   UNL     1       0.997   3.918  20.723  0.00  0.00    +0.000 A 
ATOM     13  C   UNL     1       1.450   3.064  21.719  0.00  0.00    +0.000 A 
ATOM     14  C   UNL     1       2.662   2.423  21.527  0.00  0.00    +0.000 A 
ATOM     15  N   UNL     1       3.431   2.577  20.426  0.00  0.00    +0.000 NA
ATOM     16  H   UNL     1       4.585   2.955  18.370  0.00  0.00    +0.000 HD
ENDBRANCH   5   7
BRANCH   1  19
ATOM     17  C   UNL     1       6.360   3.614  12.313  0.00  0.00    +0.000 C 
ATOM     18  O   UNL     1       7.281   4.403  12.107  0.00  0.00    +0.000 OA
ATOM     19  N   UNL     1       5.768   3.388  13.549  0.00  0.00    +0.000 N 
ATOM     20  H   UNL     1       5.205   2.551  13.650  0.00  0.00    +0.000 HD
BRANCH  17  22
ATOM     21  C   UNL     1       6.187   1.301  11.327  0.00  0.00    +0.000 C 
ATOM     22  C   UNL     1       5.791   2.767  11.171  0.00  0.00    +0.000 C 
ATOM     23  C   UNL     1       4.262   2.881  11.139  0.00  0.00    +0.000 C 
ENDBRANCH  17  22
ENDBRANCH   1  19
TORSDOF 3
ENDMDL
MODEL 3
REMARK VINA RESULT:      -7.7      3.015      3.446
REMARK  Name = 
REMARK  5 active torsions:
REMARK  status: ('A' for Active; 'I' for Inactive)
REMARK    1  A    between atoms: C_1  and  C_2
REMARK    2  A    between atoms: C_2  and  C_3
REMARK    3  A    between atoms: C_2  and  C_4
REMARK    4  A    between atoms: N_6  and  C_7
REMARK    5  A    between atoms: C_11  and  C_12
REMARK                            x       y       z     vdW  Elec       q    Type
REMARK                         _______ _______ _______ _____ _____    ______ ____
ROOT
ATOM      1  C   UNL     1       5.871   4.091  15.238  0.00  0.00    +0.000 A 
ATOM      2  C   UNL     1       7.117   4.123  15.882  0.00  0.00    +0.000 A 
ATOM      3  C   UNL     1       7.279   4.726  17.124  0.00  0.00    +0.000 A 
ATOM      4  C   UNL     1       6.194   5.323  17.754  0.00  0.00    +0.000 A 
ATOM      5  C   UNL     1       4.944   5.321  17.125  0.00  0.00    +0.000 A 
ATOM      6  C   UNL     1       4.781   4.712  15.865  0.00  0.00    +0.000 A 
ENDROOT
BRANCH   5   7
ATOM      7  C   UNL     1       3.779   5.916  17.833  0.00  0.00    +0.000 C 
ATOM      8  O   UNL     1       2.946   5.179  18.339  0.00  0.00    +0.000 OA
ATOM      9  N   UNL     1       3.729   7.298  17.786  0.00  0.00    +0.000 N 
ATOM     10  C   UNL     1       2.680   8.041  18.329  0.00  0.00    +0.000 A 
ATOM     11  C   UNL     1       2.195   7.801  19.608  0.00  0.00    +0.000 A 
ATOM     12  C   UNL     1       1.122   8.562  20.064  0.00  0.00    +0.000 A 
ATOM     13  C   UNL     1       0.551   9.504  19.218  0.00  0.00    +0.000 A 
ATOM     14  C   UNL     1       1.123   9.693  17.971  0.00  0.00    +0.000 A 
ATOM     15  N   UNL     1       2.207   9.016  17.528  0.00  0.00    +0.000 NA
ATOM     16  H   UNL     1       4.156   7.748  16.987  0.00  0.00    +0.000 HD
ENDBRANCH   5   7
BRANCH   1  19
ATOM     17  C   UNL     1       6.345   3.820  12.803  0.00  0.00    +0.000 C 
ATOM     18  O   UNL     1       7.277   4.619  12.729  0.00  0.00    +0.000 OA
ATOM     19  N   UNL     1       5.690   3.467  13.976  0.00  0.00    +0.000 N 
ATOM     20  H   UNL     1       5.121   2.628  13.959  0.00  0.00    +0.000 HD
BRANCH  17  22
ATOM     21  C   UNL     1       6.246   1.633  11.551  0.00  0.00    +0.000 C 
ATOM     22  C   UNL     1       5.833   3.103  11.550  0.00  0.00    +0.000 C 
ATOM     23  C   UNL     1       4.304   3.203  11.471  0.00  0.00    +0.000 C 
ENDBRANCH  17  22
ENDBRANCH   1  19
TORSDOF 3
ENDMDL
MODEL 4
REMARK VINA RESULT:      -7.7      1.495      1.714
REMARK  Name = 
REMARK  5 active torsions:
REMARK  status: ('A' for Active; 'I' for Inactive)
REMARK    1  A    between atoms: C_1  and  C_2
REMARK    2  A    between atoms: C_2  and  C_3
REMARK    3  A    between atoms: C_2  and  C_4
REMARK    4  A    between atoms: N_6  and  C_7
REMARK    5  A    between atoms: C_11  and  C_12
REMARK                            x       y       z     vdW  Elec       q    Type
REMARK                         _______ _______ _______ _____ _____    ______ ____
ROOT
ATOM      1  C   UNL     1       5.981   3.938  14.152  0.00  0.00    +0.000 A 
ATOM      2  C   UNL     1       6.198   5.322  14.229  0.00  0.00    +0.000 A 
ATOM      3  C   UNL     1       5.772   6.065  15.323  0.00  0.00    +0.000 A 
ATOM      4  C   UNL     1       5.106   5.441  16.371  0.00  0.00    +0.000 A 
ATOM      5  C   UNL     1       4.861   4.066  16.311  0.00  0.00    +0.000 A 
ATOM      6  C   UNL     1       5.291   3.312  15.201  0.00  0.00    +0.000 A 
ENDROOT
BRANCH   5   7
ATOM      7  C   UNL     1       4.195   3.399  17.463  0.00  0.00    +0.000 C 
ATOM      8  O   UNL     1       4.130   2.179  17.493  0.00  0.00    +0.000 OA
ATOM      9  N   UNL     1       3.644   4.271  18.384  0.00  0.00    +0.000 N 
ATOM     10  C   UNL     1       2.919   3.845  19.497  0.00  0.00    +0.000 A 
ATOM     11  C   UNL     1       3.378   2.834  20.330  0.00  0.00    +0.000 A 
ATOM     12  C   UNL     1       2.578   2.441  21.400  0.00  0.00    +0.000 A 
ATOM     13  C   UNL     1       1.339   3.043  21.577  0.00  0.00    +0.000 A 
ATOM     14  C   UNL     1       0.980   4.062  20.711  0.00  0.00    +0.000 A 
ATOM     15  N   UNL     1       1.765   4.510  19.705  0.00  0.00    +0.000 NA
ATOM     16  H   UNL     1       3.342   5.174  18.041  0.00  0.00    +0.000 HD
ENDBRANCH   5   7
BRANCH   1  19
ATOM     17  C   UNL     1       5.642   2.796  11.959  0.00  0.00    +0.000 C 
ATOM     18  O   UNL     1       4.507   3.213  11.733  0.00  0.00    +0.000 OA
ATOM     19  N   UNL     1       6.423   3.164  13.046  0.00  0.00    +0.000 N 
ATOM     20  H   UNL     1       7.416   2.963  12.997  0.00  0.00    +0.000 HD
BRANCH  17  22
ATOM     21  C   UNL     1       7.830   2.009  10.985  0.00  0.00    +0.000 C 
ATOM     22  C   UNL     1       6.316   1.814  10.995  0.00  0.00    +0.000 C 
ATOM     23  C   UNL     1       5.990   0.371  11.399  0.00  0.00    +0.000 C 
ENDBRANCH  17  22
ENDBRANCH   1  19
TORSDOF 3
ENDMDL
MODEL 5
REMARK VINA RESULT:      -7.6      4.832      7.024
REMARK  Name = 
REMARK  5 active torsions:
REMARK  status: ('A' for Active; 'I' for Inactive)
REMARK    1  A    between atoms: C_1  and  C_2
REMARK    2  A    between atoms: C_2  and  C_3
REMARK    3  A    between atoms: C_2  and  C_4
REMARK    4  A    between atoms: N_6  and  C_7
REMARK    5  A    between atoms: C_11  and  C_12
REMARK                            x       y       z     vdW  Elec       q    Type
REMARK                         _______ _______ _______ _____ _____    ______ ____
ROOT
ATOM      1  C   UNL     1       3.872   5.436  19.109  0.00  0.00    +0.000 A 
ATOM      2  C   UNL     1       3.295   4.263  19.617  0.00  0.00    +0.000 A 
ATOM      3  C   UNL     1       2.148   4.296  20.400  0.00  0.00    +0.000 A 
ATOM      4  C   UNL     1       1.549   5.512  20.706  0.00  0.00    +0.000 A 
ATOM      5  C   UNL     1       2.115   6.699  20.228  0.00  0.00    +0.000 A 
ATOM      6  C   UNL     1       3.279   6.665  19.434  0.00  0.00    +0.000 A 
ENDROOT
BRANCH   5   7
ATOM      7  C   UNL     1       1.436   7.991  20.516  0.00  0.00    +0.000 C 
ATOM      8  O   UNL     1       0.983   8.193  21.633  0.00  0.00    +0.000 OA
ATOM      9  N   UNL     1       1.332   8.835  19.425  0.00  0.00    +0.000 N 
ATOM     10  C   UNL     1       0.669  10.061  19.472  0.00  0.00    +0.000 A 
ATOM     11  C   UNL     1       0.886  10.975  20.495  0.00  0.00    +0.000 A 
ATOM     12  C   UNL     1       0.158  12.163  20.489  0.00  0.00    +0.000 A 
ATOM     13  C   UNL     1      -0.782  12.377  19.489  0.00  0.00    +0.000 A 
ATOM     14  C   UNL     1      -0.906  11.420  18.496  0.00  0.00    +0.000 A 
ATOM     15  N   UNL     1      -0.166  10.291  18.438  0.00  0.00    +0.000 NA
ATOM     16  H   UNL     1       1.295   8.404  18.511  0.00  0.00    +0.000 HD
ENDBRANCH   5   7
BRANCH   1  19
ATOM     17  C   UNL     1       6.343   5.388  18.764  0.00  0.00    +0.000 C 
ATOM     18  O   UNL     1       6.668   5.229  19.940  0.00  0.00    +0.000 OA
ATOM     19  N   UNL     1       5.036   5.415  18.296  0.00  0.00    +0.000 N 
ATOM     20  H   UNL     1       4.895   5.297  17.299  0.00  0.00    +0.000 HD
BRANCH  17  22
ATOM     21  C   UNL     1       7.080   4.696  16.454  0.00  0.00    +0.000 C 
ATOM     22  C   UNL     1       7.411   5.549  17.677  0.00  0.00    +0.000 C 
ATOM     23  C   UNL     1       7.521   7.020  17.259  0.00  0.00    +0.000 C 
ENDBRANCH  17  22
ENDBRANCH   1  19
TORSDOF 3
ENDMDL
MODEL 6
REMARK VINA RESULT:      -7.5      4.566      6.595
REMARK  Name = 
REMARK  5 active torsions:
REMARK  status: ('A' for Active; 'I' for Inactive)
REMARK    1  A    between atoms: C_1  and  C_2
REMARK    2  A    between atoms: C_2  and  C_3
REMARK    3  A    between atoms: C_2  and  C_4
REMARK    4  A    between atoms: N_6  and  C_7
REMARK    5  A    between atoms: C_11  and  C_12
REMARK                            x       y       z     vdW  Elec       q    Type
REMARK                         _______ _______ _______ _____ _____    ______ ____
ROOT
ATOM      1  C   UNL     1       3.516   4.836  18.904  0.00  0.00    +0.000 A 
ATOM      2  C   UNL     1       2.970   3.829  19.715  0.00  0.00    +0.000 A 
ATOM      3  C   UNL     1       1.994   4.109  20.663  0.00  0.00    +0.000 A 
ATOM      4  C   UNL     1       1.542   5.412  20.833  0.00  0.00    +0.000 A 
ATOM      5  C   UNL     1       2.083   6.438  20.050  0.00  0.00    +0.000 A 
ATOM      6  C   UNL     1       3.075   6.154  19.089  0.00  0.00    +0.000 A 
ENDROOT
BRANCH   5   7
ATOM      7  C   UNL     1       1.554   7.820  20.203  0.00  0.00    +0.000 C 
ATOM      8  O   UNL     1       2.070   8.731  19.574  0.00  0.00    +0.000 OA
ATOM      9  N   UNL     1       0.530   7.938  21.126  0.00  0.00    +0.000 N 
ATOM     10  C   UNL     1      -0.053   9.160  21.463  0.00  0.00    +0.000 A 
ATOM     11  C   UNL     1      -0.459  10.072  20.498  0.00  0.00    +0.000 A 
ATOM     12  C   UNL     1      -1.000  11.285  20.917  0.00  0.00    +0.000 A 
ATOM     13  C   UNL     1      -1.081  11.558  22.276  0.00  0.00    +0.000 A 
ATOM     14  C   UNL     1      -0.677  10.574  23.164  0.00  0.00    +0.000 A 
ATOM     15  N   UNL     1      -0.211   9.362  22.787  0.00  0.00    +0.000 NA
ATOM     16  H   UNL     1       0.518   7.274  21.889  0.00  0.00    +0.000 HD
ENDBRANCH   5   7
BRANCH   1  19
ATOM     17  C   UNL     1       5.877   4.623  18.123  0.00  0.00    +0.000 C 
ATOM     18  O   UNL     1       6.423   4.779  19.214  0.00  0.00    +0.000 OA
ATOM     19  N   UNL     1       4.504   4.561  17.922  0.00  0.00    +0.000 N 
ATOM     20  H   UNL     1       4.178   4.182  17.040  0.00  0.00    +0.000 HD
BRANCH  17  22
ATOM     21  C   UNL     1       5.888   3.822  15.733  0.00  0.00    +0.000 C 
ATOM     22  C   UNL     1       6.713   4.453  16.851  0.00  0.00    +0.000 C 
ATOM     23  C   UNL     1       7.249   5.812  16.385  0.00  0.00    +0.000 C 
ENDBRANCH  17  22
ENDBRANCH   1  19
TORSDOF 3
ENDMDL
MODEL 7
REMARK VINA RESULT:      -7.5      6.606      8.919
REMARK  Name = 
REMARK  5 active torsions:
REMARK  status: ('A' for Active; 'I' for Inactive)
REMARK    1  A    between atoms: C_1  and  C_2
REMARK    2  A    between atoms: C_2  and  C_3
REMARK    3  A    between atoms: C_2  and  C_4
REMARK    4  A    between atoms: N_6  and  C_7
REMARK    5  A    between atoms: C_11  and  C_12
REMARK                            x       y       z     vdW  Elec       q    Type
REMARK                         _______ _______ _______ _____ _____    ______ ____
ROOT
ATOM      1  C   UNL     1       2.409   7.034  19.533  0.00  0.00    +0.000 A 
ATOM      2  C   UNL     1       2.895   7.352  18.256  0.00  0.00    +0.000 A 
ATOM      3  C   UNL     1       2.541   8.534  17.616  0.00  0.00    +0.000 A 
ATOM      4  C   UNL     1       1.680   9.430  18.238  0.00  0.00    +0.000 A 
ATOM      5  C   UNL     1       1.166   9.129  19.503  0.00  0.00    +0.000 A 
ATOM      6  C   UNL     1       1.524   7.929  20.152  0.00  0.00    +0.000 A 
ENDROOT
BRANCH   5   7
ATOM      7  C   UNL     1       0.288  10.120  20.182  0.00  0.00    +0.000 C 
ATOM      8  O   UNL     1      -0.912  10.111  19.953  0.00  0.00    +0.000 OA
ATOM      9  N   UNL     1       0.962  11.022  20.985  0.00  0.00    +0.000 N 
ATOM     10  C   UNL     1       0.328  12.071  21.651  0.00  0.00    +0.000 A 
ATOM     11  C   UNL     1      -0.834  11.878  22.386  0.00  0.00    +0.000 A 
ATOM     12  C   UNL     1      -1.427  12.983  22.993  0.00  0.00    +0.000 A 
ATOM     13  C   UNL     1      -0.862  14.239  22.813  0.00  0.00    +0.000 A 
ATOM     14  C   UNL     1       0.314  14.327  22.087  0.00  0.00    +0.000 A 
ATOM     15  N   UNL     1       0.948  13.263  21.544  0.00  0.00    +0.000 NA
ATOM     16  H   UNL     1       1.918  11.238  20.733  0.00  0.00    +0.000 HD
ENDBRANCH   5   7
BRANCH   1  19
ATOM     17  C   UNL     1       2.202   4.589  19.988  0.00  0.00    +0.000 C 
ATOM     18  O   UNL     1       1.409   4.323  19.086  0.00  0.00    +0.000 OA
ATOM     19  N   UNL     1       2.773   5.837  20.203  0.00  0.00    +0.000 N 
ATOM     20  H   UNL     1       3.590   5.879  20.803  0.00  0.00    +0.000 HD
BRANCH  17  22
ATOM     21  C   UNL     1       1.465   2.717  21.508  0.00  0.00    +0.000 C 
ATOM     22  C   UNL     1       2.658   3.504  20.969  0.00  0.00    +0.000 C 
ATOM     23  C   UNL     1       3.634   2.543  20.279  0.00  0.00    +0.000 C 
ENDBRANCH  17  22
ENDBRANCH   1  19
TORSDOF 3
ENDMDL
MODEL 8
REMARK VINA RESULT:      -7.4      4.132      4.916
REMARK  Name = 
REMARK  5 active torsions:
REMARK  status: ('A' for Active; 'I' for Inactive)
REMARK    1  A    between atoms: C_1  and  C_2
REMARK    2  A    between atoms: C_2  and  C_3
REMARK    3  A    between atoms: C_2  and  C_4
REMARK    4  A    between atoms: N_6  and  C_7
REMARK    5  A    between atoms: C_11  and  C_12
REMARK                            x       y       z     vdW  Elec       q    Type
REMARK                         _______ _______ _______ _____ _____    ______ ____
ROOT
ATOM      1  C   UNL     1       5.101   4.673  16.807  0.00  0.00    +0.000 A 
ATOM      2  C   UNL     1       5.285   4.015  18.031  0.00  0.00    +0.000 A 
ATOM      3  C   UNL     1       4.750   4.514  19.213  0.00  0.00    +0.000 A 
ATOM      4  C   UNL     1       4.021   5.696  19.202  0.00  0.00    +0.000 A 
ATOM      5  C   UNL     1       3.838   6.383  17.997  0.00  0.00    +0.000 A 
ATOM      6  C   UNL     1       4.382   5.878  16.798  0.00  0.00    +0.000 A 
ENDROOT
BRANCH   5   7
ATOM      7  C   UNL     1       3.010   7.619  17.988  0.00  0.00    +0.000 C 
ATOM      8  O   UNL     1       3.193   8.455  17.115  0.00  0.00    +0.000 OA
ATOM      9  N   UNL     1       2.128   7.721  19.048  0.00  0.00    +0.000 N 
ATOM     10  C   UNL     1       1.314   8.835  19.257  0.00  0.00    +0.000 A 
ATOM     11  C   UNL     1       0.565   9.399  18.233  0.00  0.00    +0.000 A 
ATOM     12  C   UNL     1      -0.195  10.532  18.514  0.00  0.00    +0.000 A 
ATOM     13  C   UNL     1      -0.150  11.079  19.790  0.00  0.00    +0.000 A 
ATOM     14  C   UNL     1       0.603  10.428  20.752  0.00  0.00    +0.000 A 
ATOM     15  N   UNL     1       1.297   9.290  20.526  0.00  0.00    +0.000 NA
ATOM     16  H   UNL     1       2.387   7.257  19.909  0.00  0.00    +0.000 HD
ENDBRANCH   5   7
BRANCH   1  19
ATOM     17  C   UNL     1       6.693   4.718  14.885  0.00  0.00    +0.000 C 
ATOM     18  O   UNL     1       7.413   5.628  15.292  0.00  0.00    +0.000 OA
ATOM     19  N   UNL     1       5.630   4.168  15.590  0.00  0.00    +0.000 N 
ATOM     20  H   UNL     1       5.275   3.272  15.275  0.00  0.00    +0.000 HD
BRANCH  17  22
ATOM     21  C   UNL     1       5.635   3.634  12.869  0.00  0.00    +0.000 C 
ATOM     22  C   UNL     1       6.945   4.079  13.515  0.00  0.00    +0.000 C 
ATOM     23  C   UNL     1       7.658   5.074  12.591  0.00  0.00    +0.000 C 
ENDBRANCH  17  22
ENDBRANCH   1  19
TORSDOF 3
ENDMDL
MODEL 9
REMARK VINA RESULT:      -7.4      5.523      6.842
REMARK  Name = 
REMARK  5 active torsions:
REMARK  status: ('A' for Active; 'I' for Inactive)
REMARK    1  A    between atoms: C_1  and  C_2
REMARK    2  A    between atoms: C_2  and  C_3
REMARK    3  A    between atoms: C_2  and  C_4
REMARK    4  A    between atoms: N_6  and  C_7
REMARK    5  A    between atoms: C_11  and  C_12
REMARK                            x       y       z     vdW  Elec       q    Type
REMARK                         _______ _______ _______ _____ _____    ______ ____
ROOT
ATOM      1  C   UNL     1       3.864   6.038  18.080  0.00  0.00    +0.000 A 
ATOM      2  C   UNL     1       3.555   5.359  19.268  0.00  0.00    +0.000 A 
ATOM      3  C   UNL     1       2.655   5.879  20.190  0.00  0.00    +0.000 A 
ATOM      4  C   UNL     1       2.044   7.104  19.950  0.00  0.00    +0.000 A 
ATOM      5  C   UNL     1       2.349   7.811  18.783  0.00  0.00    +0.000 A 
ATOM      6  C   UNL     1       3.263   7.284  17.848  0.00  0.00    +0.000 A 
ENDROOT
BRANCH   5   7
ATOM      7  C   UNL     1       1.649   9.095  18.511  0.00  0.00    +0.000 C 
ATOM      8  O   UNL     1       1.880   9.695  17.472  0.00  0.00    +0.000 OA
ATOM      9  N   UNL     1       0.822   9.520  19.536  0.00  0.00    +0.000 N 
ATOM     10  C   UNL     1       0.132  10.732  19.504  0.00  0.00    +0.000 A 
ATOM     11  C   UNL     1      -0.596  11.134  18.391  0.00  0.00    +0.000 A 
ATOM     12  C   UNL     1      -1.228  12.375  18.425  0.00  0.00    +0.000 A 
ATOM     13  C   UNL     1      -1.080  13.181  19.546  0.00  0.00    +0.000 A 
ATOM     14  C   UNL     1      -0.359  12.681  20.618  0.00  0.00    +0.000 A 
ATOM     15  N   UNL     1       0.208  11.454  20.640  0.00  0.00    +0.000 NA
ATOM     16  H   UNL     1       1.066   9.232  20.474  0.00  0.00    +0.000 HD
ENDBRANCH   5   7
BRANCH   1  19
ATOM     17  C   UNL     1       4.715   4.235  16.579  0.00  0.00    +0.000 C 
ATOM     18  O   UNL     1       3.789   3.441  16.738  0.00  0.00    +0.000 OA
ATOM     19  N   UNL     1       4.772   5.511  17.123  0.00  0.00    +0.000 N 
ATOM     20  H   UNL     1       5.444   6.159  16.727  0.00  0.00    +0.000 HD
BRANCH  17  22
ATOM     21  C   UNL     1       5.689   4.280  14.254  0.00  0.00    +0.000 C 
ATOM     22  C   UNL     1       5.917   3.863  15.705  0.00  0.00    +0.000 C 
ATOM     23  C   UNL     1       7.186   4.541  16.236  0.00  0.00    +0.000 C 
ENDBRANCH  17  22
ENDBRANCH   1  19
TORSDOF 3
ENDMDL
