MODEL 1
REMARK VINA RESULT:      -8.9      0.000      0.000
REMARK  Name = 
REMARK  4 active torsions:
REMARK  status: ('A' for Active; 'I' for Inactive)
REMARK    1  A    between atoms: C_4  and  C_5
REMARK    2  A    between atoms: C_5  and  N_6
REMARK    3  A    between atoms: N_6  and  C_7
REMARK    4  A    between atoms: C_13  and  C_14
REMARK                            x       y       z     vdW  Elec       q    Type
REMARK                         _______ _______ _______ _____ _____    ______ ____
ROOT
ATOM      1  C   UNL     1       0.114  10.364  20.210  0.00  0.00    +0.000 A 
ATOM      2  N   UNL     1      -0.214  10.192  21.502  0.00  0.00    +0.000 NA
ATOM      3  C   UNL     1       0.320   9.135  22.120  0.00  0.00    +0.000 A 
ATOM      4  N   UNL     1       1.120   8.217  21.569  0.00  0.00    +0.000 NA
ATOM      5  C   UNL     1       1.430   8.392  20.280  0.00  0.00    +0.000 A 
ATOM      6  C   UNL     1       2.227   7.438  19.653  0.00  0.00    +0.000 A 
ATOM      7  C   UNL     1       2.629   7.526  18.305  0.00  0.00    +0.000 A 
ATOM      8  C   UNL     1       2.184   8.643  17.585  0.00  0.00    +0.000 A 
ATOM      9  C   UNL     1       1.364   9.604  18.183  0.00  0.00    +0.000 A 
ATOM     10  C   UNL     1       0.977   9.482  19.535  0.00  0.00    +0.000 A 
ENDROOT
BRANCH   7  11
ATOM     11  C   UNL     1       3.482   6.481  17.684  0.00  0.00    +0.000 A 
ATOM     12  C   UNL     1       3.150   5.103  17.791  0.00  0.00    +0.000 A 
ATOM     13  C   UNL     1       3.940   4.099  17.216  0.00  0.00    +0.000 A 
ATOM     14  C   UNL     1       5.075   4.485  16.546  0.00  0.00    +0.000 A 
ATOM     15  C   UNL     1       5.421   5.807  16.428  0.00  0.00    +0.000 A 
ATOM     16  C   UNL     1       4.649   6.818  16.971  0.00  0.00    +0.000 A 
ATOM     17  O   UNL     1       6.579   5.979  15.735  0.00  0.00    +0.000 OA
ATOM     18  C   UNL     1       6.934   4.608  15.456  0.00  0.00    +0.000 C 
ATOM     19  O   UNL     1       5.967   3.656  15.944  0.00  0.00    +0.000 OA
ENDBRANCH   7  11
BRANCH   1  20
ATOM     20  N   UNL     1      -0.396  11.490  19.528  0.00  0.00    +0.000 N 
ATOM     21  H   UNL     1       0.041  12.318  19.922  0.00  0.00    +0.000 HD
BRANCH  20  22
ATOM     22  C   UNL     1      -1.852  11.596  19.552  0.00  0.00    +0.000 C 
BRANCH  22  26
ATOM     23  C   UNL     1      -2.844  10.201  16.163  0.00  0.00    +0.000 A 
ATOM     24  C   UNL     1      -4.063  10.798  16.396  0.00  0.00    +0.000 A 
ATOM     25  S   UNL     1      -4.104  11.612  17.897  0.00  0.00    +0.000 S 
ATOM     26  C   UNL     1      -2.486  11.166  18.254  0.00  0.00    +0.000 A 
ATOM     27  C   UNL     1      -1.934  10.412  17.238  0.00  0.00    +0.000 A 
ENDBRANCH  22  26
ENDBRANCH  20  22
ENDBRANCH   1  20
TORSDOF 4
ENDMDL
MODEL 2
REMARK VINA RESULT:      -8.3      5.105      8.582
REMARK  Name = 
REMARK  4 active torsions:
REMARK  status: ('A' for Active; 'I' for Inactive)
REMARK    1  A    between atoms: C_4  and  C_5
REMARK    2  A    between atoms: C_5  and  N_6
REMARK    3  A    between atoms: N_6  and  C_7
REMARK    4  A    between atoms: C_13  and  C_14
REMARK                            x       y       z     vdW  Elec       q    Type
REMARK                         _______ _______ _______ _____ _____    ______ ____
ROOT
ATOM      1  C   UNL     1       4.010   4.391  18.210  0.00  0.00    +0.000 A 
ATOM      2  N   UNL     1       4.036   3.259  18.933  0.00  0.00    +0.000 NA
ATOM      3  C   UNL     1       3.328   3.257  20.068  0.00  0.00    +0.000 A 
ATOM      4  N   UNL     1       2.627   4.280  20.564  0.00  0.00    +0.000 NA
ATOM      5  C   UNL     1       2.618   5.405  19.841  0.00  0.00    +0.000 A 
ATOM      6  C   UNL     1       1.934   6.510  20.339  0.00  0.00    +0.000 A 
ATOM      7  C   UNL     1       1.844   7.741  19.658  0.00  0.00    +0.000 A 
ATOM      8  C   UNL     1       2.489   7.824  18.417  0.00  0.00    +0.000 A 
ATOM      9  C   UNL     1       3.202   6.737  17.903  0.00  0.00    +0.000 A 
ATOM     10  C   UNL     1       3.276   5.520  18.615  0.00  0.00    +0.000 A 
ENDROOT
BRANCH   7  11
ATOM     11  C   UNL     1       1.100   8.889  20.234  0.00  0.00    +0.000 A 
ATOM     12  C   UNL     1       1.045  10.139  19.561  0.00  0.00    +0.000 A 
ATOM     13  C   UNL     1       0.350  11.238  20.085  0.00  0.00    +0.000 A 
ATOM     14  C   UNL     1      -0.274  11.079  21.298  0.00  0.00    +0.000 A 
ATOM     15  C   UNL     1      -0.236   9.885  21.970  0.00  0.00    +0.000 A 
ATOM     16  C   UNL     1       0.426   8.781  21.467  0.00  0.00    +0.000 A 
ATOM     17  O   UNL     1      -0.909   9.935  23.152  0.00  0.00    +0.000 OA
ATOM     18  C   UNL     1      -1.350  11.309  23.155  0.00  0.00    +0.000 C 
ATOM     19  O   UNL     1      -0.974  12.033  21.965  0.00  0.00    +0.000 OA
ENDBRANCH   7  11
BRANCH   1  20
ATOM     20  N   UNL     1       4.710   4.425  16.984  0.00  0.00    +0.000 N 
ATOM     21  H   UNL     1       4.315   3.712  16.378  0.00  0.00    +0.000 HD
BRANCH  20  22
ATOM     22  C   UNL     1       6.156   4.266  17.117  0.00  0.00    +0.000 C 
BRANCH  22  26
ATOM     23  C   UNL     1       7.626   7.746  17.497  0.00  0.00    +0.000 A 
ATOM     24  C   UNL     1       8.154   7.275  18.680  0.00  0.00    +0.000 A 
ATOM     25  S   UNL     1       7.745   5.641  18.960  0.00  0.00    +0.000 S 
ATOM     26  C   UNL     1       6.847   5.549  17.501  0.00  0.00    +0.000 A 
ATOM     27  C   UNL     1       6.869   6.748  16.818  0.00  0.00    +0.000 A 
ENDBRANCH  22  26
ENDBRANCH  20  22
ENDBRANCH   1  20
TORSDOF 4
ENDMDL
MODEL 3
REMARK VINA RESULT:      -8.3      5.022      8.437
REMARK  Name = 
REMARK  4 active torsions:
REMARK  status: ('A' for Active; 'I' for Inactive)
REMARK    1  A    between atoms: C_4  and  C_5
REMARK    2  A    between atoms: C_5  and  N_6
REMARK    3  A    between atoms: N_6  and  C_7
REMARK    4  A    between atoms: C_13  and  C_14
REMARK                            x       y       z     vdW  Elec       q    Type
REMARK                         _______ _______ _______ _____ _____    ______ ____
ROOT
ATOM      1  C   UNL     1       3.807   4.158  17.723  0.00  0.00    +0.000 A 
ATOM      2  N   UNL     1       3.798   2.947  18.304  0.00  0.00    +0.000 NA
ATOM      3  C   UNL     1       3.166   2.852  19.478  0.00  0.00    +0.000 A 
ATOM      4  N   UNL     1       2.573   3.849  20.141  0.00  0.00    +0.000 NA
ATOM      5  C   UNL     1       2.599   5.052  19.558  0.00  0.00    +0.000 A 
ATOM      6  C   UNL     1       2.030   6.129  20.231  0.00  0.00    +0.000 A 
ATOM      7  C   UNL     1       1.986   7.437  19.708  0.00  0.00    +0.000 A 
ATOM      8  C   UNL     1       2.555   7.630  18.442  0.00  0.00    +0.000 A 
ATOM      9  C   UNL     1       3.154   6.571  17.754  0.00  0.00    +0.000 A 
ATOM     10  C   UNL     1       3.184   5.274  18.310  0.00  0.00    +0.000 A 
ENDROOT
BRANCH   7  11
ATOM     11  C   UNL     1       1.365   8.552  20.468  0.00  0.00    +0.000 A 
ATOM     12  C   UNL     1       1.077   8.424  21.854  0.00  0.00    +0.000 A 
ATOM     13  C   UNL     1       0.490   9.461  22.591  0.00  0.00    +0.000 A 
ATOM     14  C   UNL     1       0.178  10.622  21.925  0.00  0.00    +0.000 A 
ATOM     15  C   UNL     1       0.444  10.772  20.588  0.00  0.00    +0.000 A 
ATOM     16  C   UNL     1       1.039   9.771  19.842  0.00  0.00    +0.000 A 
ATOM     17  O   UNL     1       0.056  11.988  20.117  0.00  0.00    +0.000 OA
ATOM     18  C   UNL     1      -0.510  12.572  21.309  0.00  0.00    +0.000 C 
ATOM     19  O   UNL     1      -0.408  11.720  22.469  0.00  0.00    +0.000 OA
ENDBRANCH   7  11
BRANCH   1  20
ATOM     20  N   UNL     1       4.429   4.297  16.463  0.00  0.00    +0.000 N 
ATOM     21  H   UNL     1       3.986   3.646  15.822  0.00  0.00    +0.000 HD
BRANCH  20  22
ATOM     22  C   UNL     1       5.878   4.115  16.487  0.00  0.00    +0.000 C 
BRANCH  22  26
ATOM     23  C   UNL     1       7.430   7.415  17.541  0.00  0.00    +0.000 A 
ATOM     24  C   UNL     1       7.941   6.709  18.609  0.00  0.00    +0.000 A 
ATOM     25  S   UNL     1       7.490   5.063  18.564  0.00  0.00    +0.000 S 
ATOM     26  C   UNL     1       6.598   5.280  17.115  0.00  0.00    +0.000 A 
ATOM     27  C   UNL     1       6.653   6.589  16.680  0.00  0.00    +0.000 A 
ENDBRANCH  22  26
ENDBRANCH  20  22
ENDBRANCH   1  20
TORSDOF 4
ENDMDL
MODEL 4
REMARK VINA RESULT:      -8.1      1.006      1.490
REMARK  Name = 
REMARK  4 active torsions:
REMARK  status: ('A' for Active; 'I' for Inactive)
REMARK    1  A    between atoms: C_4  and  C_5
REMARK    2  A    between atoms: C_5  and  N_6
REMARK    3  A    between atoms: N_6  and  C_7
REMARK    4  A    between atoms: C_13  and  C_14
REMARK                            x       y       z     vdW  Elec       q    Type
REMARK                         _______ _______ _______ _____ _____    ______ ____
ROOT
ATOM      1  C   UNL     1       0.201  10.376  20.250  0.00  0.00    +0.000 A 
ATOM      2  N   UNL     1      -0.179  10.178  21.523  0.00  0.00    +0.000 NA
ATOM      3  C   UNL     1       0.289   9.079  22.124  0.00  0.00    +0.000 A 
ATOM      4  N   UNL     1       1.068   8.146  21.570  0.00  0.00    +0.000 NA
ATOM      5  C   UNL     1       1.430   8.348  20.299  0.00  0.00    +0.000 A 
ATOM      6  C   UNL     1       2.208   7.381  19.668  0.00  0.00    +0.000 A 
ATOM      7  C   UNL     1       2.660   7.493  18.339  0.00  0.00    +0.000 A 
ATOM      8  C   UNL     1       2.289   8.651  17.641  0.00  0.00    +0.000 A 
ATOM      9  C   UNL     1       1.490   9.627  18.242  0.00  0.00    +0.000 A 
ATOM     10  C   UNL     1       1.050   9.480  19.575  0.00  0.00    +0.000 A 
ENDROOT
BRANCH   7  11
ATOM     11  C   UNL     1       3.490   6.433  17.713  0.00  0.00    +0.000 A 
ATOM     12  C   UNL     1       3.259   5.059  17.994  0.00  0.00    +0.000 A 
ATOM     13  C   UNL     1       4.029   4.040  17.417  0.00  0.00    +0.000 A 
ATOM     14  C   UNL     1       5.045   4.410  16.569  0.00  0.00    +0.000 A 
ATOM     15  C   UNL     1       5.291   5.728  16.280  0.00  0.00    +0.000 A 
ATOM     16  C   UNL     1       4.534   6.751  16.822  0.00  0.00    +0.000 A 
ATOM     17  O   UNL     1       6.339   5.884  15.427  0.00  0.00    +0.000 OA
ATOM     18  C   UNL     1       6.740   4.510  15.236  0.00  0.00    +0.000 C 
ATOM     19  O   UNL     1       5.902   3.567  15.936  0.00  0.00    +0.000 OA
ENDBRANCH   7  11
BRANCH   1  20
ATOM     20  N   UNL     1      -0.236  11.544  19.588  0.00  0.00    +0.000 N 
ATOM     21  H   UNL     1      -0.500  12.224  20.296  0.00  0.00    +0.000 HD
BRANCH  20  22
ATOM     22  C   UNL     1      -1.320  11.322  18.635  0.00  0.00    +0.000 C 
BRANCH  22  26
ATOM     23  C   UNL     1      -4.277  12.938  20.383  0.00  0.00    +0.000 A 
ATOM     24  C   UNL     1      -5.036  12.387  19.373  0.00  0.00    +0.000 A 
ATOM     25  S   UNL     1      -4.085  11.498  18.268  0.00  0.00    +0.000 S 
ATOM     26  C   UNL     1      -2.642  11.848  19.129  0.00  0.00    +0.000 A 
ATOM     27  C   UNL     1      -2.895  12.628  20.240  0.00  0.00    +0.000 A 
ENDBRANCH  22  26
ENDBRANCH  20  22
ENDBRANCH   1  20
TORSDOF 4
ENDMDL
MODEL 5
REMARK VINA RESULT:      -8.1      2.067      2.476
REMARK  Name = 
REMARK  4 active torsions:
REMARK  status: ('A' for Active; 'I' for Inactive)
REMARK    1  A    between atoms: C_4  and  C_5
REMARK    2  A    between atoms: C_5  and  N_6
REMARK    3  A    between atoms: N_6  and  C_7
REMARK    4  A    between atoms: C_13  and  C_14
REMARK                            x       y       z     vdW  Elec       q    Type
REMARK                         _______ _______ _______ _____ _____    ______ ____
ROOT
ATOM      1  C   UNL     1       0.468  11.186  19.440  0.00  0.00    +0.000 A 
ATOM      2  N   UNL     1       0.003  11.595  20.632  0.00  0.00    +0.000 NA
ATOM      3  C   UNL     1       0.175  10.759  21.660  0.00  0.00    +0.000 A 
ATOM      4  N   UNL     1       0.734   9.546  21.609  0.00  0.00    +0.000 NA
ATOM      5  C   UNL     1       1.182   9.145  20.415  0.00  0.00    +0.000 A 
ATOM      6  C   UNL     1       1.734   7.872  20.305  0.00  0.00    +0.000 A 
ATOM      7  C   UNL     1       2.251   7.350  19.103  0.00  0.00    +0.000 A 
ATOM      8  C   UNL     1       2.190   8.181  17.976  0.00  0.00    +0.000 A 
ATOM      9  C   UNL     1       1.620   9.454  18.052  0.00  0.00    +0.000 A 
ATOM     10  C   UNL     1       1.107   9.944  19.272  0.00  0.00    +0.000 A 
ENDROOT
BRANCH   7  11
ATOM     11  C   UNL     1       2.832   5.984  19.041  0.00  0.00    +0.000 A 
ATOM     12  C   UNL     1       4.213   5.762  19.289  0.00  0.00    +0.000 A 
ATOM     13  C   UNL     1       4.784   4.484  19.235  0.00  0.00    +0.000 A 
ATOM     14  C   UNL     1       3.963   3.431  18.913  0.00  0.00    +0.000 A 
ATOM     15  C   UNL     1       2.626   3.616  18.668  0.00  0.00    +0.000 A 
ATOM     16  C   UNL     1       2.035   4.864  18.732  0.00  0.00    +0.000 A 
ATOM     17  O   UNL     1       1.991   2.452  18.362  0.00  0.00    +0.000 OA
ATOM     18  C   UNL     1       3.091   1.520  18.416  0.00  0.00    +0.000 C 
ATOM     19  O   UNL     1       4.341   2.131  18.796  0.00  0.00    +0.000 OA
ENDBRANCH   7  11
BRANCH   1  20
ATOM     20  N   UNL     1       0.344  12.054  18.333  0.00  0.00    +0.000 N 
ATOM     21  H   UNL     1       1.066  12.764  18.410  0.00  0.00    +0.000 HD
BRANCH  20  22
ATOM     22  C   UNL     1      -0.979  12.656  18.190  0.00  0.00    +0.000 C 
BRANCH  22  26
ATOM     23  C   UNL     1      -3.165   9.839  16.885  0.00  0.00    +0.000 A 
ATOM     24  C   UNL     1      -4.137  10.357  17.712  0.00  0.00    +0.000 A 
ATOM     25  S   UNL     1      -3.591  11.733  18.562  0.00  0.00    +0.000 S 
ATOM     26  C   UNL     1      -2.040  11.646  17.834  0.00  0.00    +0.000 A 
ATOM     27  C   UNL     1      -1.953  10.583  16.958  0.00  0.00    +0.000 A 
ENDBRANCH  22  26
ENDBRANCH  20  22
ENDBRANCH   1  20
TORSDOF 4
ENDMDL
MODEL 6
REMARK VINA RESULT:      -8.1      4.684      8.210
REMARK  Name = 
REMARK  4 active torsions:
REMARK  status: ('A' for Active; 'I' for Inactive)
REMARK    1  A    between atoms: C_4  and  C_5
REMARK    2  A    between atoms: C_5  and  N_6
REMARK    3  A    between atoms: N_6  and  C_7
REMARK    4  A    between atoms: C_13  and  C_14
REMARK                            x       y       z     vdW  Elec       q    Type
REMARK                         _______ _______ _______ _____ _____    ______ ____
ROOT
ATOM      1  C   UNL     1       5.036   4.715  18.239  0.00  0.00    +0.000 A 
ATOM      2  N   UNL     1       5.741   4.719  17.096  0.00  0.00    +0.000 NA
ATOM      3  C   UNL     1       5.537   5.749  16.269  0.00  0.00    +0.000 A 
ATOM      4  N   UNL     1       4.678   6.755  16.457  0.00  0.00    +0.000 NA
ATOM      5  C   UNL     1       3.973   6.735  17.593  0.00  0.00    +0.000 A 
ATOM      6  C   UNL     1       3.035   7.740  17.811  0.00  0.00    +0.000 A 
ATOM      7  C   UNL     1       2.247   7.828  18.976  0.00  0.00    +0.000 A 
ATOM      8  C   UNL     1       2.441   6.835  19.945  0.00  0.00    +0.000 A 
ATOM      9  C   UNL     1       3.359   5.801  19.742  0.00  0.00    +0.000 A 
ATOM     10  C   UNL     1       4.128   5.740  18.561  0.00  0.00    +0.000 A 
ENDROOT
BRANCH   7  11
ATOM     11  C   UNL     1       1.262   8.923  19.160  0.00  0.00    +0.000 A 
ATOM     12  C   UNL     1       0.682   9.584  18.044  0.00  0.00    +0.000 A 
ATOM     13  C   UNL     1      -0.249  10.621  18.192  0.00  0.00    +0.000 A 
ATOM     14  C   UNL     1      -0.582  11.002  19.469  0.00  0.00    +0.000 A 
ATOM     15  C   UNL     1      -0.038  10.383  20.565  0.00  0.00    +0.000 A 
ATOM     16  C   UNL     1       0.869   9.346  20.446  0.00  0.00    +0.000 A 
ATOM     17  O   UNL     1      -0.491  10.909  21.735  0.00  0.00    +0.000 OA
ATOM     18  C   UNL     1      -1.362  11.950  21.245  0.00  0.00    +0.000 C 
ATOM     19  O   UNL     1      -1.447  11.995  19.805  0.00  0.00    +0.000 OA
ENDBRANCH   7  11
BRANCH   1  20
ATOM     20  N   UNL     1       5.249   3.667  19.161  0.00  0.00    +0.000 N 
ATOM     21  H   UNL     1       6.236   3.428  19.140  0.00  0.00    +0.000 HD
BRANCH  20  22
ATOM     22  C   UNL     1       4.414   2.490  18.931  0.00  0.00    +0.000 C 
BRANCH  22  26
ATOM     23  C   UNL     1       1.365   2.771  21.175  0.00  0.00    +0.000 A 
ATOM     24  C   UNL     1       0.640   2.799  20.004  0.00  0.00    +0.000 A 
ATOM     25  S   UNL     1       1.643   2.685  18.626  0.00  0.00    +0.000 S 
ATOM     26  C   UNL     1       3.062   2.602  19.587  0.00  0.00    +0.000 A 
ATOM     27  C   UNL     1       2.764   2.659  20.933  0.00  0.00    +0.000 A 
ENDBRANCH  22  26
ENDBRANCH  20  22
ENDBRANCH   1  20
TORSDOF 4
ENDMDL
MODEL 7
REMARK VINA RESULT:      -8.1      2.128      3.051
REMARK  Name = 
REMARK  4 active torsions:
REMARK  status: ('A' for Active; 'I' for Inactive)
REMARK    1  A    between atoms: C_4  and  C_5
REMARK    2  A    between atoms: C_5  and  N_6
REMARK    3  A    between atoms: N_6  and  C_7
REMARK    4  A    between atoms: C_13  and  C_14
REMARK                            x       y       z     vdW  Elec       q    Type
REMARK                         _______ _______ _______ _____ _____    ______ ____
ROOT
ATOM      1  C   UNL     1       0.000  10.425  20.374  0.00  0.00    +0.000 A 
ATOM      2  N   UNL     1      -0.251  10.292  21.686  0.00  0.00    +0.000 NA
ATOM      3  C   UNL     1       0.346   9.270  22.309  0.00  0.00    +0.000 A 
ATOM      4  N   UNL     1       1.139   8.355  21.746  0.00  0.00    +0.000 NA
ATOM      5  C   UNL     1       1.372   8.491  20.436  0.00  0.00    +0.000 A 
ATOM      6  C   UNL     1       2.159   7.537  19.798  0.00  0.00    +0.000 A 
ATOM      7  C   UNL     1       2.483   7.586  18.428  0.00  0.00    +0.000 A 
ATOM      8  C   UNL     1       1.969   8.666  17.697  0.00  0.00    +0.000 A 
ATOM      9  C   UNL     1       1.157   9.626  18.306  0.00  0.00    +0.000 A 
ATOM     10  C   UNL     1       0.848   9.543  19.681  0.00  0.00    +0.000 A 
ENDROOT
BRANCH   7  11
ATOM     11  C   UNL     1       3.329   6.542  17.796  0.00  0.00    +0.000 A 
ATOM     12  C   UNL     1       2.974   5.168  17.868  0.00  0.00    +0.000 A 
ATOM     13  C   UNL     1       3.756   4.164  17.281  0.00  0.00    +0.000 A 
ATOM     14  C   UNL     1       4.907   4.547  16.636  0.00  0.00    +0.000 A 
ATOM     15  C   UNL     1       5.275   5.866  16.552  0.00  0.00    +0.000 A 
ATOM     16  C   UNL     1       4.511   6.876  17.106  0.00  0.00    +0.000 A 
ATOM     17  O   UNL     1       6.446   6.035  15.880  0.00  0.00    +0.000 OA
ATOM     18  C   UNL     1       6.784   4.665  15.576  0.00  0.00    +0.000 C 
ATOM     19  O   UNL     1       5.794   3.717  16.028  0.00  0.00    +0.000 OA
ENDBRANCH   7  11
BRANCH   1  20
ATOM     20  N   UNL     1      -0.577  11.513  19.683  0.00  0.00    +0.000 N 
ATOM     21  H   UNL     1      -0.238  11.490  18.725  0.00  0.00    +0.000 HD
BRANCH  20  22
ATOM     22  C   UNL     1      -0.330  12.813  20.301  0.00  0.00    +0.000 C 
BRANCH  22  26
ATOM     23  C   UNL     1       3.227  14.141  20.335  0.00  0.00    +0.000 A 
ATOM     24  C   UNL     1       3.162  14.038  18.963  0.00  0.00    +0.000 A 
ATOM     25  S   UNL     1       1.648  13.453  18.433  0.00  0.00    +0.000 S 
ATOM     26  C   UNL     1       1.064  13.323  20.041  0.00  0.00    +0.000 A 
ATOM     27  C   UNL     1       2.015  13.725  20.957  0.00  0.00    +0.000 A 
ENDBRANCH  22  26
ENDBRANCH  20  22
ENDBRANCH   1  20
TORSDOF 4
ENDMDL
MODEL 8
REMARK VINA RESULT:      -8.1      1.708      2.511
REMARK  Name = 
REMARK  4 active torsions:
REMARK  status: ('A' for Active; 'I' for Inactive)
REMARK    1  A    between atoms: C_4  and  C_5
REMARK    2  A    between atoms: C_5  and  N_6
REMARK    3  A    between atoms: N_6  and  C_7
REMARK    4  A    between atoms: C_13  and  C_14
REMARK                            x       y       z     vdW  Elec       q    Type
REMARK                         _______ _______ _______ _____ _____    ______ ____
ROOT
ATOM      1  C   UNL     1      -0.625  11.284  21.026  0.00  0.00    +0.000 A 
ATOM      2  N   UNL     1      -1.103  11.330  22.280  0.00  0.00    +0.000 NA
ATOM      3  C   UNL     1      -0.768  10.318  23.087  0.00  0.00    +0.000 A 
ATOM      4  N   UNL     1      -0.033   9.253  22.756  0.00  0.00    +0.000 NA
ATOM      5  C   UNL     1       0.427   9.212  21.502  0.00  0.00    +0.000 A 
ATOM      6  C   UNL     1       1.163   8.100  21.100  0.00  0.00    +0.000 A 
ATOM      7  C   UNL     1       1.710   7.955  19.810  0.00  0.00    +0.000 A 
ATOM      8  C   UNL     1       1.482   9.002  18.906  0.00  0.00    +0.000 A 
ATOM      9  C   UNL     1       0.728  10.119  19.275  0.00  0.00    +0.000 A 
ATOM     10  C   UNL     1       0.190  10.229  20.575  0.00  0.00    +0.000 A 
ENDROOT
BRANCH   7  11
ATOM     11  C   UNL     1       2.489   6.748  19.433  0.00  0.00    +0.000 A 
ATOM     12  C   UNL     1       3.335   6.748  18.290  0.00  0.00    +0.000 A 
ATOM     13  C   UNL     1       4.079   5.622  17.913  0.00  0.00    +0.000 A 
ATOM     14  C   UNL     1       3.956   4.490  18.681  0.00  0.00    +0.000 A 
ATOM     15  C   UNL     1       3.147   4.461  19.788  0.00  0.00    +0.000 A 
ATOM     16  C   UNL     1       2.417   5.564  20.192  0.00  0.00    +0.000 A 
ATOM     17  O   UNL     1       3.159   3.249  20.406  0.00  0.00    +0.000 OA
ATOM     18  C   UNL     1       4.049   2.512  19.541  0.00  0.00    +0.000 C 
ATOM     19  O   UNL     1       4.582   3.305  18.460  0.00  0.00    +0.000 OA
ENDBRANCH   7  11
BRANCH   1  20
ATOM     20  N   UNL     1      -0.919  12.351  20.151  0.00  0.00    +0.000 N 
ATOM     21  H   UNL     1      -0.528  13.200  20.549  0.00  0.00    +0.000 HD
BRANCH  20  22
ATOM     22  C   UNL     1      -2.342  12.510  19.859  0.00  0.00    +0.000 C 
BRANCH  22  26
ATOM     23  C   UNL     1      -2.663  10.958  16.409  0.00  0.00    +0.000 A 
ATOM     24  C   UNL     1      -4.009  10.873  16.692  0.00  0.00    +0.000 A 
ATOM     25  S   UNL     1      -4.380  11.497  18.237  0.00  0.00    +0.000 S 
ATOM     26  C   UNL     1      -2.737  11.883  18.547  0.00  0.00    +0.000 A 
ATOM     27  C   UNL     1      -1.929  11.540  17.482  0.00  0.00    +0.000 A 
ENDBRANCH  22  26
ENDBRANCH  20  22
ENDBRANCH   1  20
TORSDOF 4
ENDMDL
MODEL 9
REMARK VINA RESULT:      -8.0      1.363      1.990
REMARK  Name = 
REMARK  4 active torsions:
REMARK  status: ('A' for Active; 'I' for Inactive)
REMARK    1  A    between atoms: C_4  and  C_5
REMARK    2  A    between atoms: C_5  and  N_6
REMARK    3  A    between atoms: N_6  and  C_7
REMARK    4  A    between atoms: C_13  and  C_14
REMARK                            x       y       z     vdW  Elec       q    Type
REMARK                         _______ _______ _______ _____ _____    ______ ____
ROOT
ATOM      1  C   UNL     1       0.147  10.417  20.258  0.00  0.00    +0.000 A 
ATOM      2  N   UNL     1      -0.182  10.242  21.549  0.00  0.00    +0.000 NA
ATOM      3  C   UNL     1       0.330   9.167  22.157  0.00  0.00    +0.000 A 
ATOM      4  N   UNL     1       1.108   8.237  21.596  0.00  0.00    +0.000 NA
ATOM      5  C   UNL     1       1.419   8.416  20.308  0.00  0.00    +0.000 A 
ATOM      6  C   UNL     1       2.194   7.451  19.671  0.00  0.00    +0.000 A 
ATOM      7  C   UNL     1       2.595   7.541  18.323  0.00  0.00    +0.000 A 
ATOM      8  C   UNL     1       2.174   8.675  17.614  0.00  0.00    +0.000 A 
ATOM      9  C   UNL     1       1.377   9.648  18.222  0.00  0.00    +0.000 A 
ATOM     10  C   UNL     1       0.989   9.523  19.573  0.00  0.00    +0.000 A 
ENDROOT
BRANCH   7  11
ATOM     11  C   UNL     1       3.424   6.483  17.692  0.00  0.00    +0.000 A 
ATOM     12  C   UNL     1       3.079   5.110  17.814  0.00  0.00    +0.000 A 
ATOM     13  C   UNL     1       3.846   4.094  17.228  0.00  0.00    +0.000 A 
ATOM     14  C   UNL     1       4.971   4.464  16.533  0.00  0.00    +0.000 A 
ATOM     15  C   UNL     1       5.329   5.781  16.399  0.00  0.00    +0.000 A 
ATOM     16  C   UNL     1       4.580   6.803  16.952  0.00  0.00    +0.000 A 
ATOM     17  O   UNL     1       6.474   5.936  15.682  0.00  0.00    +0.000 OA
ATOM     18  C   UNL     1       6.809   4.560  15.405  0.00  0.00    +0.000 C 
ATOM     19  O   UNL     1       5.841   3.621  15.918  0.00  0.00    +0.000 OA
ENDBRANCH   7  11
BRANCH   1  20
ATOM     20  N   UNL     1      -0.339  11.560  19.587  0.00  0.00    +0.000 N 
ATOM     21  H   UNL     1      -0.242  12.355  20.213  0.00  0.00    +0.000 HD
BRANCH  20  22
ATOM     22  C   UNL     1      -1.710  11.432  19.102  0.00  0.00    +0.000 C 
BRANCH  22  26
ATOM     23  C   UNL     1      -4.606  13.409  20.556  0.00  0.00    +0.000 A 
ATOM     24  C   UNL     1      -3.640  14.118  21.235  0.00  0.00    +0.000 A 
ATOM     25  S   UNL     1      -2.065  13.562  20.876  0.00  0.00    +0.000 S 
ATOM     26  C   UNL     1      -2.664  12.359  19.809  0.00  0.00    +0.000 A 
ATOM     27  C   UNL     1      -4.042  12.392  19.734  0.00  0.00    +0.000 A 
ENDBRANCH  22  26
ENDBRANCH  20  22
ENDBRANCH   1  20
TORSDOF 4
ENDMDL
