MODEL 1
REMARK VINA RESULT:      -9.7      0.000      0.000
REMARK  Name = 
REMARK  6 active torsions:
REMARK  status: ('A' for Active; 'I' for Inactive)
REMARK    1  A    between atoms: S_2  and  N_4
REMARK    2  A    between atoms: S_2  and  N_29
REMARK    3  A    between atoms: N_4  and  C_5
REMARK    4  A    between atoms: C_10  and  N_11
REMARK    5  A    between atoms: N_11  and  C_12
REMARK    6  A    between atoms: C_17  and  C_18
REMARK                            x       y       z     vdW  Elec       q    Type
REMARK                         _______ _______ _______ _____ _____    ______ ____
ROOT
ATOM      1  C   UNL     1       0.742   9.184  19.743  0.00  0.00    +0.000 A 
ATOM      2  C   UNL     1       1.115   9.712  18.511  0.00  0.00    +0.000 A 
ATOM      3  C   UNL     1       2.058   9.039  17.741  0.00  0.00    +0.000 A 
ATOM      4  C   UNL     1       2.647   7.865  18.220  0.00  0.00    +0.000 A 
ATOM      5  F   UNL     1       3.458   7.205  17.378  0.00  0.00    +0.000 F 
ATOM      6  C   UNL     1       2.375   7.369  19.505  0.00  0.00    +0.000 A 
ATOM      7  C   UNL     1       1.352   8.010  20.220  0.00  0.00    +0.000 A 
ATOM      8  F   UNL     1       0.975   7.534  21.420  0.00  0.00    +0.000 F 
ENDROOT
BRANCH   1   9
ATOM      9  N   UNL     1      -0.325   9.807  20.490  0.00  0.00    +0.000 N 
ATOM     10  H   UNL     1      -0.945  10.296  19.844  0.00  0.00    +0.000 HD
BRANCH   9  12
ATOM     11  O   UNL     1       0.133  10.387  22.941  0.00  0.00    +0.000 OA
ATOM     12  S   UNL     1       0.230  10.950  21.615  0.00  0.00    +0.000 S 
ATOM     13  O   UNL     1       1.462  11.498  21.105  0.00  0.00    +0.000 OA
BRANCH  12  14
ATOM     14  N   UNL     1      -0.978  12.129  21.461  0.00  0.00    +0.000 NA
ATOM     15  C   UNL     1      -0.553  13.547  21.397  0.00  0.00    +0.000 C 
ATOM     16  C   UNL     1      -0.633  14.036  22.829  0.00  0.00    +0.000 C 
ATOM     17  C   UNL     1      -1.840  13.311  23.394  0.00  0.00    +0.000 C 
ATOM     18  C   UNL     1      -2.024  12.066  22.526  0.00  0.00    +0.000 C 
ENDBRANCH  12  14
ENDBRANCH   9  12
ENDBRANCH   1   9
BRANCH   6  19
ATOM     19  N   UNL     1       3.066   6.282  20.099  0.00  0.00    +0.000 N 
ATOM     20  H   UNL     1       3.293   6.431  21.082  0.00  0.00    +0.000 HD
BRANCH  19  21
ATOM     21  C   UNL     1       2.832   4.910  19.836  0.00  0.00    +0.000 A 
ATOM     22  N   UNL     1       1.598   4.421  20.138  0.00  0.00    +0.000 NA
ATOM     23  C   UNL     1       1.295   3.146  19.846  0.00  0.00    +0.000 A 
ATOM     24  C   UNL     1       2.150   2.305  19.178  0.00  0.00    +0.000 A 
ATOM     25  C   UNL     1       3.394   2.807  18.823  0.00  0.00    +0.000 A 
ATOM     26  C   UNL     1       3.780   4.127  19.147  0.00  0.00    +0.000 A 
BRANCH  26  27
ATOM     27  C   UNL     1       5.117   4.612  18.769  0.00  0.00    +0.000 A 
ATOM     28  N   UNL     1       5.917   5.172  19.732  0.00  0.00    +0.000 NA
ATOM     29  C   UNL     1       7.177   5.530  19.391  0.00  0.00    +0.000 A 
ATOM     30  N   UNL     1       7.780   5.421  18.191  0.00  0.00    +0.000 NA
ATOM     31  C   UNL     1       6.950   4.888  17.286  0.00  0.00    +0.000 A 
ATOM     32  N   UNL     1       7.235   4.628  15.977  0.00  0.00    +0.000 N 
ATOM     33  C   UNL     1       6.119   4.073  15.414  0.00  0.00    +0.000 A 
ATOM     34  N   UNL     1       5.140   3.963  16.285  0.00  0.00    +0.000 NA
ATOM     35  C   UNL     1       5.642   4.468  17.472  0.00  0.00    +0.000 A 
ATOM     36  H   UNL     1       8.119   4.806  15.524  0.00  0.00    +0.000 HD
ENDBRANCH  26  27
ENDBRANCH  19  21
ENDBRANCH   6  19
TORSDOF 6
ENDMDL
MODEL 2
REMARK VINA RESULT:      -9.7      0.633      1.067
REMARK  Name = 
REMARK  6 active torsions:
REMARK  status: ('A' for Active; 'I' for Inactive)
REMARK    1  A    between atoms: S_2  and  N_4
REMARK    2  A    between atoms: S_2  and  N_29
REMARK    3  A    between atoms: N_4  and  C_5
REMARK    4  A    between atoms: C_10  and  N_11
REMARK    5  A    between atoms: N_11  and  C_12
REMARK    6  A    between atoms: C_17  and  C_18
REMARK                            x       y       z     vdW  Elec       q    Type
REMARK                         _______ _______ _______ _____ _____    ______ ____
ROOT
ATOM      1  C   UNL     1       0.735   9.174  19.798  0.00  0.00    +0.000 A 
ATOM      2  C   UNL     1       1.081   9.733  18.571  0.00  0.00    +0.000 A 
ATOM      3  C   UNL     1       2.016   9.087  17.769  0.00  0.00    +0.000 A 
ATOM      4  C   UNL     1       2.626   7.909  18.212  0.00  0.00    +0.000 A 
ATOM      5  F   UNL     1       3.428   7.276  17.342  0.00  0.00    +0.000 F 
ATOM      6  C   UNL     1       2.382   7.382  19.491  0.00  0.00    +0.000 A 
ATOM      7  C   UNL     1       1.366   7.997  20.237  0.00  0.00    +0.000 A 
ATOM      8  F   UNL     1       1.016   7.492  21.433  0.00  0.00    +0.000 F 
ENDROOT
BRANCH   1   9
ATOM      9  N   UNL     1      -0.324   9.770  20.577  0.00  0.00    +0.000 N 
ATOM     10  H   UNL     1      -0.967  10.256  19.951  0.00  0.00    +0.000 HD
BRANCH   9  12
ATOM     11  O   UNL     1       0.055  10.380  23.034  0.00  0.00    +0.000 OA
ATOM     12  S   UNL     1       0.237  10.908  21.702  0.00  0.00    +0.000 S 
ATOM     13  O   UNL     1       1.517  11.384  21.238  0.00  0.00    +0.000 OA
BRANCH  12  14
ATOM     14  N   UNL     1      -0.901  12.142  21.472  0.00  0.00    +0.000 NA
ATOM     15  C   UNL     1      -1.686  12.131  20.215  0.00  0.00    +0.000 C 
ATOM     16  C   UNL     1      -0.916  13.034  19.274  0.00  0.00    +0.000 C 
ATOM     17  C   UNL     1      -0.371  14.122  20.179  0.00  0.00    +0.000 C 
ATOM     18  C   UNL     1      -0.332  13.519  21.583  0.00  0.00    +0.000 C 
ENDBRANCH  12  14
ENDBRANCH   9  12
ENDBRANCH   1   9
BRANCH   6  19
ATOM     19  N   UNL     1       3.096   6.290  20.048  0.00  0.00    +0.000 N 
ATOM     20  H   UNL     1       3.354   6.428  21.025  0.00  0.00    +0.000 HD
BRANCH  19  21
ATOM     21  C   UNL     1       2.857   4.921  19.776  0.00  0.00    +0.000 A 
ATOM     22  N   UNL     1       1.616   4.438  20.061  0.00  0.00    +0.000 NA
ATOM     23  C   UNL     1       1.310   3.166  19.761  0.00  0.00    +0.000 A 
ATOM     24  C   UNL     1       2.167   2.324  19.099  0.00  0.00    +0.000 A 
ATOM     25  C   UNL     1       3.418   2.819  18.760  0.00  0.00    +0.000 A 
ATOM     26  C   UNL     1       3.808   4.136  19.094  0.00  0.00    +0.000 A 
BRANCH  26  27
ATOM     27  C   UNL     1       5.152   4.615  18.734  0.00  0.00    +0.000 A 
ATOM     28  N   UNL     1       5.943   5.166  19.709  0.00  0.00    +0.000 NA
ATOM     29  C   UNL     1       7.209   5.519  19.384  0.00  0.00    +0.000 A 
ATOM     30  N   UNL     1       7.826   5.412  18.191  0.00  0.00    +0.000 NA
ATOM     31  C   UNL     1       7.003   4.886  17.274  0.00  0.00    +0.000 A 
ATOM     32  N   UNL     1       7.303   4.630  15.967  0.00  0.00    +0.000 N 
ATOM     33  C   UNL     1       6.191   4.084  15.389  0.00  0.00    +0.000 A 
ATOM     34  N   UNL     1       5.201   3.976  16.248  0.00  0.00    +0.000 NA
ATOM     35  C   UNL     1       5.691   4.473  17.443  0.00  0.00    +0.000 A 
ATOM     36  H   UNL     1       8.193   4.805  15.525  0.00  0.00    +0.000 HD
ENDBRANCH  26  27
ENDBRANCH  19  21
ENDBRANCH   6  19
TORSDOF 6
ENDMDL
MODEL 3
REMARK VINA RESULT:      -9.7      0.692      1.093
REMARK  Name = 
REMARK  6 active torsions:
REMARK  status: ('A' for Active; 'I' for Inactive)
REMARK    1  A    between atoms: S_2  and  N_4
REMARK    2  A    between atoms: S_2  and  N_29
REMARK    3  A    between atoms: N_4  and  C_5
REMARK    4  A    between atoms: C_10  and  N_11
REMARK    5  A    between atoms: N_11  and  C_12
REMARK    6  A    between atoms: C_17  and  C_18
REMARK                            x       y       z     vdW  Elec       q    Type
REMARK                         _______ _______ _______ _____ _____    ______ ____
ROOT
ATOM      1  C   UNL     1       0.904   9.347  19.991  0.00  0.00    +0.000 A 
ATOM      2  C   UNL     1       1.152   9.831  18.710  0.00  0.00    +0.000 A 
ATOM      3  C   UNL     1       1.939   9.083  17.840  0.00  0.00    +0.000 A 
ATOM      4  C   UNL     1       2.501   7.875  18.266  0.00  0.00    +0.000 A 
ATOM      5  F   UNL     1       3.149   7.148  17.342  0.00  0.00    +0.000 F 
ATOM      6  C   UNL     1       2.362   7.416  19.585  0.00  0.00    +0.000 A 
ATOM      7  C   UNL     1       1.487   8.138  20.410  0.00  0.00    +0.000 A 
ATOM      8  F   UNL     1       1.236   7.705  21.659  0.00  0.00    +0.000 F 
ENDROOT
BRANCH   1   9
ATOM      9  N   UNL     1      -0.012  10.054  20.854  0.00  0.00    +0.000 N 
ATOM     10  H   UNL     1      -0.957   9.968  20.480  0.00  0.00    +0.000 HD
BRANCH   9  12
ATOM     11  O   UNL     1       1.765  11.894  20.970  0.00  0.00    +0.000 OA
ATOM     12  S   UNL     1       0.332  11.711  20.972  0.00  0.00    +0.000 S 
ATOM     13  O   UNL     1      -0.528  12.402  20.043  0.00  0.00    +0.000 OA
BRANCH  12  14
ATOM     14  N   UNL     1      -0.229  12.020  22.542  0.00  0.00    +0.000 NA
ATOM     15  C   UNL     1      -1.362  11.208  23.042  0.00  0.00    +0.000 C 
ATOM     16  C   UNL     1      -2.593  12.033  22.729  0.00  0.00    +0.000 C 
ATOM     17  C   UNL     1      -2.134  13.464  22.939  0.00  0.00    +0.000 C 
ATOM     18  C   UNL     1      -0.615  13.444  22.777  0.00  0.00    +0.000 C 
ENDBRANCH  12  14
ENDBRANCH   9  12
ENDBRANCH   1   9
BRANCH   6  19
ATOM     19  N   UNL     1       3.047   6.289  20.109  0.00  0.00    +0.000 N 
ATOM     20  H   UNL     1       3.300   6.387  21.093  0.00  0.00    +0.000 HD
BRANCH  19  21
ATOM     21  C   UNL     1       2.781   4.936  19.787  0.00  0.00    +0.000 A 
ATOM     22  N   UNL     1       1.532   4.467  20.059  0.00  0.00    +0.000 NA
ATOM     23  C   UNL     1       1.200   3.213  19.712  0.00  0.00    +0.000 A 
ATOM     24  C   UNL     1       2.039   2.380  19.015  0.00  0.00    +0.000 A 
ATOM     25  C   UNL     1       3.298   2.864  18.691  0.00  0.00    +0.000 A 
ATOM     26  C   UNL     1       3.714   4.159  19.072  0.00  0.00    +0.000 A 
BRANCH  26  27
ATOM     27  C   UNL     1       5.066   4.625  18.724  0.00  0.00    +0.000 A 
ATOM     28  N   UNL     1       5.851   5.176  19.705  0.00  0.00    +0.000 NA
ATOM     29  C   UNL     1       7.123   5.517  19.393  0.00  0.00    +0.000 A 
ATOM     30  N   UNL     1       7.753   5.398  18.208  0.00  0.00    +0.000 NA
ATOM     31  C   UNL     1       6.936   4.874  17.284  0.00  0.00    +0.000 A 
ATOM     32  N   UNL     1       7.248   4.607  15.982  0.00  0.00    +0.000 N 
ATOM     33  C   UNL     1       6.138   4.067  15.395  0.00  0.00    +0.000 A 
ATOM     34  N   UNL     1       5.138   3.972  16.243  0.00  0.00    +0.000 NA
ATOM     35  C   UNL     1       5.619   4.472  17.440  0.00  0.00    +0.000 A 
ATOM     36  H   UNL     1       8.145   4.773  15.550  0.00  0.00    +0.000 HD
ENDBRANCH  26  27
ENDBRANCH  19  21
ENDBRANCH   6  19
TORSDOF 6
ENDMDL
MODEL 4
REMARK VINA RESULT:      -9.5      0.597      1.610
REMARK  Name = 
REMARK  6 active torsions:
REMARK  status: ('A' for Active; 'I' for Inactive)
REMARK    1  A    between atoms: S_2  and  N_4
REMARK    2  A    between atoms: S_2  and  N_29
REMARK    3  A    between atoms: N_4  and  C_5
REMARK    4  A    between atoms: C_10  and  N_11
REMARK    5  A    between atoms: N_11  and  C_12
REMARK    6  A    between atoms: C_17  and  C_18
REMARK                            x       y       z     vdW  Elec       q    Type
REMARK                         _______ _______ _______ _____ _____    ______ ____
ROOT
ATOM      1  C   UNL     1       0.872   9.073  19.690  0.00  0.00    +0.000 A 
ATOM      2  C   UNL     1       1.199   9.597  18.443  0.00  0.00    +0.000 A 
ATOM      3  C   UNL     1       2.139   8.941  17.655  0.00  0.00    +0.000 A 
ATOM      4  C   UNL     1       2.771   7.788  18.131  0.00  0.00    +0.000 A 
ATOM      5  F   UNL     1       3.578   7.140  17.276  0.00  0.00    +0.000 F 
ATOM      6  C   UNL     1       2.546   7.299  19.428  0.00  0.00    +0.000 A 
ATOM      7  C   UNL     1       1.525   7.922  20.163  0.00  0.00    +0.000 A 
ATOM      8  F   UNL     1       1.193   7.449  21.377  0.00  0.00    +0.000 F 
ENDROOT
BRANCH   1   9
ATOM      9  N   UNL     1      -0.192   9.676  20.457  0.00  0.00    +0.000 N 
ATOM     10  H   UNL     1      -0.821  10.172  19.826  0.00  0.00    +0.000 HD
BRANCH   9  12
ATOM     11  O   UNL     1       0.429  10.168  22.892  0.00  0.00    +0.000 OA
ATOM     12  S   UNL     1       0.366  10.803  21.596  0.00  0.00    +0.000 S 
ATOM     13  O   UNL     1       1.504  11.476  21.020  0.00  0.00    +0.000 OA
BRANCH  12  14
ATOM     14  N   UNL     1      -0.938  11.885  21.609  0.00  0.00    +0.000 NA
ATOM     15  C   UNL     1      -0.724  13.231  21.029  0.00  0.00    +0.000 C 
ATOM     16  C   UNL     1      -0.339  14.101  22.208  0.00  0.00    +0.000 C 
ATOM     17  C   UNL     1      -1.175  13.554  23.350  0.00  0.00    +0.000 C 
ATOM     18  C   UNL     1      -1.519  12.116  22.966  0.00  0.00    +0.000 C 
ENDBRANCH  12  14
ENDBRANCH   9  12
ENDBRANCH   1   9
BRANCH   6  19
ATOM     19  N   UNL     1       3.282   6.238  20.015  0.00  0.00    +0.000 N 
ATOM     20  H   UNL     1       3.775   6.505  20.867  0.00  0.00    +0.000 HD
BRANCH  19  21
ATOM     21  C   UNL     1       2.876   4.882  20.071  0.00  0.00    +0.000 A 
ATOM     22  N   UNL     1       1.880   4.566  20.943  0.00  0.00    +0.000 NA
ATOM     23  C   UNL     1       1.406   3.311  20.990  0.00  0.00    +0.000 A 
ATOM     24  C   UNL     1       1.823   2.319  20.138  0.00  0.00    +0.000 A 
ATOM     25  C   UNL     1       2.805   2.641  19.212  0.00  0.00    +0.000 A 
ATOM     26  C   UNL     1       3.370   3.935  19.152  0.00  0.00    +0.000 A 
BRANCH  26  27
ATOM     27  C   UNL     1       4.424   4.227  18.167  0.00  0.00    +0.000 A 
ATOM     28  N   UNL     1       4.166   4.016  16.836  0.00  0.00    +0.000 NA
ATOM     29  C   UNL     1       5.110   4.374  15.935  0.00  0.00    +0.000 A 
ATOM     30  N   UNL     1       6.319   4.922  16.165  0.00  0.00    +0.000 NA
ATOM     31  C   UNL     1       6.526   5.088  17.478  0.00  0.00    +0.000 A 
ATOM     32  N   UNL     1       7.637   5.623  18.063  0.00  0.00    +0.000 N 
ATOM     33  C   UNL     1       7.431   5.622  19.415  0.00  0.00    +0.000 A 
ATOM     34  N   UNL     1       6.256   5.119  19.727  0.00  0.00    +0.000 NA
ATOM     35  C   UNL     1       5.668   4.779  18.522  0.00  0.00    +0.000 A 
ATOM     36  H   UNL     1       8.450   5.965  17.573  0.00  0.00    +0.000 HD
ENDBRANCH  26  27
ENDBRANCH  19  21
ENDBRANCH   6  19
TORSDOF 6
ENDMDL
MODEL 5
REMARK VINA RESULT:      -9.3      0.904      1.963
REMARK  Name = 
REMARK  6 active torsions:
REMARK  status: ('A' for Active; 'I' for Inactive)
REMARK    1  A    between atoms: S_2  and  N_4
REMARK    2  A    between atoms: S_2  and  N_29
REMARK    3  A    between atoms: N_4  and  C_5
REMARK    4  A    between atoms: C_10  and  N_11
REMARK    5  A    between atoms: N_11  and  C_12
REMARK    6  A    between atoms: C_17  and  C_18
REMARK                            x       y       z     vdW  Elec       q    Type
REMARK                         _______ _______ _______ _____ _____    ______ ____
ROOT
ATOM      1  C   UNL     1       0.937   9.209  19.799  0.00  0.00    +0.000 A 
ATOM      2  C   UNL     1       1.143   9.659  18.498  0.00  0.00    +0.000 A 
ATOM      3  C   UNL     1       1.958   8.922  17.645  0.00  0.00    +0.000 A 
ATOM      4  C   UNL     1       2.590   7.762  18.106  0.00  0.00    +0.000 A 
ATOM      5  F   UNL     1       3.265   7.037  17.200  0.00  0.00    +0.000 F 
ATOM      6  C   UNL     1       2.492   7.345  19.443  0.00  0.00    +0.000 A 
ATOM      7  C   UNL     1       1.589   8.050  20.254  0.00  0.00    +0.000 A 
ATOM      8  F   UNL     1       1.376   7.650  21.520  0.00  0.00    +0.000 F 
ENDROOT
BRANCH   1   9
ATOM      9  N   UNL     1      -0.006   9.897  20.648  0.00  0.00    +0.000 N 
ATOM     10  H   UNL     1      -0.954   9.677  20.343  0.00  0.00    +0.000 HD
BRANCH   9  12
ATOM     11  O   UNL     1       1.526  11.912  20.259  0.00  0.00    +0.000 OA
ATOM     12  S   UNL     1       0.159  11.585  20.592  0.00  0.00    +0.000 S 
ATOM     13  O   UNL     1      -0.956  12.107  19.841  0.00  0.00    +0.000 OA
BRANCH  12  14
ATOM     14  N   UNL     1      -0.082  11.962  22.227  0.00  0.00    +0.000 NA
ATOM     15  C   UNL     1      -1.024  11.119  22.998  0.00  0.00    +0.000 C 
ATOM     16  C   UNL     1      -2.350  11.848  22.912  0.00  0.00    +0.000 C 
ATOM     17  C   UNL     1      -1.961  13.313  22.946  0.00  0.00    +0.000 C 
ATOM     18  C   UNL     1      -0.512  13.373  22.465  0.00  0.00    +0.000 C 
ENDBRANCH  12  14
ENDBRANCH   9  12
ENDBRANCH   1   9
BRANCH   6  19
ATOM     19  N   UNL     1       3.243   6.277  19.998  0.00  0.00    +0.000 N 
ATOM     20  H   UNL     1       3.773   6.539  20.829  0.00  0.00    +0.000 HD
BRANCH  19  21
ATOM     21  C   UNL     1       2.829   4.924  20.068  0.00  0.00    +0.000 A 
ATOM     22  N   UNL     1       1.828   4.625  20.941  0.00  0.00    +0.000 NA
ATOM     23  C   UNL     1       1.347   3.373  21.001  0.00  0.00    +0.000 A 
ATOM     24  C   UNL     1       1.761   2.369  20.162  0.00  0.00    +0.000 A 
ATOM     25  C   UNL     1       2.748   2.674  19.236  0.00  0.00    +0.000 A 
ATOM     26  C   UNL     1       3.320   3.963  19.162  0.00  0.00    +0.000 A 
BRANCH  26  27
ATOM     27  C   UNL     1       4.379   4.238  18.177  0.00  0.00    +0.000 A 
ATOM     28  N   UNL     1       4.122   4.018  16.848  0.00  0.00    +0.000 NA
ATOM     29  C   UNL     1       5.072   4.361  15.946  0.00  0.00    +0.000 A 
ATOM     30  N   UNL     1       6.286   4.898  16.175  0.00  0.00    +0.000 NA
ATOM     31  C   UNL     1       6.491   5.073  17.487  0.00  0.00    +0.000 A 
ATOM     32  N   UNL     1       7.605   5.602  18.071  0.00  0.00    +0.000 N 
ATOM     33  C   UNL     1       7.397   5.614  19.422  0.00  0.00    +0.000 A 
ATOM     34  N   UNL     1       6.216   5.125  19.735  0.00  0.00    +0.000 NA
ATOM     35  C   UNL     1       5.628   4.780  18.531  0.00  0.00    +0.000 A 
ATOM     36  H   UNL     1       8.423   5.932  17.580  0.00  0.00    +0.000 HD
ENDBRANCH  26  27
ENDBRANCH  19  21
ENDBRANCH   6  19
TORSDOF 6
ENDMDL
MODEL 6
REMARK VINA RESULT:      -9.3      0.857      1.883
REMARK  Name = 
REMARK  6 active torsions:
REMARK  status: ('A' for Active; 'I' for Inactive)
REMARK    1  A    between atoms: S_2  and  N_4
REMARK    2  A    between atoms: S_2  and  N_29
REMARK    3  A    between atoms: N_4  and  C_5
REMARK    4  A    between atoms: C_10  and  N_11
REMARK    5  A    between atoms: N_11  and  C_12
REMARK    6  A    between atoms: C_17  and  C_18
REMARK                            x       y       z     vdW  Elec       q    Type
REMARK                         _______ _______ _______ _____ _____    ______ ____
ROOT
ATOM      1  C   UNL     1       0.802   8.979  19.928  0.00  0.00    +0.000 A 
ATOM      2  C   UNL     1       1.072   9.741  18.795  0.00  0.00    +0.000 A 
ATOM      3  C   UNL     1       1.987   9.268  17.860  0.00  0.00    +0.000 A 
ATOM      4  C   UNL     1       2.651   8.057  18.079  0.00  0.00    +0.000 A 
ATOM      5  F   UNL     1       3.430   7.603  17.084  0.00  0.00    +0.000 F 
ATOM      6  C   UNL     1       2.485   7.322  19.263  0.00  0.00    +0.000 A 
ATOM      7  C   UNL     1       1.488   7.771  20.143  0.00  0.00    +0.000 A 
ATOM      8  F   UNL     1       1.211   7.066  21.254  0.00  0.00    +0.000 F 
ENDROOT
BRANCH   1   9
ATOM      9  N   UNL     1      -0.236   9.401  20.838  0.00  0.00    +0.000 N 
ATOM     10  H   UNL     1      -0.988   9.840  20.306  0.00  0.00    +0.000 HD
BRANCH   9  12
ATOM     11  O   UNL     1       0.194   9.960  23.299  0.00  0.00    +0.000 OA
ATOM     12  S   UNL     1       0.301  10.536  21.979  0.00  0.00    +0.000 S 
ATOM     13  O   UNL     1       1.536  11.096  21.487  0.00  0.00    +0.000 OA
BRANCH  12  14
ATOM     14  N   UNL     1      -0.911  11.710  21.824  0.00  0.00    +0.000 NA
ATOM     15  C   UNL     1      -1.584  11.839  20.510  0.00  0.00    +0.000 C 
ATOM     16  C   UNL     1      -0.813  12.926  19.789  0.00  0.00    +0.000 C 
ATOM     17  C   UNL     1      -0.437  13.897  20.893  0.00  0.00    +0.000 C 
ATOM     18  C   UNL     1      -0.468  13.089  22.189  0.00  0.00    +0.000 C 
ENDBRANCH  12  14
ENDBRANCH   9  12
ENDBRANCH   1   9
BRANCH   6  19
ATOM     19  N   UNL     1       3.257   6.182  19.605  0.00  0.00    +0.000 N 
ATOM     20  H   UNL     1       3.654   6.224  20.544  0.00  0.00    +0.000 HD
BRANCH  19  21
ATOM     21  C   UNL     1       2.965   4.845  19.239  0.00  0.00    +0.000 A 
ATOM     22  N   UNL     1       1.855   4.280  19.787  0.00  0.00    +0.000 NA
ATOM     23  C   UNL     1       1.488   3.040  19.423  0.00  0.00    +0.000 A 
ATOM     24  C   UNL     1       2.139   2.320  18.453  0.00  0.00    +0.000 A 
ATOM     25  C   UNL     1       3.244   2.905  17.853  0.00  0.00    +0.000 A 
ATOM     26  C   UNL     1       3.699   4.188  18.231  0.00  0.00    +0.000 A 
BRANCH  26  27
ATOM     27  C   UNL     1       4.888   4.763  17.583  0.00  0.00    +0.000 A 
ATOM     28  N   UNL     1       4.870   4.970  16.227  0.00  0.00    +0.000 NA
ATOM     29  C   UNL     1       5.934   5.582  15.657  0.00  0.00    +0.000 A 
ATOM     30  N   UNL     1       7.059   6.028  16.251  0.00  0.00    +0.000 NA
ATOM     31  C   UNL     1       7.031   5.783  17.568  0.00  0.00    +0.000 A 
ATOM     32  N   UNL     1       7.999   6.109  18.474  0.00  0.00    +0.000 N 
ATOM     33  C   UNL     1       7.568   5.695  19.704  0.00  0.00    +0.000 A 
ATOM     34  N   UNL     1       6.384   5.127  19.637  0.00  0.00    +0.000 NA
ATOM     35  C   UNL     1       6.025   5.174  18.302  0.00  0.00    +0.000 A 
ATOM     36  H   UNL     1       8.865   6.580  18.261  0.00  0.00    +0.000 HD
ENDBRANCH  26  27
ENDBRANCH  19  21
ENDBRANCH   6  19
TORSDOF 6
ENDMDL
MODEL 7
REMARK VINA RESULT:      -8.8      1.180      1.958
REMARK  Name = 
REMARK  6 active torsions:
REMARK  status: ('A' for Active; 'I' for Inactive)
REMARK    1  A    between atoms: S_2  and  N_4
REMARK    2  A    between atoms: S_2  and  N_29
REMARK    3  A    between atoms: N_4  and  C_5
REMARK    4  A    between atoms: C_10  and  N_11
REMARK    5  A    between atoms: N_11  and  C_12
REMARK    6  A    between atoms: C_17  and  C_18
REMARK                            x       y       z     vdW  Elec       q    Type
REMARK                         _______ _______ _______ _____ _____    ______ ____
ROOT
ATOM      1  C   UNL     1       0.828   9.116  19.678  0.00  0.00    +0.000 A 
ATOM      2  C   UNL     1       1.136   9.617  18.417  0.00  0.00    +0.000 A 
ATOM      3  C   UNL     1       2.068   8.949  17.629  0.00  0.00    +0.000 A 
ATOM      4  C   UNL     1       2.709   7.807  18.118  0.00  0.00    +0.000 A 
ATOM      5  F   UNL     1       3.506   7.145  17.263  0.00  0.00    +0.000 F 
ATOM      6  C   UNL     1       2.503   7.342  19.426  0.00  0.00    +0.000 A 
ATOM      7  C   UNL     1       1.491   7.975  20.163  0.00  0.00    +0.000 A 
ATOM      8  F   UNL     1       1.176   7.525  21.390  0.00  0.00    +0.000 F 
ENDROOT
BRANCH   1   9
ATOM      9  N   UNL     1      -0.227   9.730  20.448  0.00  0.00    +0.000 N 
ATOM     10  H   UNL     1      -1.009   9.949  19.831  0.00  0.00    +0.000 HD
BRANCH   9  12
ATOM     11  O   UNL     1      -0.717  11.527  22.205  0.00  0.00    +0.000 OA
ATOM     12  S   UNL     1       0.248  11.181  21.188  0.00  0.00    +0.000 S 
ATOM     13  O   UNL     1       1.659  11.082  21.474  0.00  0.00    +0.000 OA
BRANCH  12  14
ATOM     14  N   UNL     1       0.047  12.256  19.892  0.00  0.00    +0.000 NA
ATOM     15  C   UNL     1       1.156  13.191  19.592  0.00  0.00    +0.000 C 
ATOM     16  C   UNL     1       0.805  14.457  20.347  0.00  0.00    +0.000 C 
ATOM     17  C   UNL     1      -0.707  14.532  20.247  0.00  0.00    +0.000 C 
ATOM     18  C   UNL     1      -1.181  13.101  19.993  0.00  0.00    +0.000 C 
ENDBRANCH  12  14
ENDBRANCH   9  12
ENDBRANCH   1   9
BRANCH   6  19
ATOM     19  N   UNL     1       3.250   6.294  20.023  0.00  0.00    +0.000 N 
ATOM     20  H   UNL     1       3.753   6.578  20.863  0.00  0.00    +0.000 HD
BRANCH  19  21
ATOM     21  C   UNL     1       2.850   4.937  20.108  0.00  0.00    +0.000 A 
ATOM     22  N   UNL     1       1.870   4.633  21.001  0.00  0.00    +0.000 NA
ATOM     23  C   UNL     1       1.400   3.377  21.077  0.00  0.00    +0.000 A 
ATOM     24  C   UNL     1       1.807   2.373  20.235  0.00  0.00    +0.000 A 
ATOM     25  C   UNL     1       2.773   2.682  19.288  0.00  0.00    +0.000 A 
ATOM     26  C   UNL     1       3.332   3.977  19.196  0.00  0.00    +0.000 A 
BRANCH  26  27
ATOM     27  C   UNL     1       4.369   4.256  18.190  0.00  0.00    +0.000 A 
ATOM     28  N   UNL     1       4.083   4.042  16.866  0.00  0.00    +0.000 NA
ATOM     29  C   UNL     1       5.012   4.389  15.944  0.00  0.00    +0.000 A 
ATOM     30  N   UNL     1       6.231   4.926  16.148  0.00  0.00    +0.000 NA
ATOM     31  C   UNL     1       6.464   5.095  17.456  0.00  0.00    +0.000 A 
ATOM     32  N   UNL     1       7.592   5.622  18.018  0.00  0.00    +0.000 N 
ATOM     33  C   UNL     1       7.413   5.628  19.373  0.00  0.00    +0.000 A 
ATOM     34  N   UNL     1       6.240   5.138  19.710  0.00  0.00    +0.000 NA
ATOM     35  C   UNL     1       5.625   4.798  18.518  0.00  0.00    +0.000 A 
ATOM     36  H   UNL     1       8.398   5.955  17.510  0.00  0.00    +0.000 HD
ENDBRANCH  26  27
ENDBRANCH  19  21
ENDBRANCH   6  19
TORSDOF 6
ENDMDL
MODEL 8
REMARK VINA RESULT:      -8.8      1.474      1.743
REMARK  Name = 
REMARK  6 active torsions:
REMARK  status: ('A' for Active; 'I' for Inactive)
REMARK    1  A    between atoms: S_2  and  N_4
REMARK    2  A    between atoms: S_2  and  N_29
REMARK    3  A    between atoms: N_4  and  C_5
REMARK    4  A    between atoms: C_10  and  N_11
REMARK    5  A    between atoms: N_11  and  C_12
REMARK    6  A    between atoms: C_17  and  C_18
REMARK                            x       y       z     vdW  Elec       q    Type
REMARK                         _______ _______ _______ _____ _____    ______ ____
ROOT
ATOM      1  C   UNL     1       1.198   9.274  19.841  0.00  0.00    +0.000 A 
ATOM      2  C   UNL     1       1.469   9.658  18.531  0.00  0.00    +0.000 A 
ATOM      3  C   UNL     1       2.154   8.783  17.694  0.00  0.00    +0.000 A 
ATOM      4  C   UNL     1       2.593   7.547  18.179  0.00  0.00    +0.000 A 
ATOM      5  F   UNL     1       3.141   6.705  17.289  0.00  0.00    +0.000 F 
ATOM      6  C   UNL     1       2.434   7.178  19.525  0.00  0.00    +0.000 A 
ATOM      7  C   UNL     1       1.657   8.035  20.320  0.00  0.00    +0.000 A 
ATOM      8  F   UNL     1       1.387   7.702  21.595  0.00  0.00    +0.000 F 
ENDROOT
BRANCH   1   9
ATOM      9  N   UNL     1       0.380  10.122  20.675  0.00  0.00    +0.000 N 
ATOM     10  H   UNL     1      -0.159   9.541  21.317  0.00  0.00    +0.000 HD
BRANCH   9  12
ATOM     11  O   UNL     1      -1.227  10.267  18.687  0.00  0.00    +0.000 OA
ATOM     12  S   UNL     1      -0.729  11.054  19.791  0.00  0.00    +0.000 S 
ATOM     13  O   UNL     1      -1.613  11.691  20.736  0.00  0.00    +0.000 OA
BRANCH  12  14
ATOM     14  N   UNL     1       0.311  12.235  19.160  0.00  0.00    +0.000 NA
ATOM     15  C   UNL     1       1.127  13.018  20.117  0.00  0.00    +0.000 C 
ATOM     16  C   UNL     1       0.311  14.265  20.387  0.00  0.00    +0.000 C 
ATOM     17  C   UNL     1      -0.346  14.566  19.053  0.00  0.00    +0.000 C 
ATOM     18  C   UNL     1      -0.372  13.241  18.292  0.00  0.00    +0.000 C 
ENDBRANCH  12  14
ENDBRANCH   9  12
ENDBRANCH   1   9
BRANCH   6  19
ATOM     19  N   UNL     1       3.005   6.016  20.102  0.00  0.00    +0.000 N 
ATOM     20  H   UNL     1       3.088   6.063  21.118  0.00  0.00    +0.000 HD
BRANCH  19  21
ATOM     21  C   UNL     1       2.781   4.684  19.675  0.00  0.00    +0.000 A 
ATOM     22  N   UNL     1       1.540   4.165  19.883  0.00  0.00    +0.000 NA
ATOM     23  C   UNL     1       1.247   2.933  19.436  0.00  0.00    +0.000 A 
ATOM     24  C   UNL     1       2.122   2.176  18.698  0.00  0.00    +0.000 A 
ATOM     25  C   UNL     1       3.375   2.713  18.439  0.00  0.00    +0.000 A 
ATOM     26  C   UNL     1       3.749   3.986  18.925  0.00  0.00    +0.000 A 
BRANCH  26  27
ATOM     27  C   UNL     1       5.095   4.510  18.644  0.00  0.00    +0.000 A 
ATOM     28  N   UNL     1       5.826   5.049  19.672  0.00  0.00    +0.000 NA
ATOM     29  C   UNL     1       7.095   5.444  19.419  0.00  0.00    +0.000 A 
ATOM     30  N   UNL     1       7.770   5.391  18.253  0.00  0.00    +0.000 NA
ATOM     31  C   UNL     1       7.005   4.875  17.283  0.00  0.00    +0.000 A 
ATOM     32  N   UNL     1       7.371   4.669  15.984  0.00  0.00    +0.000 N 
ATOM     33  C   UNL     1       6.302   4.114  15.337  0.00  0.00    +0.000 A 
ATOM     34  N   UNL     1       5.276   3.954  16.145  0.00  0.00    +0.000 NA
ATOM     35  C   UNL     1       5.697   4.424  17.376  0.00  0.00    +0.000 A 
ATOM     36  H   UNL     1       8.276   4.881  15.590  0.00  0.00    +0.000 HD
ENDBRANCH  26  27
ENDBRANCH  19  21
ENDBRANCH   6  19
TORSDOF 6
ENDMDL
MODEL 9
REMARK VINA RESULT:      -8.8      1.091      1.818
REMARK  Name = 
REMARK  6 active torsions:
REMARK  status: ('A' for Active; 'I' for Inactive)
REMARK    1  A    between atoms: S_2  and  N_4
REMARK    2  A    between atoms: S_2  and  N_29
REMARK    3  A    between atoms: N_4  and  C_5
REMARK    4  A    between atoms: C_10  and  N_11
REMARK    5  A    between atoms: N_11  and  C_12
REMARK    6  A    between atoms: C_17  and  C_18
REMARK                            x       y       z     vdW  Elec       q    Type
REMARK                         _______ _______ _______ _____ _____    ______ ____
ROOT
ATOM      1  C   UNL     1       0.485   9.416  20.230  0.00  0.00    +0.000 A 
ATOM      2  C   UNL     1       0.503  10.002  18.968  0.00  0.00    +0.000 A 
ATOM      3  C   UNL     1       1.287   9.436  17.968  0.00  0.00    +0.000 A 
ATOM      4  C   UNL     1       2.072   8.312  18.243  0.00  0.00    +0.000 A 
ATOM      5  F   UNL     1       2.710   7.749  17.205  0.00  0.00    +0.000 F 
ATOM      6  C   UNL     1       2.162   7.767  19.533  0.00  0.00    +0.000 A 
ATOM      7  C   UNL     1       1.290   8.296  20.497  0.00  0.00    +0.000 A 
ATOM      8  F   UNL     1       1.256   7.762  21.732  0.00  0.00    +0.000 F 
ENDROOT
BRANCH   1   9
ATOM      9  N   UNL     1      -0.421   9.921  21.235  0.00  0.00    +0.000 N 
ATOM     10  H   UNL     1      -1.374   9.891  20.872  0.00  0.00    +0.000 HD
BRANCH   9  12
ATOM     11  O   UNL     1      -0.551  11.747  23.026  0.00  0.00    +0.000 OA
ATOM     12  S   UNL     1      -0.100  11.529  21.671  0.00  0.00    +0.000 S 
ATOM     13  O   UNL     1       1.249  11.831  21.257  0.00  0.00    +0.000 OA
BRANCH  12  14
ATOM     14  N   UNL     1      -1.166  12.338  20.631  0.00  0.00    +0.000 NA
ATOM     15  C   UNL     1      -0.637  13.486  19.858  0.00  0.00    +0.000 C 
ATOM     16  C   UNL     1      -0.965  14.701  20.702  0.00  0.00    +0.000 C 
ATOM     17  C   UNL     1      -2.308  14.362  21.320  0.00  0.00    +0.000 C 
ATOM     18  C   UNL     1      -2.404  12.837  21.302  0.00  0.00    +0.000 C 
ENDBRANCH  12  14
ENDBRANCH   9  12
ENDBRANCH   1   9
BRANCH   6  19
ATOM     19  N   UNL     1       3.067   6.738  19.899  0.00  0.00    +0.000 N 
ATOM     20  H   UNL     1       3.608   6.949  20.738  0.00  0.00    +0.000 HD
BRANCH  19  21
ATOM     21  C   UNL     1       2.826   5.346  19.789  0.00  0.00    +0.000 A 
ATOM     22  N   UNL     1       1.801   4.834  20.523  0.00  0.00    +0.000 NA
ATOM     23  C   UNL     1       1.481   3.535  20.407  0.00  0.00    +0.000 A 
ATOM     24  C   UNL     1       2.090   2.689  19.515  0.00  0.00    +0.000 A 
ATOM     25  C   UNL     1       3.105   3.212  18.727  0.00  0.00    +0.000 A 
ATOM     26  C   UNL     1       3.512   4.560  18.842  0.00  0.00    +0.000 A 
BRANCH  26  27
ATOM     27  C   UNL     1       4.606   5.068  18.000  0.00  0.00    +0.000 A 
ATOM     28  N   UNL     1       4.359   5.331  16.677  0.00  0.00    +0.000 NA
ATOM     29  C   UNL     1       5.348   5.883  15.936  0.00  0.00    +0.000 A 
ATOM     30  N   UNL     1       6.595   6.216  16.324  0.00  0.00    +0.000 NA
ATOM     31  C   UNL     1       6.788   5.921  17.616  0.00  0.00    +0.000 A 
ATOM     32  N   UNL     1       7.929   6.133  18.335  0.00  0.00    +0.000 N 
ATOM     33  C   UNL     1       7.696   5.704  19.612  0.00  0.00    +0.000 A 
ATOM     34  N   UNL     1       6.476   5.231  19.751  0.00  0.00    +0.000 NA
ATOM     35  C   UNL     1       5.886   5.360  18.506  0.00  0.00    +0.000 A 
ATOM     36  H   UNL     1       8.777   6.546  17.978  0.00  0.00    +0.000 HD
ENDBRANCH  26  27
ENDBRANCH  19  21
ENDBRANCH   6  19
TORSDOF 6
ENDMDL
