MODEL 1
REMARK VINA RESULT:      -9.6      0.000      0.000
REMARK  Name = 
REMARK  6 active torsions:
REMARK  status: ('A' for Active; 'I' for Inactive)
REMARK    1  A    between atoms: C_2  and  C_17
REMARK    2  A    between atoms: N_3  and  C_4
REMARK    3  A    between atoms: C_4  and  C_5
REMARK    4  A    between atoms: C_5  and  N_6
REMARK    5  A    between atoms: C_21  and  S_22
REMARK    6  A    between atoms: S_22  and  N_25
REMARK                            x       y       z     vdW  Elec       q    Type
REMARK                         _______ _______ _______ _____ _____    ______ ____
ROOT
ATOM      1  C   UNL     1       1.225   9.288  19.296  0.00  0.00    +0.000 A 
ATOM      2  C   UNL     1       1.061   8.776  20.596  0.00  0.00    +0.000 A 
ATOM      3  C   UNL     1       0.236   9.416  21.529  0.00  0.00    +0.000 A 
ATOM      4  C   UNL     1      -0.450  10.572  21.174  0.00  0.00    +0.000 A 
ATOM      5  C   UNL     1      -0.332  11.069  19.871  0.00  0.00    +0.000 A 
ATOM      6  C   UNL     1       0.520  10.446  18.936  0.00  0.00    +0.000 A 
ENDROOT
BRANCH   1   8
ATOM      7  O   UNL     1       2.370   9.030  17.259  0.00  0.00    +0.000 OA
ATOM      8  C   UNL     1       2.093   8.527  18.344  0.00  0.00    +0.000 C 
ATOM      9  N   UNL     1       2.487   7.244  18.699  0.00  0.00    +0.000 N 
ATOM     10  H   UNL     1       2.036   6.802  19.490  0.00  0.00    +0.000 HD
BRANCH   9  11
ATOM     11  C   UNL     1       3.242   6.369  17.769  0.00  0.00    +0.000 C 
BRANCH  11  12
ATOM     12  C   UNL     1       3.663   4.951  18.364  0.00  0.00    +0.000 C 
ATOM     13  C   UNL     1       3.417   4.894  19.911  0.00  0.00    +0.000 C 
ATOM     14  C   UNL     1       1.988   4.808  20.431  0.00  0.00    +0.000 C 
ATOM     15  C   UNL     1       1.222   3.698  19.735  0.00  0.00    +0.000 C 
ATOM     16  C   UNL     1       1.263   3.920  18.233  0.00  0.00    +0.000 C 
ATOM     17  C   UNL     1       2.712   3.885  17.706  0.00  0.00    +0.000 C 
BRANCH  12  18
ATOM     18  N   UNL     1       5.102   4.601  18.011  0.00  0.00    +0.000 NA
ATOM     19  C   UNL     1       6.147   5.608  18.362  0.00  0.00    +0.000 C 
ATOM     20  C   UNL     1       6.342   6.775  17.344  0.00  0.00    +0.000 C 
ATOM     21  O   UNL     1       6.495   6.313  15.997  0.00  0.00    +0.000 OA
ATOM     22  C   UNL     1       5.444   5.413  15.632  0.00  0.00    +0.000 C 
ATOM     23  C   UNL     1       5.397   4.229  16.602  0.00  0.00    +0.000 C 
ENDBRANCH  12  18
ENDBRANCH  11  12
ENDBRANCH   9  11
ENDBRANCH   1   8
BRANCH   5  24
ATOM     24  S   UNL     1      -1.250  12.537  19.424  0.00  0.00    +0.000 S 
ATOM     25  O   UNL     1      -1.227  13.412  20.564  0.00  0.00    +0.000 OA
ATOM     26  O   UNL     1      -0.732  12.965  18.139  0.00  0.00    +0.000 OA
BRANCH  24  27
ATOM     27  N   UNL     1      -2.832  12.009  19.165  0.00  0.00    +0.000 NA
ATOM     28  C   UNL     1      -3.295  11.638  17.807  0.00  0.00    +0.000 C 
ATOM     29  C   UNL     1      -4.601  10.812  17.907  0.00  0.00    +0.000 C 
ATOM     30  C   UNL     1      -5.655  11.736  18.471  0.00  0.00    +0.000 A 
ATOM     31  C   UNL     1      -6.953  11.775  17.962  0.00  0.00    +0.000 A 
ATOM     32  C   UNL     1      -7.733  12.906  18.191  0.00  0.00    +0.000 A 
ATOM     33  C   UNL     1      -7.216  13.976  18.929  0.00  0.00    +0.000 A 
ATOM     34  C   UNL     1      -5.977  13.862  19.563  0.00  0.00    +0.000 A 
ATOM     35  C   UNL     1      -5.212  12.713  19.384  0.00  0.00    +0.000 A 
ATOM     36  C   UNL     1      -3.886  12.489  20.081  0.00  0.00    +0.000 C 
ENDBRANCH  24  27
ENDBRANCH   5  24
TORSDOF 6
ENDMDL
MODEL 2
REMARK VINA RESULT:      -9.4      2.464      3.494
REMARK  Name = 
REMARK  6 active torsions:
REMARK  status: ('A' for Active; 'I' for Inactive)
REMARK    1  A    between atoms: C_2  and  C_17
REMARK    2  A    between atoms: N_3  and  C_4
REMARK    3  A    between atoms: C_4  and  C_5
REMARK    4  A    between atoms: C_5  and  N_6
REMARK    5  A    between atoms: C_21  and  S_22
REMARK    6  A    between atoms: S_22  and  N_25
REMARK                            x       y       z     vdW  Elec       q    Type
REMARK                         _______ _______ _______ _____ _____    ______ ____
ROOT
ATOM      1  C   UNL     1       1.461   8.738  19.514  0.00  0.00    +0.000 A 
ATOM      2  C   UNL     1       1.346   8.081  20.752  0.00  0.00    +0.000 A 
ATOM      3  C   UNL     1       0.553   8.605  21.781  0.00  0.00    +0.000 A 
ATOM      4  C   UNL     1      -0.149   9.788  21.584  0.00  0.00    +0.000 A 
ATOM      5  C   UNL     1      -0.080  10.431  20.343  0.00  0.00    +0.000 A 
ATOM      6  C   UNL     1       0.739   9.925  19.313  0.00  0.00    +0.000 A 
ENDROOT
BRANCH   1   8
ATOM      7  O   UNL     1       2.306   8.587  17.326  0.00  0.00    +0.000 OA
ATOM      8  C   UNL     1       2.296   8.097  18.451  0.00  0.00    +0.000 C 
ATOM      9  N   UNL     1       2.969   6.924  18.765  0.00  0.00    +0.000 N 
ATOM     10  H   UNL     1       2.734   6.449  19.627  0.00  0.00    +0.000 HD
BRANCH   9  11
ATOM     11  C   UNL     1       3.719   6.151  17.745  0.00  0.00    +0.000 C 
BRANCH  11  12
ATOM     12  C   UNL     1       3.932   4.608  18.085  0.00  0.00    +0.000 C 
ATOM     13  C   UNL     1       3.678   4.326  19.606  0.00  0.00    +0.000 C 
ATOM     14  C   UNL     1       2.249   4.356  20.136  0.00  0.00    +0.000 C 
ATOM     15  C   UNL     1       1.334   3.499  19.280  0.00  0.00    +0.000 C 
ATOM     16  C   UNL     1       1.409   3.964  17.836  0.00  0.00    +0.000 C 
ATOM     17  C   UNL     1       2.839   3.814  17.278  0.00  0.00    +0.000 C 
BRANCH  12  18
ATOM     18  N   UNL     1       5.307   4.123  17.645  0.00  0.00    +0.000 NA
ATOM     19  C   UNL     1       6.485   4.890  18.149  0.00  0.00    +0.000 C 
ATOM     20  C   UNL     1       6.853   6.180  17.350  0.00  0.00    +0.000 C 
ATOM     21  O   UNL     1       6.945   5.948  15.940  0.00  0.00    +0.000 OA
ATOM     22  C   UNL     1       5.776   5.289  15.442  0.00  0.00    +0.000 C 
ATOM     23  C   UNL     1       5.553   3.970  16.187  0.00  0.00    +0.000 C 
ENDBRANCH  12  18
ENDBRANCH  11  12
ENDBRANCH   9  11
ENDBRANCH   1   8
BRANCH   5  24
ATOM     24  S   UNL     1      -1.019  11.933  20.098  0.00  0.00    +0.000 S 
ATOM     25  O   UNL     1      -0.082  12.961  19.736  0.00  0.00    +0.000 OA
ATOM     26  O   UNL     1      -2.125  11.586  19.228  0.00  0.00    +0.000 OA
BRANCH  24  27
ATOM     27  N   UNL     1      -1.678  12.296  21.609  0.00  0.00    +0.000 NA
ATOM     28  C   UNL     1      -3.116  12.627  21.751  0.00  0.00    +0.000 C 
ATOM     29  C   UNL     1      -3.538  12.502  23.235  0.00  0.00    +0.000 C 
ATOM     30  C   UNL     1      -2.785  13.572  23.990  0.00  0.00    +0.000 A 
ATOM     31  C   UNL     1      -3.397  14.356  24.968  0.00  0.00    +0.000 A 
ATOM     32  C   UNL     1      -2.826  15.579  25.306  0.00  0.00    +0.000 A 
ATOM     33  C   UNL     1      -1.651  16.002  24.677  0.00  0.00    +0.000 A 
ATOM     34  C   UNL     1      -0.964  15.143  23.815  0.00  0.00    +0.000 A 
ATOM     35  C   UNL     1      -1.500  13.894  23.512  0.00  0.00    +0.000 A 
ATOM     36  C   UNL     1      -0.792  12.885  22.634  0.00  0.00    +0.000 C 
ENDBRANCH  24  27
ENDBRANCH   5  24
TORSDOF 6
ENDMDL
MODEL 3
REMARK VINA RESULT:      -9.4      3.421      4.813
REMARK  Name = 
REMARK  6 active torsions:
REMARK  status: ('A' for Active; 'I' for Inactive)
REMARK    1  A    between atoms: C_2  and  C_17
REMARK    2  A    between atoms: N_3  and  C_4
REMARK    3  A    between atoms: C_4  and  C_5
REMARK    4  A    between atoms: C_5  and  N_6
REMARK    5  A    between atoms: C_21  and  S_22
REMARK    6  A    between atoms: S_22  and  N_25
REMARK                            x       y       z     vdW  Elec       q    Type
REMARK                         _______ _______ _______ _____ _____    ______ ____
ROOT
ATOM      1  C   UNL     1       1.772   8.217  19.475  0.00  0.00    +0.000 A 
ATOM      2  C   UNL     1       1.946   8.689  18.161  0.00  0.00    +0.000 A 
ATOM      3  C   UNL     1       1.479   9.952  17.775  0.00  0.00    +0.000 A 
ATOM      4  C   UNL     1       0.842  10.770  18.701  0.00  0.00    +0.000 A 
ATOM      5  C   UNL     1       0.700  10.334  20.022  0.00  0.00    +0.000 A 
ATOM      6  C   UNL     1       1.141   9.051  20.410  0.00  0.00    +0.000 A 
ENDROOT
BRANCH   1   8
ATOM      7  O   UNL     1       1.869   6.266  20.782  0.00  0.00    +0.000 OA
ATOM      8  C   UNL     1       2.331   6.874  19.821  0.00  0.00    +0.000 C 
ATOM      9  N   UNL     1       3.407   6.402  19.081  0.00  0.00    +0.000 N 
ATOM     10  H   UNL     1       3.887   7.044  18.463  0.00  0.00    +0.000 HD
BRANCH   9  11
ATOM     11  C   UNL     1       4.106   5.141  19.428  0.00  0.00    +0.000 C 
BRANCH  11  12
ATOM     12  C   UNL     1       4.070   4.013  18.302  0.00  0.00    +0.000 C 
ATOM     13  C   UNL     1       3.840   2.596  18.933  0.00  0.00    +0.000 C 
ATOM     14  C   UNL     1       2.464   2.244  19.482  0.00  0.00    +0.000 C 
ATOM     15  C   UNL     1       1.378   2.551  18.466  0.00  0.00    +0.000 C 
ATOM     16  C   UNL     1       1.466   4.011  18.058  0.00  0.00    +0.000 C 
ATOM     17  C   UNL     1       2.823   4.322  17.394  0.00  0.00    +0.000 C 
BRANCH  12  18
ATOM     18  N   UNL     1       5.321   4.046  17.436  0.00  0.00    +0.000 NA
ATOM     19  C   UNL     1       6.530   4.701  18.020  0.00  0.00    +0.000 C 
ATOM     20  C   UNL     1       6.589   6.257  17.899  0.00  0.00    +0.000 C 
ATOM     21  O   UNL     1       6.340   6.716  16.566  0.00  0.00    +0.000 OA
ATOM     22  C   UNL     1       5.135   6.155  16.038  0.00  0.00    +0.000 C 
ATOM     23  C   UNL     1       5.203   4.625  16.072  0.00  0.00    +0.000 C 
ENDBRANCH  12  18
ENDBRANCH  11  12
ENDBRANCH   9  11
ENDBRANCH   1   8
BRANCH   5  24
ATOM     24  S   UNL     1      -0.092  11.416  21.206  0.00  0.00    +0.000 S 
ATOM     25  O   UNL     1      -1.497  11.413  20.906  0.00  0.00    +0.000 OA
ATOM     26  O   UNL     1       0.398  11.019  22.512  0.00  0.00    +0.000 OA
BRANCH  24  27
ATOM     27  N   UNL     1       0.536  12.951  20.893  0.00  0.00    +0.000 NA
ATOM     28  C   UNL     1      -0.301  13.999  20.261  0.00  0.00    +0.000 C 
ATOM     29  C   UNL     1       0.352  15.387  20.469  0.00  0.00    +0.000 C 
ATOM     30  C   UNL     1       1.653  15.371  19.701  0.00  0.00    +0.000 A 
ATOM     31  C   UNL     1       2.067  16.453  18.925  0.00  0.00    +0.000 A 
ATOM     32  C   UNL     1       3.002  16.241  17.916  0.00  0.00    +0.000 A 
ATOM     33  C   UNL     1       3.521  14.961  17.700  0.00  0.00    +0.000 A 
ATOM     34  C   UNL     1       3.218  13.919  18.579  0.00  0.00    +0.000 A 
ATOM     35  C   UNL     1       2.324  14.134  19.625  0.00  0.00    +0.000 A 
ATOM     36  C   UNL     1       1.987  13.076  20.653  0.00  0.00    +0.000 C 
ENDBRANCH  24  27
ENDBRANCH   5  24
TORSDOF 6
ENDMDL
MODEL 4
REMARK VINA RESULT:      -9.4      3.130      4.149
REMARK  Name = 
REMARK  6 active torsions:
REMARK  status: ('A' for Active; 'I' for Inactive)
REMARK    1  A    between atoms: C_2  and  C_17
REMARK    2  A    between atoms: N_3  and  C_4
REMARK    3  A    between atoms: C_4  and  C_5
REMARK    4  A    between atoms: C_5  and  N_6
REMARK    5  A    between atoms: C_21  and  S_22
REMARK    6  A    between atoms: S_22  and  N_25
REMARK                            x       y       z     vdW  Elec       q    Type
REMARK                         _______ _______ _______ _____ _____    ______ ____
ROOT
ATOM      1  C   UNL     1       1.109   9.008  20.135  0.00  0.00    +0.000 A 
ATOM      2  C   UNL     1       0.791   8.171  21.220  0.00  0.00    +0.000 A 
ATOM      3  C   UNL     1       0.077   8.653  22.324  0.00  0.00    +0.000 A 
ATOM      4  C   UNL     1      -0.343   9.978  22.356  0.00  0.00    +0.000 A 
ATOM      5  C   UNL     1      -0.074  10.811  21.265  0.00  0.00    +0.000 A 
ATOM      6  C   UNL     1       0.671  10.341  20.164  0.00  0.00    +0.000 A 
ENDROOT
BRANCH   1   8
ATOM      7  O   UNL     1       1.697   8.906  17.861  0.00  0.00    +0.000 OA
ATOM      8  C   UNL     1       1.841   8.411  18.975  0.00  0.00    +0.000 C 
ATOM      9  N   UNL     1       2.599   7.269  19.196  0.00  0.00    +0.000 N 
ATOM     10  H   UNL     1       2.489   6.779  20.076  0.00  0.00    +0.000 HD
BRANCH   9  11
ATOM     11  C   UNL     1       3.257   6.536  18.088  0.00  0.00    +0.000 C 
BRANCH  11  12
ATOM     12  C   UNL     1       3.664   5.030  18.418  0.00  0.00    +0.000 C 
ATOM     13  C   UNL     1       3.349   4.677  19.912  0.00  0.00    +0.000 C 
ATOM     14  C   UNL     1       1.899   4.491  20.340  0.00  0.00    +0.000 C 
ATOM     15  C   UNL     1       1.175   3.536  19.408  0.00  0.00    +0.000 C 
ATOM     16  C   UNL     1       1.282   4.043  17.981  0.00  0.00    +0.000 C 
ATOM     17  C   UNL     1       2.753   4.110  17.524  0.00  0.00    +0.000 C 
BRANCH  12  18
ATOM     18  N   UNL     1       5.121   4.755  18.070  0.00  0.00    +0.000 NA
ATOM     19  C   UNL     1       6.098   5.851  18.343  0.00  0.00    +0.000 C 
ATOM     20  C   UNL     1       6.205   6.959  17.248  0.00  0.00    +0.000 C 
ATOM     21  O   UNL     1       6.378   6.421  15.933  0.00  0.00    +0.000 OA
ATOM     22  C   UNL     1       5.388   5.431  15.639  0.00  0.00    +0.000 C 
ATOM     23  C   UNL     1       5.430   4.312  16.685  0.00  0.00    +0.000 C 
ENDBRANCH  12  18
ENDBRANCH  11  12
ENDBRANCH   9  11
ENDBRANCH   1   8
BRANCH   5  24
ATOM     24  S   UNL     1      -0.653  12.503  21.310  0.00  0.00    +0.000 S 
ATOM     25  O   UNL     1      -2.006  12.499  20.825  0.00  0.00    +0.000 OA
ATOM     26  O   UNL     1      -0.330  13.009  22.630  0.00  0.00    +0.000 OA
BRANCH  24  27
ATOM     27  N   UNL     1       0.323  13.335  20.214  0.00  0.00    +0.000 NA
ATOM     28  C   UNL     1       1.603  13.945  20.647  0.00  0.00    +0.000 C 
ATOM     29  C   UNL     1       2.477  14.264  19.409  0.00  0.00    +0.000 C 
ATOM     30  C   UNL     1       1.747  15.332  18.628  0.00  0.00    +0.000 A 
ATOM     31  C   UNL     1       2.411  16.427  18.077  0.00  0.00    +0.000 A 
ATOM     32  C   UNL     1       1.681  17.573  17.770  0.00  0.00    +0.000 A 
ATOM     33  C   UNL     1       0.303  17.610  18.005  0.00  0.00    +0.000 A 
ATOM     34  C   UNL     1      -0.374  16.458  18.410  0.00  0.00    +0.000 A 
ATOM     35  C   UNL     1       0.340  15.290  18.669  0.00  0.00    +0.000 A 
ATOM     36  C   UNL     1      -0.324  13.987  19.057  0.00  0.00    +0.000 C 
ENDBRANCH  24  27
ENDBRANCH   5  24
TORSDOF 6
ENDMDL
MODEL 5
REMARK VINA RESULT:      -9.3      1.444      2.848
REMARK  Name = 
REMARK  6 active torsions:
REMARK  status: ('A' for Active; 'I' for Inactive)
REMARK    1  A    between atoms: C_2  and  C_17
REMARK    2  A    between atoms: N_3  and  C_4
REMARK    3  A    between atoms: C_4  and  C_5
REMARK    4  A    between atoms: C_5  and  N_6
REMARK    5  A    between atoms: C_21  and  S_22
REMARK    6  A    between atoms: S_22  and  N_25
REMARK                            x       y       z     vdW  Elec       q    Type
REMARK                         _______ _______ _______ _____ _____    ______ ____
ROOT
ATOM      1  C   UNL     1       1.449   9.033  19.288  0.00  0.00    +0.000 A 
ATOM      2  C   UNL     1       1.262   8.463  20.561  0.00  0.00    +0.000 A 
ATOM      3  C   UNL     1       0.432   9.068  21.512  0.00  0.00    +0.000 A 
ATOM      4  C   UNL     1      -0.236  10.248  21.202  0.00  0.00    +0.000 A 
ATOM      5  C   UNL     1      -0.094  10.804  19.926  0.00  0.00    +0.000 A 
ATOM      6  C   UNL     1       0.764  10.216  18.973  0.00  0.00    +0.000 A 
ENDROOT
BRANCH   1   8
ATOM      7  O   UNL     1       2.468   8.771  17.186  0.00  0.00    +0.000 OA
ATOM      8  C   UNL     1       2.321   8.307  18.313  0.00  0.00    +0.000 C 
ATOM      9  N   UNL     1       2.870   7.092  18.702  0.00  0.00    +0.000 N 
ATOM     10  H   UNL     1       2.523   6.654  19.547  0.00  0.00    +0.000 HD
BRANCH   9  11
ATOM     11  C   UNL     1       3.642   6.242  17.764  0.00  0.00    +0.000 C 
BRANCH  11  12
ATOM     12  C   UNL     1       4.327   4.959  18.417  0.00  0.00    +0.000 C 
ATOM     13  C   UNL     1       4.808   3.955  17.314  0.00  0.00    +0.000 C 
ATOM     14  C   UNL     1       6.027   4.309  16.471  0.00  0.00    +0.000 C 
ATOM     15  C   UNL     1       7.193   4.727  17.349  0.00  0.00    +0.000 C 
ATOM     16  C   UNL     1       6.768   5.882  18.238  0.00  0.00    +0.000 C 
ATOM     17  C   UNL     1       5.611   5.468  19.171  0.00  0.00    +0.000 C 
BRANCH  12  18
ATOM     18  N   UNL     1       3.407   4.287  19.427  0.00  0.00    +0.000 NA
ATOM     19  C   UNL     1       3.709   2.866  19.774  0.00  0.00    +0.000 C 
ATOM     20  C   UNL     1       3.159   1.790  18.785  0.00  0.00    +0.000 C 
ATOM     21  O   UNL     1       1.770   1.971  18.490  0.00  0.00    +0.000 OA
ATOM     22  C   UNL     1       1.495   3.313  18.074  0.00  0.00    +0.000 C 
ATOM     23  C   UNL     1       1.947   4.304  19.151  0.00  0.00    +0.000 C 
ENDBRANCH  12  18
ENDBRANCH  11  12
ENDBRANCH   9  11
ENDBRANCH   1   8
BRANCH   5  24
ATOM     24  S   UNL     1      -0.988  12.303  19.536  0.00  0.00    +0.000 S 
ATOM     25  O   UNL     1      -0.971  13.123  20.716  0.00  0.00    +0.000 OA
ATOM     26  O   UNL     1      -0.448  12.784  18.279  0.00  0.00    +0.000 OA
BRANCH  24  27
ATOM     27  N   UNL     1      -2.572  11.808  19.231  0.00  0.00    +0.000 NA
ATOM     28  C   UNL     1      -3.016  11.485  17.854  0.00  0.00    +0.000 C 
ATOM     29  C   UNL     1      -4.335  10.677  17.905  0.00  0.00    +0.000 C 
ATOM     30  C   UNL     1      -5.386  11.599  18.478  0.00  0.00    +0.000 A 
ATOM     31  C   UNL     1      -6.673  11.674  17.946  0.00  0.00    +0.000 A 
ATOM     32  C   UNL     1      -7.440  12.809  18.195  0.00  0.00    +0.000 A 
ATOM     33  C   UNL     1      -6.922  13.847  18.975  0.00  0.00    +0.000 A 
ATOM     34  C   UNL     1      -5.697  13.696  19.628  0.00  0.00    +0.000 A 
ATOM     35  C   UNL     1      -4.945  12.541  19.428  0.00  0.00    +0.000 A 
ATOM     36  C   UNL     1      -3.637  12.275  20.142  0.00  0.00    +0.000 C 
ENDBRANCH  24  27
ENDBRANCH   5  24
TORSDOF 6
ENDMDL
MODEL 6
REMARK VINA RESULT:      -9.3      2.875      4.466
REMARK  Name = 
REMARK  6 active torsions:
REMARK  status: ('A' for Active; 'I' for Inactive)
REMARK    1  A    between atoms: C_2  and  C_17
REMARK    2  A    between atoms: N_3  and  C_4
REMARK    3  A    between atoms: C_4  and  C_5
REMARK    4  A    between atoms: C_5  and  N_6
REMARK    5  A    between atoms: C_21  and  S_22
REMARK    6  A    between atoms: S_22  and  N_25
REMARK                            x       y       z     vdW  Elec       q    Type
REMARK                         _______ _______ _______ _____ _____    ______ ____
ROOT
ATOM      1  C   UNL     1       1.380   9.012  19.434  0.00  0.00    +0.000 A 
ATOM      2  C   UNL     1       1.259   8.297  20.639  0.00  0.00    +0.000 A 
ATOM      3  C   UNL     1       0.424   8.745  21.669  0.00  0.00    +0.000 A 
ATOM      4  C   UNL     1      -0.316   9.911  21.506  0.00  0.00    +0.000 A 
ATOM      5  C   UNL     1      -0.241  10.610  20.296  0.00  0.00    +0.000 A 
ATOM      6  C   UNL     1       0.621  10.181  19.267  0.00  0.00    +0.000 A 
ENDROOT
BRANCH   1   8
ATOM      7  O   UNL     1       2.272   8.979  17.259  0.00  0.00    +0.000 OA
ATOM      8  C   UNL     1       2.264   8.449  18.366  0.00  0.00    +0.000 C 
ATOM      9  N   UNL     1       2.984   7.297  18.651  0.00  0.00    +0.000 N 
ATOM     10  H   UNL     1       2.755   6.780  19.491  0.00  0.00    +0.000 HD
BRANCH   9  11
ATOM     11  C   UNL     1       3.787   6.597  17.620  0.00  0.00    +0.000 C 
BRANCH  11  12
ATOM     12  C   UNL     1       4.235   5.114  17.999  0.00  0.00    +0.000 C 
ATOM     13  C   UNL     1       4.677   4.316  16.724  0.00  0.00    +0.000 C 
ATOM     14  C   UNL     1       6.003   4.661  16.058  0.00  0.00    +0.000 C 
ATOM     15  C   UNL     1       7.130   4.697  17.074  0.00  0.00    +0.000 C 
ATOM     16  C   UNL     1       6.782   5.679  18.180  0.00  0.00    +0.000 C 
ATOM     17  C   UNL     1       5.502   5.248  18.923  0.00  0.00    +0.000 C 
BRANCH  12  18
ATOM     18  N   UNL     1       3.147   4.382  18.772  0.00  0.00    +0.000 NA
ATOM     19  C   UNL     1       3.590   3.521  19.909  0.00  0.00    +0.000 C 
ATOM     20  C   UNL     1       4.075   2.086  19.531  0.00  0.00    +0.000 C 
ATOM     21  O   UNL     1       3.150   1.396  18.684  0.00  0.00    +0.000 OA
ATOM     22  C   UNL     1       2.791   2.188  17.548  0.00  0.00    +0.000 C 
ATOM     23  C   UNL     1       2.205   3.529  18.000  0.00  0.00    +0.000 C 
ENDBRANCH  12  18
ENDBRANCH  11  12
ENDBRANCH   9  11
ENDBRANCH   1   8
BRANCH   5  24
ATOM     24  S   UNL     1      -1.227  12.089  20.093  0.00  0.00    +0.000 S 
ATOM     25  O   UNL     1      -0.351  13.115  19.600  0.00  0.00    +0.000 OA
ATOM     26  O   UNL     1      -2.410  11.692  19.355  0.00  0.00    +0.000 OA
BRANCH  24  27
ATOM     27  N   UNL     1      -1.735  12.499  21.649  0.00  0.00    +0.000 NA
ATOM     28  C   UNL     1      -3.167  12.749  21.939  0.00  0.00    +0.000 C 
ATOM     29  C   UNL     1      -3.411  12.688  23.467  0.00  0.00    +0.000 C 
ATOM     30  C   UNL     1      -2.653  13.845  24.073  0.00  0.00    +0.000 A 
ATOM     31  C   UNL     1      -3.203  14.647  25.072  0.00  0.00    +0.000 A 
ATOM     32  C   UNL     1      -2.682  15.922  25.277  0.00  0.00    +0.000 A 
ATOM     33  C   UNL     1      -1.617  16.377  24.495  0.00  0.00    +0.000 A 
ATOM     34  C   UNL     1      -0.974  15.513  23.606  0.00  0.00    +0.000 A 
ATOM     35  C   UNL     1      -1.455  14.217  23.432  0.00  0.00    +0.000 A 
ATOM     36  C   UNL     1      -0.783  13.202  22.532  0.00  0.00    +0.000 C 
ENDBRANCH  24  27
ENDBRANCH   5  24
TORSDOF 6
ENDMDL
MODEL 7
REMARK VINA RESULT:      -9.3      1.830      2.306
REMARK  Name = 
REMARK  6 active torsions:
REMARK  status: ('A' for Active; 'I' for Inactive)
REMARK    1  A    between atoms: C_2  and  C_17
REMARK    2  A    between atoms: N_3  and  C_4
REMARK    3  A    between atoms: C_4  and  C_5
REMARK    4  A    between atoms: C_5  and  N_6
REMARK    5  A    between atoms: C_21  and  S_22
REMARK    6  A    between atoms: S_22  and  N_25
REMARK                            x       y       z     vdW  Elec       q    Type
REMARK                         _______ _______ _______ _____ _____    ______ ____
ROOT
ATOM      1  C   UNL     1       0.770   9.530  20.465  0.00  0.00    +0.000 A 
ATOM      2  C   UNL     1       0.661   8.733  21.619  0.00  0.00    +0.000 A 
ATOM      3  C   UNL     1       0.031   9.211  22.774  0.00  0.00    +0.000 A 
ATOM      4  C   UNL     1      -0.514  10.490  22.790  0.00  0.00    +0.000 A 
ATOM      5  C   UNL     1      -0.453  11.278  21.636  0.00  0.00    +0.000 A 
ATOM      6  C   UNL     1       0.207  10.815  20.479  0.00  0.00    +0.000 A 
ENDROOT
BRANCH   1   8
ATOM      7  O   UNL     1       1.292   9.495  18.173  0.00  0.00    +0.000 OA
ATOM      8  C   UNL     1       1.424   8.935  19.257  0.00  0.00    +0.000 C 
ATOM      9  N   UNL     1       2.092   7.727  19.402  0.00  0.00    +0.000 N 
ATOM     10  H   UNL     1       1.964   7.204  20.260  0.00  0.00    +0.000 HD
BRANCH   9  11
ATOM     11  C   UNL     1       2.663   7.000  18.242  0.00  0.00    +0.000 C 
BRANCH  11  12
ATOM     12  C   UNL     1       3.403   5.633  18.595  0.00  0.00    +0.000 C 
ATOM     13  C   UNL     1       3.113   5.202  20.074  0.00  0.00    +0.000 C 
ATOM     14  C   UNL     1       1.731   4.670  20.433  0.00  0.00    +0.000 C 
ATOM     15  C   UNL     1       1.302   3.577  19.470  0.00  0.00    +0.000 C 
ATOM     16  C   UNL     1       1.350   4.108  18.048  0.00  0.00    +0.000 C 
ATOM     17  C   UNL     1       2.783   4.530  17.661  0.00  0.00    +0.000 C 
BRANCH  12  18
ATOM     18  N   UNL     1       4.898   5.719  18.318  0.00  0.00    +0.000 NA
ATOM     19  C   UNL     1       5.342   6.741  17.324  0.00  0.00    +0.000 C 
ATOM     20  C   UNL     1       5.242   6.323  15.823  0.00  0.00    +0.000 C 
ATOM     21  O   UNL     1       5.842   5.048  15.564  0.00  0.00    +0.000 OA
ATOM     22  C   UNL     1       5.350   4.049  16.462  0.00  0.00    +0.000 C 
ATOM     23  C   UNL     1       5.599   4.472  17.914  0.00  0.00    +0.000 C 
ENDBRANCH  12  18
ENDBRANCH  11  12
ENDBRANCH   9  11
ENDBRANCH   1   8
BRANCH   5  24
ATOM     24  S   UNL     1      -1.190  12.908  21.666  0.00  0.00    +0.000 S 
ATOM     25  O   UNL     1      -0.851  13.501  22.930  0.00  0.00    +0.000 OA
ATOM     26  O   UNL     1      -0.824  13.544  20.416  0.00  0.00    +0.000 OA
BRANCH  24  27
ATOM     27  N   UNL     1      -2.856  12.642  21.612  0.00  0.00    +0.000 NA
ATOM     28  C   UNL     1      -3.663  13.111  20.461  0.00  0.00    +0.000 C 
ATOM     29  C   UNL     1      -5.034  12.392  20.454  0.00  0.00    +0.000 C 
ATOM     30  C   UNL     1      -5.767  12.849  21.694  0.00  0.00    +0.000 A 
ATOM     31  C   UNL     1      -7.120  13.187  21.670  0.00  0.00    +0.000 A 
ATOM     32  C   UNL     1      -7.630  14.001  22.678  0.00  0.00    +0.000 A 
ATOM     33  C   UNL     1      -6.792  14.457  23.701  0.00  0.00    +0.000 A 
ATOM     34  C   UNL     1      -5.480  13.987  23.800  0.00  0.00    +0.000 A 
ATOM     35  C   UNL     1      -4.977  13.130  22.825  0.00  0.00    +0.000 A 
ATOM     36  C   UNL     1      -3.587  12.533  22.890  0.00  0.00    +0.000 C 
ENDBRANCH  24  27
ENDBRANCH   5  24
TORSDOF 6
ENDMDL
MODEL 8
REMARK VINA RESULT:      -9.3      3.033      4.569
REMARK  Name = 
REMARK  6 active torsions:
REMARK  status: ('A' for Active; 'I' for Inactive)
REMARK    1  A    between atoms: C_2  and  C_17
REMARK    2  A    between atoms: N_3  and  C_4
REMARK    3  A    between atoms: C_4  and  C_5
REMARK    4  A    between atoms: C_5  and  N_6
REMARK    5  A    between atoms: C_21  and  S_22
REMARK    6  A    between atoms: S_22  and  N_25
REMARK                            x       y       z     vdW  Elec       q    Type
REMARK                         _______ _______ _______ _____ _____    ______ ____
ROOT
ATOM      1  C   UNL     1       1.537   8.922  19.216  0.00  0.00    +0.000 A 
ATOM      2  C   UNL     1       1.428   8.376  20.508  0.00  0.00    +0.000 A 
ATOM      3  C   UNL     1       0.591   8.953  21.472  0.00  0.00    +0.000 A 
ATOM      4  C   UNL     1      -0.163  10.077  21.154  0.00  0.00    +0.000 A 
ATOM      5  C   UNL     1      -0.099  10.605  19.860  0.00  0.00    +0.000 A 
ATOM      6  C   UNL     1       0.765  10.048  18.895  0.00  0.00    +0.000 A 
ENDROOT
BRANCH   1   8
ATOM      7  O   UNL     1       2.522   8.682  17.095  0.00  0.00    +0.000 OA
ATOM      8  C   UNL     1       2.423   8.227  18.231  0.00  0.00    +0.000 C 
ATOM      9  N   UNL     1       3.041   7.048  18.623  0.00  0.00    +0.000 N 
ATOM     10  H   UNL     1       2.737   6.605  19.481  0.00  0.00    +0.000 HD
BRANCH   9  11
ATOM     11  C   UNL     1       3.836   6.225  17.679  0.00  0.00    +0.000 C 
BRANCH  11  12
ATOM     12  C   UNL     1       4.022   4.699  18.100  0.00  0.00    +0.000 C 
ATOM     13  C   UNL     1       3.747   4.499  19.630  0.00  0.00    +0.000 C 
ATOM     14  C   UNL     1       2.314   4.577  20.141  0.00  0.00    +0.000 C 
ATOM     15  C   UNL     1       1.395   3.691  19.320  0.00  0.00    +0.000 C 
ATOM     16  C   UNL     1       1.493   4.079  17.855  0.00  0.00    +0.000 C 
ATOM     17  C   UNL     1       2.927   3.880  17.323  0.00  0.00    +0.000 C 
BRANCH  12  18
ATOM     18  N   UNL     1       5.394   4.172  17.702  0.00  0.00    +0.000 NA
ATOM     19  C   UNL     1       6.580   4.884  18.266  0.00  0.00    +0.000 C 
ATOM     20  C   UNL     1       7.025   6.175  17.511  0.00  0.00    +0.000 C 
ATOM     21  O   UNL     1       7.163   5.970  16.100  0.00  0.00    +0.000 OA
ATOM     22  C   UNL     1       5.991   5.366  15.544  0.00  0.00    +0.000 C 
ATOM     23  C   UNL     1       5.691   4.041  16.251  0.00  0.00    +0.000 C 
ENDBRANCH  12  18
ENDBRANCH  11  12
ENDBRANCH   9  11
ENDBRANCH   1   8
BRANCH   5  24
ATOM     24  S   UNL     1      -1.103  12.031  19.462  0.00  0.00    +0.000 S 
ATOM     25  O   UNL     1      -1.426  11.942  18.064  0.00  0.00    +0.000 OA
ATOM     26  O   UNL     1      -2.142  12.093  20.471  0.00  0.00    +0.000 OA
BRANCH  24  27
ATOM     27  N   UNL     1      -0.098  13.364  19.712  0.00  0.00    +0.000 NA
ATOM     28  C   UNL     1      -0.532  14.726  19.321  0.00  0.00    +0.000 C 
ATOM     29  C   UNL     1       0.359  15.781  20.022  0.00  0.00    +0.000 C 
ATOM     30  C   UNL     1       1.752  15.610  19.464  0.00  0.00    +0.000 A 
ATOM     31  C   UNL     1       2.547  16.701  19.112  0.00  0.00    +0.000 A 
ATOM     32  C   UNL     1       3.597  16.509  18.219  0.00  0.00    +0.000 A 
ATOM     33  C   UNL     1       3.849  15.237  17.696  0.00  0.00    +0.000 A 
ATOM     34  C   UNL     1       3.148  14.127  18.173  0.00  0.00    +0.000 A 
ATOM     35  C   UNL     1       2.130  14.301  19.107  0.00  0.00    +0.000 A 
ATOM     36  C   UNL     1       1.363  13.146  19.715  0.00  0.00    +0.000 C 
ENDBRANCH  24  27
ENDBRANCH   5  24
TORSDOF 6
ENDMDL
MODEL 9
REMARK VINA RESULT:      -9.2      3.319      4.903
REMARK  Name = 
REMARK  6 active torsions:
REMARK  status: ('A' for Active; 'I' for Inactive)
REMARK    1  A    between atoms: C_2  and  C_17
REMARK    2  A    between atoms: N_3  and  C_4
REMARK    3  A    between atoms: C_4  and  C_5
REMARK    4  A    between atoms: C_5  and  N_6
REMARK    5  A    between atoms: C_21  and  S_22
REMARK    6  A    between atoms: S_22  and  N_25
REMARK                            x       y       z     vdW  Elec       q    Type
REMARK                         _______ _______ _______ _____ _____    ______ ____
ROOT
ATOM      1  C   UNL     1       1.487   8.836  19.477  0.00  0.00    +0.000 A 
ATOM      2  C   UNL     1       1.896   9.263  18.201  0.00  0.00    +0.000 A 
ATOM      3  C   UNL     1       1.599  10.550  17.736  0.00  0.00    +0.000 A 
ATOM      4  C   UNL     1       0.898  11.437  18.546  0.00  0.00    +0.000 A 
ATOM      5  C   UNL     1       0.522  11.042  19.835  0.00  0.00    +0.000 A 
ATOM      6  C   UNL     1       0.792   9.738  20.298  0.00  0.00    +0.000 A 
ENDROOT
BRANCH   1   8
ATOM      7  O   UNL     1       1.428   7.024  20.974  0.00  0.00    +0.000 OA
ATOM      8  C   UNL     1       1.876   7.460  19.918  0.00  0.00    +0.000 C 
ATOM      9  N   UNL     1       2.792   6.758  19.145  0.00  0.00    +0.000 N 
ATOM     10  H   UNL     1       3.297   7.258  18.424  0.00  0.00    +0.000 HD
BRANCH   9  11
ATOM     11  C   UNL     1       3.330   5.442  19.566  0.00  0.00    +0.000 C 
BRANCH  11  12
ATOM     12  C   UNL     1       4.158   4.660  18.450  0.00  0.00    +0.000 C 
ATOM     13  C   UNL     1       4.965   3.472  19.078  0.00  0.00    +0.000 C 
ATOM     14  C   UNL     1       4.214   2.231  19.544  0.00  0.00    +0.000 C 
ATOM     15  C   UNL     1       3.281   1.720  18.461  0.00  0.00    +0.000 C 
ATOM     16  C   UNL     1       2.332   2.831  18.046  0.00  0.00    +0.000 C 
ATOM     17  C   UNL     1       3.104   4.033  17.464  0.00  0.00    +0.000 C 
BRANCH  12  18
ATOM     18  N   UNL     1       5.061   5.598  17.662  0.00  0.00    +0.000 NA
ATOM     19  C   UNL     1       5.279   5.273  16.221  0.00  0.00    +0.000 C 
ATOM     20  C   UNL     1       6.380   4.208  15.920  0.00  0.00    +0.000 C 
ATOM     21  O   UNL     1       7.617   4.489  16.584  0.00  0.00    +0.000 OA
ATOM     22  C   UNL     1       7.418   4.716  17.983  0.00  0.00    +0.000 C 
ATOM     23  C   UNL     1       6.423   5.860  18.199  0.00  0.00    +0.000 C 
ENDBRANCH  12  18
ENDBRANCH  11  12
ENDBRANCH   9  11
ENDBRANCH   1   8
BRANCH   5  24
ATOM     24  S   UNL     1      -0.348  12.209  20.873  0.00  0.00    +0.000 S 
ATOM     25  O   UNL     1      -1.743  12.108  20.543  0.00  0.00    +0.000 OA
ATOM     26  O   UNL     1       0.122  11.981  22.226  0.00  0.00    +0.000 OA
BRANCH  24  27
ATOM     27  N   UNL     1       0.220  13.728  20.406  0.00  0.00    +0.000 NA
ATOM     28  C   UNL     1      -0.544  14.563  19.449  0.00  0.00    +0.000 C 
ATOM     29  C   UNL     1      -0.045  16.027  19.517  0.00  0.00    +0.000 C 
ATOM     30  C   UNL     1       1.382  16.020  19.020  0.00  0.00    +0.000 A 
ATOM     31  C   UNL     1       1.866  16.997  18.149  0.00  0.00    +0.000 A 
ATOM     32  C   UNL     1       2.998  16.719  17.387  0.00  0.00    +0.000 A 
ATOM     33  C   UNL     1       3.638  15.482  17.509  0.00  0.00    +0.000 A 
ATOM     34  C   UNL     1       3.238  14.574  18.493  0.00  0.00    +0.000 A 
ATOM     35  C   UNL     1       2.139  14.865  19.297  0.00  0.00    +0.000 A 
ATOM     36  C   UNL     1       1.678  13.963  20.421  0.00  0.00    +0.000 C 
ENDBRANCH  24  27
ENDBRANCH   5  24
TORSDOF 6
ENDMDL
