MODEL 1
REMARK VINA RESULT:      -6.8      0.000      0.000
REMARK  Name = 
REMARK  8 active torsions:
REMARK  status: ('A' for Active; 'I' for Inactive)
REMARK    1  A    between atoms: C_2  and  O_3
REMARK    2  A    between atoms: C_2  and  C_4
REMARK    3  A    between atoms: C_4  and  O_5
REMARK    4  A    between atoms: O_5  and  C_6
REMARK    5  A    between atoms: C_12  and  C_13
REMARK    6  A    between atoms: C_22  and  O_24
REMARK    7  A    between atoms: O_24  and  C_25
REMARK    8  A    between atoms: C_25  and  C_26
REMARK                            x       y       z     vdW  Elec       q    Type
REMARK                         _______ _______ _______ _____ _____    ______ ____
ROOT
ATOM      1  C   UNL     1      -1.651  12.492  19.276  0.00  0.00    +0.000 C 
ATOM      2  C   UNL     1      -0.275  13.000  19.584  0.00  0.00    +0.000 A 
ATOM      3  S   UNL     1       0.114  14.641  19.830  0.00  0.00    +0.000 S 
ATOM      4  C   UNL     1       1.720  14.169  20.217  0.00  0.00    +0.000 A 
ATOM      5  N   UNL     1       1.972  12.875  20.168  0.00  0.00    +0.000 NA
ATOM      6  C   UNL     1       0.849  12.216  19.711  0.00  0.00    +0.000 A 
ATOM      7  C   UNL     1       0.840  10.751  19.428  0.00  0.00    +0.000 C 
ATOM      8  C   UNL     1      -0.597  10.200  19.412  0.00  0.00    +0.000 C 
ATOM      9  N   UNL     1      -1.535  11.113  18.746  0.00  0.00    +0.000 N 
ATOM     10  C   UNL     1      -2.189  10.687  17.602  0.00  0.00    +0.000 C 
ATOM     11  O   UNL     1      -2.050   9.583  17.104  0.00  0.00    +0.000 OA
ENDROOT
BRANCH   1  18
ATOM     12  C   UNL     1      -2.316  12.224  21.808  0.00  0.00    +0.000 A 
ATOM     13  C   UNL     1      -3.290  12.378  22.806  0.00  0.00    +0.000 A 
ATOM     14  C   UNL     1      -4.482  13.035  22.545  0.00  0.00    +0.000 A 
ATOM     15  C   UNL     1      -4.726  13.512  21.272  0.00  0.00    +0.000 A 
ATOM     16  F   UNL     1      -5.852  14.199  21.037  0.00  0.00    +0.000 F 
ATOM     17  C   UNL     1      -3.818  13.308  20.243  0.00  0.00    +0.000 A 
ATOM     18  C   UNL     1      -2.598  12.628  20.475  0.00  0.00    +0.000 A 
BRANCH  12  19
ATOM     19  O   UNL     1      -1.075  11.711  22.120  0.00  0.00    +0.000 OA
BRANCH  19  20
ATOM     20  C   UNL     1      -1.056  10.787  23.208  0.00  0.00    +0.000 C 
BRANCH  20  22
ATOM     21  O   UNL     1       1.054   9.625  23.022  0.00  0.00    +0.000 OA
ATOM     22  C   UNL     1      -0.165   9.586  22.956  0.00  0.00    +0.000 C 
BRANCH  22  23
ATOM     23  O   UNL     1      -0.829   8.470  22.592  0.00  0.00    +0.000 OA
ATOM     24  H   UNL     1      -1.699   8.351  23.033  0.00  0.00    +0.000 HD
ENDBRANCH  22  23
ENDBRANCH  20  22
ENDBRANCH  19  20
ENDBRANCH  12  19
ENDBRANCH   1  18
BRANCH  10  25
ATOM     25  O   UNL     1      -3.010  11.642  17.098  0.00  0.00    +0.000 OA
BRANCH  25  26
ATOM     26  C   UNL     1      -4.232  11.209  16.481  0.00  0.00    +0.000 C 
BRANCH  26  27
ATOM     27  C   UNL     1      -5.382  11.580  17.384  0.00  0.00    +0.000 A 
ATOM     28  C   UNL     1      -6.095  12.771  17.192  0.00  0.00    +0.000 A 
ATOM     29  C   UNL     1      -7.149  13.113  18.043  0.00  0.00    +0.000 A 
ATOM     30  C   UNL     1      -7.508  12.266  19.089  0.00  0.00    +0.000 A 
ATOM     31  C   UNL     1      -6.819  11.070  19.279  0.00  0.00    +0.000 A 
ATOM     32  C   UNL     1      -5.762  10.727  18.433  0.00  0.00    +0.000 A 
ENDBRANCH  26  27
ENDBRANCH  25  26
ENDBRANCH  10  25
TORSDOF 8
ENDMDL
MODEL 2
REMARK VINA RESULT:      -6.7      2.105      5.876
REMARK  Name = 
REMARK  8 active torsions:
REMARK  status: ('A' for Active; 'I' for Inactive)
REMARK    1  A    between atoms: C_2  and  O_3
REMARK    2  A    between atoms: C_2  and  C_4
REMARK    3  A    between atoms: C_4  and  O_5
REMARK    4  A    between atoms: O_5  and  C_6
REMARK    5  A    between atoms: C_12  and  C_13
REMARK    6  A    between atoms: C_22  and  O_24
REMARK    7  A    between atoms: O_24  and  C_25
REMARK    8  A    between atoms: C_25  and  C_26
REMARK                            x       y       z     vdW  Elec       q    Type
REMARK                         _______ _______ _______ _____ _____    ______ ____
ROOT
ATOM      1  C   UNL     1      -1.155  12.374  20.454  0.00  0.00    +0.000 C 
ATOM      2  C   UNL     1      -0.482  13.683  20.175  0.00  0.00    +0.000 A 
ATOM      3  S   UNL     1      -0.082  14.249  18.617  0.00  0.00    +0.000 S 
ATOM      4  C   UNL     1       0.446  15.724  19.324  0.00  0.00    +0.000 A 
ATOM      5  N   UNL     1       0.342  15.808  20.636  0.00  0.00    +0.000 NA
ATOM      6  C   UNL     1      -0.101  14.598  21.130  0.00  0.00    +0.000 A 
ATOM      7  C   UNL     1      -0.211  14.322  22.592  0.00  0.00    +0.000 C 
ATOM      8  C   UNL     1      -1.158  13.139  22.862  0.00  0.00    +0.000 C 
ATOM      9  N   UNL     1      -0.980  12.053  21.889  0.00  0.00    +0.000 N 
ATOM     10  C   UNL     1      -0.562  10.811  22.339  0.00  0.00    +0.000 C 
ATOM     11  O   UNL     1      -0.337  10.546  23.507  0.00  0.00    +0.000 OA
ENDROOT
BRANCH   1  18
ATOM     12  C   UNL     1      -3.132  11.597  18.900  0.00  0.00    +0.000 A 
ATOM     13  C   UNL     1      -4.487  11.707  18.551  0.00  0.00    +0.000 A 
ATOM     14  C   UNL     1      -5.363  12.454  19.321  0.00  0.00    +0.000 A 
ATOM     15  C   UNL     1      -4.885  13.130  20.427  0.00  0.00    +0.000 A 
ATOM     16  F   UNL     1      -5.745  13.802  21.204  0.00  0.00    +0.000 F 
ATOM     17  C   UNL     1      -3.536  13.105  20.755  0.00  0.00    +0.000 A 
ATOM     18  C   UNL     1      -2.614  12.363  19.979  0.00  0.00    +0.000 A 
BRANCH  12  19
ATOM     19  O   UNL     1      -2.307  10.727  18.220  0.00  0.00    +0.000 OA
BRANCH  19  20
ATOM     20  C   UNL     1      -2.951   9.931  17.226  0.00  0.00    +0.000 C 
BRANCH  20  22
ATOM     21  O   UNL     1      -2.920   9.750  14.817  0.00  0.00    +0.000 OA
ATOM     22  C   UNL     1      -2.704  10.423  15.813  0.00  0.00    +0.000 C 
BRANCH  22  23
ATOM     23  O   UNL     1      -2.163  11.657  15.743  0.00  0.00    +0.000 OA
ATOM     24  H   UNL     1      -1.256  11.727  16.116  0.00  0.00    +0.000 HD
ENDBRANCH  22  23
ENDBRANCH  20  22
ENDBRANCH  19  20
ENDBRANCH  12  19
ENDBRANCH   1  18
BRANCH  10  25
ATOM     25  O   UNL     1      -0.433   9.918  21.325  0.00  0.00    +0.000 OA
BRANCH  25  26
ATOM     26  C   UNL     1       0.545   8.878  21.478  0.00  0.00    +0.000 C 
BRANCH  26  27
ATOM     27  C   UNL     1       1.225   8.661  20.148  0.00  0.00    +0.000 A 
ATOM     28  C   UNL     1       2.007   7.522  19.916  0.00  0.00    +0.000 A 
ATOM     29  C   UNL     1       2.646   7.338  18.687  0.00  0.00    +0.000 A 
ATOM     30  C   UNL     1       2.502   8.284  17.674  0.00  0.00    +0.000 A 
ATOM     31  C   UNL     1       1.711   9.411  17.886  0.00  0.00    +0.000 A 
ATOM     32  C   UNL     1       1.076   9.600  19.116  0.00  0.00    +0.000 A 
ENDBRANCH  26  27
ENDBRANCH  25  26
ENDBRANCH  10  25
TORSDOF 8
ENDMDL
MODEL 3
REMARK VINA RESULT:      -6.5      2.916      6.251
REMARK  Name = 
REMARK  8 active torsions:
REMARK  status: ('A' for Active; 'I' for Inactive)
REMARK    1  A    between atoms: C_2  and  O_3
REMARK    2  A    between atoms: C_2  and  C_4
REMARK    3  A    between atoms: C_4  and  O_5
REMARK    4  A    between atoms: O_5  and  C_6
REMARK    5  A    between atoms: C_12  and  C_13
REMARK    6  A    between atoms: C_22  and  O_24
REMARK    7  A    between atoms: O_24  and  C_25
REMARK    8  A    between atoms: C_25  and  C_26
REMARK                            x       y       z     vdW  Elec       q    Type
REMARK                         _______ _______ _______ _____ _____    ______ ____
ROOT
ATOM      1  C   UNL     1      -0.510  11.998  20.618  0.00  0.00    +0.000 C 
ATOM      2  C   UNL     1      -0.391  13.485  20.762  0.00  0.00    +0.000 A 
ATOM      3  S   UNL     1       0.188  14.527  19.543  0.00  0.00    +0.000 S 
ATOM      4  C   UNL     1      -0.185  15.865  20.556  0.00  0.00    +0.000 A 
ATOM      5  N   UNL     1      -0.706  15.574  21.732  0.00  0.00    +0.000 NA
ATOM      6  C   UNL     1      -0.733  14.203  21.885  0.00  0.00    +0.000 A 
ATOM      7  C   UNL     1      -1.155  13.547  23.157  0.00  0.00    +0.000 C 
ATOM      8  C   UNL     1      -1.558  12.081  22.916  0.00  0.00    +0.000 C 
ATOM      9  N   UNL     1      -0.660  11.407  21.969  0.00  0.00    +0.000 N 
ATOM     10  C   UNL     1       0.078  10.318  22.403  0.00  0.00    +0.000 C 
ATOM     11  O   UNL     1       0.028   9.863  23.532  0.00  0.00    +0.000 OA
ENDROOT
BRANCH   1  18
ATOM     12  C   UNL     1      -2.916  12.166  19.565  0.00  0.00    +0.000 A 
ATOM     13  C   UNL     1      -3.842  11.683  18.629  0.00  0.00    +0.000 A 
ATOM     14  C   UNL     1      -3.472  10.746  17.677  0.00  0.00    +0.000 A 
ATOM     15  C   UNL     1      -2.180  10.256  17.676  0.00  0.00    +0.000 A 
ATOM     16  F   UNL     1      -1.808   9.396  16.718  0.00  0.00    +0.000 F 
ATOM     17  C   UNL     1      -1.262  10.655  18.637  0.00  0.00    +0.000 A 
ATOM     18  C   UNL     1      -1.614  11.599  19.630  0.00  0.00    +0.000 A 
BRANCH  12  19
ATOM     19  O   UNL     1      -3.252  13.208  20.401  0.00  0.00    +0.000 OA
BRANCH  19  20
ATOM     20  C   UNL     1      -4.631  13.276  20.763  0.00  0.00    +0.000 C 
BRANCH  20  22
ATOM     21  O   UNL     1      -4.554  14.557  22.810  0.00  0.00    +0.000 OA
ATOM     22  C   UNL     1      -4.849  13.515  22.245  0.00  0.00    +0.000 C 
BRANCH  22  23
ATOM     23  O   UNL     1      -5.348  12.453  22.910  0.00  0.00    +0.000 OA
ATOM     24  H   UNL     1      -4.715  12.025  23.528  0.00  0.00    +0.000 HD
ENDBRANCH  22  23
ENDBRANCH  20  22
ENDBRANCH  19  20
ENDBRANCH  12  19
ENDBRANCH   1  18
BRANCH  10  25
ATOM     25  O   UNL     1       0.865   9.812  21.421  0.00  0.00    +0.000 OA
BRANCH  25  26
ATOM     26  C   UNL     1       1.064   8.390  21.396  0.00  0.00    +0.000 C 
BRANCH  26  27
ATOM     27  C   UNL     1       1.729   8.022  20.093  0.00  0.00    +0.000 A 
ATOM     28  C   UNL     1       2.322   6.764  19.916  0.00  0.00    +0.000 A 
ATOM     29  C   UNL     1       2.949   6.437  18.711  0.00  0.00    +0.000 A 
ATOM     30  C   UNL     1       2.981   7.359  17.666  0.00  0.00    +0.000 A 
ATOM     31  C   UNL     1       2.379   8.606  17.823  0.00  0.00    +0.000 A 
ATOM     32  C   UNL     1       1.756   8.937  19.029  0.00  0.00    +0.000 A 
ENDBRANCH  26  27
ENDBRANCH  25  26
ENDBRANCH  10  25
TORSDOF 8
ENDMDL
MODEL 4
REMARK VINA RESULT:      -6.4      0.727      1.271
REMARK  Name = 
REMARK  8 active torsions:
REMARK  status: ('A' for Active; 'I' for Inactive)
REMARK    1  A    between atoms: C_2  and  O_3
REMARK    2  A    between atoms: C_2  and  C_4
REMARK    3  A    between atoms: C_4  and  O_5
REMARK    4  A    between atoms: O_5  and  C_6
REMARK    5  A    between atoms: C_12  and  C_13
REMARK    6  A    between atoms: C_22  and  O_24
REMARK    7  A    between atoms: O_24  and  C_25
REMARK    8  A    between atoms: C_25  and  C_26
REMARK                            x       y       z     vdW  Elec       q    Type
REMARK                         _______ _______ _______ _____ _____    ______ ____
ROOT
ATOM      1  C   UNL     1      -1.375  12.387  19.098  0.00  0.00    +0.000 C 
ATOM      2  C   UNL     1       0.016  12.933  19.212  0.00  0.00    +0.000 A 
ATOM      3  S   UNL     1       0.387  14.567  19.528  0.00  0.00    +0.000 S 
ATOM      4  C   UNL     1       2.051  14.141  19.598  0.00  0.00    +0.000 A 
ATOM      5  N   UNL     1       2.333  12.869  19.398  0.00  0.00    +0.000 NA
ATOM      6  C   UNL     1       1.171  12.195  19.082  0.00  0.00    +0.000 A 
ATOM      7  C   UNL     1       1.161  10.758  18.681  0.00  0.00    +0.000 C 
ATOM      8  C   UNL     1      -0.238  10.143  18.860  0.00  0.00    +0.000 C 
ATOM      9  N   UNL     1      -1.306  11.061  18.441  0.00  0.00    +0.000 N 
ATOM     10  C   UNL     1      -2.132  10.695  17.391  0.00  0.00    +0.000 C 
ATOM     11  O   UNL     1      -2.044   9.642  16.784  0.00  0.00    +0.000 OA
ENDROOT
BRANCH   1  18
ATOM     12  C   UNL     1      -1.611  11.836  21.661  0.00  0.00    +0.000 A 
ATOM     13  C   UNL     1      -2.402  11.873  22.819  0.00  0.00    +0.000 A 
ATOM     14  C   UNL     1      -3.612  12.549  22.835  0.00  0.00    +0.000 A 
ATOM     15  C   UNL     1      -4.059  13.163  21.681  0.00  0.00    +0.000 A 
ATOM     16  F   UNL     1      -5.199  13.867  21.716  0.00  0.00    +0.000 F 
ATOM     17  C   UNL     1      -3.338  13.079  20.498  0.00  0.00    +0.000 A 
ATOM     18  C   UNL     1      -2.107  12.384  20.447  0.00  0.00    +0.000 A 
BRANCH  12  19
ATOM     19  O   UNL     1      -0.343  11.298  21.701  0.00  0.00    +0.000 OA
BRANCH  19  20
ATOM     20  C   UNL     1      -0.162  10.242  22.646  0.00  0.00    +0.000 C 
BRANCH  20  22
ATOM     21  O   UNL     1       0.780   8.345  21.483  0.00  0.00    +0.000 OA
ATOM     22  C   UNL     1       0.941   9.276  22.257  0.00  0.00    +0.000 C 
BRANCH  22  23
ATOM     23  O   UNL     1       2.114   9.493  22.887  0.00  0.00    +0.000 OA
ATOM     24  H   UNL     1       2.054   9.514  23.867  0.00  0.00    +0.000 HD
ENDBRANCH  22  23
ENDBRANCH  20  22
ENDBRANCH  19  20
ENDBRANCH  12  19
ENDBRANCH   1  18
BRANCH  10  25
ATOM     25  O   UNL     1      -3.058  11.647  17.115  0.00  0.00    +0.000 OA
BRANCH  25  26
ATOM     26  C   UNL     1      -4.311  11.214  16.563  0.00  0.00    +0.000 C 
BRANCH  26  27
ATOM     27  C   UNL     1      -5.415  11.612  17.511  0.00  0.00    +0.000 A 
ATOM     28  C   UNL     1      -5.649  10.889  18.689  0.00  0.00    +0.000 A 
ATOM     29  C   UNL     1      -6.684  11.256  19.554  0.00  0.00    +0.000 A 
ATOM     30  C   UNL     1      -7.490  12.352  19.256  0.00  0.00    +0.000 A 
ATOM     31  C   UNL     1      -7.255  13.090  18.097  0.00  0.00    +0.000 A 
ATOM     32  C   UNL     1      -6.225  12.723  17.229  0.00  0.00    +0.000 A 
ENDBRANCH  26  27
ENDBRANCH  25  26
ENDBRANCH  10  25
TORSDOF 8
ENDMDL
MODEL 5
REMARK VINA RESULT:      -6.4      3.182      6.347
REMARK  Name = 
REMARK  8 active torsions:
REMARK  status: ('A' for Active; 'I' for Inactive)
REMARK    1  A    between atoms: C_2  and  O_3
REMARK    2  A    between atoms: C_2  and  C_4
REMARK    3  A    between atoms: C_4  and  O_5
REMARK    4  A    between atoms: O_5  and  C_6
REMARK    5  A    between atoms: C_12  and  C_13
REMARK    6  A    between atoms: C_22  and  O_24
REMARK    7  A    between atoms: O_24  and  C_25
REMARK    8  A    between atoms: C_25  and  C_26
REMARK                            x       y       z     vdW  Elec       q    Type
REMARK                         _______ _______ _______ _____ _____    ______ ____
ROOT
ATOM      1  C   UNL     1      -0.510  11.250  19.832  0.00  0.00    +0.000 C 
ATOM      2  C   UNL     1       0.030  12.648  19.852  0.00  0.00    +0.000 A 
ATOM      3  S   UNL     1       0.822  13.394  18.539  0.00  0.00    +0.000 S 
ATOM      4  C   UNL     1       0.888  14.850  19.449  0.00  0.00    +0.000 A 
ATOM      5  N   UNL     1       0.363  14.803  20.658  0.00  0.00    +0.000 NA
ATOM      6  C   UNL     1      -0.042  13.510  20.922  0.00  0.00    +0.000 A 
ATOM      7  C   UNL     1      -0.572  13.092  22.252  0.00  0.00    +0.000 C 
ATOM      8  C   UNL     1      -1.383  11.789  22.141  0.00  0.00    +0.000 C 
ATOM      9  N   UNL     1      -0.757  10.822  21.229  0.00  0.00    +0.000 N 
ATOM     10  C   UNL     1      -0.336   9.602  21.730  0.00  0.00    +0.000 C 
ATOM     11  O   UNL     1      -0.459   9.260  22.894  0.00  0.00    +0.000 OA
ENDROOT
BRANCH   1  18
ATOM     12  C   UNL     1      -2.952  11.823  19.035  0.00  0.00    +0.000 A 
ATOM     13  C   UNL     1      -3.999  11.576  18.134  0.00  0.00    +0.000 A 
ATOM     14  C   UNL     1      -3.818  10.745  17.040  0.00  0.00    +0.000 A 
ATOM     15  C   UNL     1      -2.599  10.122  16.858  0.00  0.00    +0.000 A 
ATOM     16  F   UNL     1      -2.408   9.366  15.768  0.00  0.00    +0.000 F 
ATOM     17  C   UNL     1      -1.567  10.282  17.773  0.00  0.00    +0.000 A 
ATOM     18  C   UNL     1      -1.726  11.113  18.907  0.00  0.00    +0.000 A 
BRANCH  12  19
ATOM     19  O   UNL     1      -3.094  12.770  20.025  0.00  0.00    +0.000 OA
BRANCH  19  20
ATOM     20  C   UNL     1      -4.435  13.192  20.273  0.00  0.00    +0.000 C 
BRANCH  20  22
ATOM     21  O   UNL     1      -4.663  12.458  22.564  0.00  0.00    +0.000 OA
ATOM     22  C   UNL     1      -5.092  12.448  21.421  0.00  0.00    +0.000 C 
BRANCH  22  23
ATOM     23  O   UNL     1      -6.169  11.718  21.063  0.00  0.00    +0.000 OA
ATOM     24  H   UNL     1      -6.470  11.861  20.139  0.00  0.00    +0.000 HD
ENDBRANCH  22  23
ENDBRANCH  20  22
ENDBRANCH  19  20
ENDBRANCH  12  19
ENDBRANCH   1  18
BRANCH  10  25
ATOM     25  O   UNL     1       0.230   8.825  20.773  0.00  0.00    +0.000 OA
BRANCH  25  26
ATOM     26  C   UNL     1       1.624   8.512  20.911  0.00  0.00    +0.000 C 
BRANCH  26  27
ATOM     27  C   UNL     1       1.914   7.257  20.125  0.00  0.00    +0.000 A 
ATOM     28  C   UNL     1       1.638   5.991  20.661  0.00  0.00    +0.000 A 
ATOM     29  C   UNL     1       1.925   4.834  19.931  0.00  0.00    +0.000 A 
ATOM     30  C   UNL     1       2.479   4.929  18.657  0.00  0.00    +0.000 A 
ATOM     31  C   UNL     1       2.740   6.181  18.106  0.00  0.00    +0.000 A 
ATOM     32  C   UNL     1       2.459   7.340  18.835  0.00  0.00    +0.000 A 
ENDBRANCH  26  27
ENDBRANCH  25  26
ENDBRANCH  10  25
TORSDOF 8
ENDMDL
MODEL 6
REMARK VINA RESULT:      -6.4      7.463     10.153
REMARK  Name = 
REMARK  8 active torsions:
REMARK  status: ('A' for Active; 'I' for Inactive)
REMARK    1  A    between atoms: C_2  and  O_3
REMARK    2  A    between atoms: C_2  and  C_4
REMARK    3  A    between atoms: C_4  and  O_5
REMARK    4  A    between atoms: O_5  and  C_6
REMARK    5  A    between atoms: C_12  and  C_13
REMARK    6  A    between atoms: C_22  and  O_24
REMARK    7  A    between atoms: O_24  and  C_25
REMARK    8  A    between atoms: C_25  and  C_26
REMARK                            x       y       z     vdW  Elec       q    Type
REMARK                         _______ _______ _______ _____ _____    ______ ____
ROOT
ATOM      1  C   UNL     1       3.287   5.328  18.381  0.00  0.00    +0.000 C 
ATOM      2  C   UNL     1       2.757   3.928  18.462  0.00  0.00    +0.000 A 
ATOM      3  S   UNL     1       2.751   2.822  17.165  0.00  0.00    +0.000 S 
ATOM      4  C   UNL     1       2.146   1.621  18.234  0.00  0.00    +0.000 A 
ATOM      5  N   UNL     1       1.950   2.000  19.482  0.00  0.00    +0.000 NA
ATOM      6  C   UNL     1       2.211   3.352  19.587  0.00  0.00    +0.000 A 
ATOM      7  C   UNL     1       1.971   4.119  20.844  0.00  0.00    +0.000 C 
ATOM      8  C   UNL     1       2.774   5.431  20.853  0.00  0.00    +0.000 C 
ATOM      9  N   UNL     1       2.773   6.092  19.541  0.00  0.00    +0.000 N 
ATOM     10  C   UNL     1       2.205   7.350  19.424  0.00  0.00    +0.000 C 
ATOM     11  O   UNL     1       1.706   7.966  20.350  0.00  0.00    +0.000 OA
ENDROOT
BRANCH   1  18
ATOM     12  C   UNL     1       5.528   5.425  17.005  0.00  0.00    +0.000 A 
ATOM     13  C   UNL     1       6.931   5.415  17.013  0.00  0.00    +0.000 A 
ATOM     14  C   UNL     1       7.639   5.471  18.203  0.00  0.00    +0.000 A 
ATOM     15  C   UNL     1       6.949   5.500  19.399  0.00  0.00    +0.000 A 
ATOM     16  F   UNL     1       7.634   5.616  20.545  0.00  0.00    +0.000 F 
ATOM     17  C   UNL     1       5.563   5.432  19.430  0.00  0.00    +0.000 A 
ATOM     18  C   UNL     1       4.813   5.360  18.232  0.00  0.00    +0.000 A 
BRANCH  12  19
ATOM     19  O   UNL     1       4.839   5.528  15.816  0.00  0.00    +0.000 OA
BRANCH  19  20
ATOM     20  C   UNL     1       5.648   5.481  14.640  0.00  0.00    +0.000 C 
BRANCH  20  22
ATOM     21  O   UNL     1       4.909   3.905  12.965  0.00  0.00    +0.000 OA
ATOM     22  C   UNL     1       5.606   4.136  13.940  0.00  0.00    +0.000 C 
BRANCH  22  23
ATOM     23  O   UNL     1       6.367   3.186  14.521  0.00  0.00    +0.000 OA
ATOM     24  H   UNL     1       6.787   2.557  13.893  0.00  0.00    +0.000 HD
ENDBRANCH  22  23
ENDBRANCH  20  22
ENDBRANCH  19  20
ENDBRANCH  12  19
ENDBRANCH   1  18
BRANCH  10  25
ATOM     25  O   UNL     1       2.270   7.823  18.154  0.00  0.00    +0.000 OA
BRANCH  25  26
ATOM     26  C   UNL     1       2.492   9.231  17.981  0.00  0.00    +0.000 C 
BRANCH  26  27
ATOM     27  C   UNL     1       1.184   9.953  18.195  0.00  0.00    +0.000 A 
ATOM     28  C   UNL     1       1.125  11.124  18.962  0.00  0.00    +0.000 A 
ATOM     29  C   UNL     1      -0.094  11.777  19.167  0.00  0.00    +0.000 A 
ATOM     30  C   UNL     1      -1.262  11.272  18.602  0.00  0.00    +0.000 A 
ATOM     31  C   UNL     1      -1.213  10.119  17.822  0.00  0.00    +0.000 A 
ATOM     32  C   UNL     1       0.003   9.462  17.619  0.00  0.00    +0.000 A 
ENDBRANCH  26  27
ENDBRANCH  25  26
ENDBRANCH  10  25
TORSDOF 8
ENDMDL
MODEL 7
REMARK VINA RESULT:      -6.4      3.171      6.329
REMARK  Name = 
REMARK  8 active torsions:
REMARK  status: ('A' for Active; 'I' for Inactive)
REMARK    1  A    between atoms: C_2  and  O_3
REMARK    2  A    between atoms: C_2  and  C_4
REMARK    3  A    between atoms: C_4  and  O_5
REMARK    4  A    between atoms: O_5  and  C_6
REMARK    5  A    between atoms: C_12  and  C_13
REMARK    6  A    between atoms: C_22  and  O_24
REMARK    7  A    between atoms: O_24  and  C_25
REMARK    8  A    between atoms: C_25  and  C_26
REMARK                            x       y       z     vdW  Elec       q    Type
REMARK                         _______ _______ _______ _____ _____    ______ ____
ROOT
ATOM      1  C   UNL     1      -0.507  11.246  19.982  0.00  0.00    +0.000 C 
ATOM      2  C   UNL     1      -0.018  12.660  20.062  0.00  0.00    +0.000 A 
ATOM      3  S   UNL     1       0.764  13.483  18.790  0.00  0.00    +0.000 S 
ATOM      4  C   UNL     1       0.767  14.905  19.754  0.00  0.00    +0.000 A 
ATOM      5  N   UNL     1       0.227  14.794  20.953  0.00  0.00    +0.000 NA
ATOM      6  C   UNL     1      -0.135  13.479  21.162  0.00  0.00    +0.000 A 
ATOM      7  C   UNL     1      -0.668  12.993  22.469  0.00  0.00    +0.000 C 
ATOM      8  C   UNL     1      -1.430  11.667  22.296  0.00  0.00    +0.000 C 
ATOM      9  N   UNL     1      -0.757  10.758  21.359  0.00  0.00    +0.000 N 
ATOM     10  C   UNL     1      -0.299   9.535  21.821  0.00  0.00    +0.000 C 
ATOM     11  O   UNL     1      -0.426   9.145  22.969  0.00  0.00    +0.000 OA
ENDROOT
BRANCH   1  18
ATOM     12  C   UNL     1      -2.915  11.844  19.105  0.00  0.00    +0.000 A 
ATOM     13  C   UNL     1      -3.947  11.587  18.191  0.00  0.00    +0.000 A 
ATOM     14  C   UNL     1      -3.762  10.707  17.135  0.00  0.00    +0.000 A 
ATOM     15  C   UNL     1      -2.555  10.048  17.007  0.00  0.00    +0.000 A 
ATOM     16  F   UNL     1      -2.358   9.245  15.953  0.00  0.00    +0.000 F 
ATOM     17  C   UNL     1      -1.541  10.221  17.939  0.00  0.00    +0.000 A 
ATOM     18  C   UNL     1      -1.705  11.101  19.035  0.00  0.00    +0.000 A 
BRANCH  12  19
ATOM     19  O   UNL     1      -3.056  12.834  20.053  0.00  0.00    +0.000 OA
BRANCH  19  20
ATOM     20  C   UNL     1      -4.398  13.262  20.289  0.00  0.00    +0.000 C 
BRANCH  20  22
ATOM     21  O   UNL     1      -5.749  12.021  21.861  0.00  0.00    +0.000 OA
ATOM     22  C   UNL     1      -4.911  12.887  21.666  0.00  0.00    +0.000 C 
BRANCH  22  23
ATOM     23  O   UNL     1      -4.405  13.636  22.668  0.00  0.00    +0.000 OA
ATOM     24  H   UNL     1      -3.792  14.348  22.377  0.00  0.00    +0.000 HD
ENDBRANCH  22  23
ENDBRANCH  20  22
ENDBRANCH  19  20
ENDBRANCH  12  19
ENDBRANCH   1  18
BRANCH  10  25
ATOM     25  O   UNL     1       0.307   8.815  20.844  0.00  0.00    +0.000 OA
BRANCH  25  26
ATOM     26  C   UNL     1       1.632   8.327  21.105  0.00  0.00    +0.000 C 
BRANCH  26  27
ATOM     27  C   UNL     1       1.909   7.172  20.174  0.00  0.00    +0.000 A 
ATOM     28  C   UNL     1       2.422   7.389  18.888  0.00  0.00    +0.000 A 
ATOM     29  C   UNL     1       2.660   6.314  18.028  0.00  0.00    +0.000 A 
ATOM     30  C   UNL     1       2.398   5.011  18.446  0.00  0.00    +0.000 A 
ATOM     31  C   UNL     1       1.906   4.781  19.729  0.00  0.00    +0.000 A 
ATOM     32  C   UNL     1       1.662   5.854  20.589  0.00  0.00    +0.000 A 
ENDBRANCH  26  27
ENDBRANCH  25  26
ENDBRANCH  10  25
TORSDOF 8
ENDMDL
MODEL 8
REMARK VINA RESULT:      -6.3      7.446     10.053
REMARK  Name = 
REMARK  8 active torsions:
REMARK  status: ('A' for Active; 'I' for Inactive)
REMARK    1  A    between atoms: C_2  and  O_3
REMARK    2  A    between atoms: C_2  and  C_4
REMARK    3  A    between atoms: C_4  and  O_5
REMARK    4  A    between atoms: O_5  and  C_6
REMARK    5  A    between atoms: C_12  and  C_13
REMARK    6  A    between atoms: C_22  and  O_24
REMARK    7  A    between atoms: O_24  and  C_25
REMARK    8  A    between atoms: C_25  and  C_26
REMARK                            x       y       z     vdW  Elec       q    Type
REMARK                         _______ _______ _______ _____ _____    ______ ____
ROOT
ATOM      1  C   UNL     1       3.521   5.506  18.282  0.00  0.00    +0.000 C 
ATOM      2  C   UNL     1       3.105   4.066  18.285  0.00  0.00    +0.000 A 
ATOM      3  S   UNL     1       3.267   3.013  16.954  0.00  0.00    +0.000 S 
ATOM      4  C   UNL     1       2.702   1.727  17.945  0.00  0.00    +0.000 A 
ATOM      5  N   UNL     1       2.403   2.042  19.190  0.00  0.00    +0.000 NA
ATOM      6  C   UNL     1       2.544   3.405  19.355  0.00  0.00    +0.000 A 
ATOM      7  C   UNL     1       2.168   4.103  20.619  0.00  0.00    +0.000 C 
ATOM      8  C   UNL     1       2.858   5.474  20.720  0.00  0.00    +0.000 C 
ATOM      9  N   UNL     1       2.878   6.182  19.433  0.00  0.00    +0.000 N 
ATOM     10  C   UNL     1       2.215   7.394  19.322  0.00  0.00    +0.000 C 
ATOM     11  O   UNL     1       1.614   7.931  20.236  0.00  0.00    +0.000 OA
ENDROOT
BRANCH   1  18
ATOM     12  C   UNL     1       5.796   6.106  17.103  0.00  0.00    +0.000 A 
ATOM     13  C   UNL     1       7.195   6.177  17.181  0.00  0.00    +0.000 A 
ATOM     14  C   UNL     1       7.855   5.949  18.378  0.00  0.00    +0.000 A 
ATOM     15  C   UNL     1       7.124   5.610  19.500  0.00  0.00    +0.000 A 
ATOM     16  F   UNL     1       7.759   5.450  20.669  0.00  0.00    +0.000 F 
ATOM     17  C   UNL     1       5.746   5.455  19.439  0.00  0.00    +0.000 A 
ATOM     18  C   UNL     1       5.045   5.667  18.228  0.00  0.00    +0.000 A 
BRANCH  12  19
ATOM     19  O   UNL     1       5.143   6.487  15.951  0.00  0.00    +0.000 OA
BRANCH  19  20
ATOM     20  C   UNL     1       4.975   5.455  14.979  0.00  0.00    +0.000 C 
BRANCH  20  22
ATOM     21  O   UNL     1       7.175   5.381  13.984  0.00  0.00    +0.000 OA
ATOM     22  C   UNL     1       6.280   4.797  14.574  0.00  0.00    +0.000 C 
BRANCH  22  23
ATOM     23  O   UNL     1       6.352   3.483  14.870  0.00  0.00    +0.000 OA
ATOM     24  H   UNL     1       5.784   2.907  14.311  0.00  0.00    +0.000 HD
ENDBRANCH  22  23
ENDBRANCH  20  22
ENDBRANCH  19  20
ENDBRANCH  12  19
ENDBRANCH   1  18
BRANCH  10  25
ATOM     25  O   UNL     1       2.314   7.917  18.075  0.00  0.00    +0.000 OA
BRANCH  25  26
ATOM     26  C   UNL     1       2.467   9.340  17.963  0.00  0.00    +0.000 C 
BRANCH  26  27
ATOM     27  C   UNL     1       1.122   9.986  18.186  0.00  0.00    +0.000 A 
ATOM     28  C   UNL     1      -0.034   9.472  17.582  0.00  0.00    +0.000 A 
ATOM     29  C   UNL     1      -1.273  10.087  17.783  0.00  0.00    +0.000 A 
ATOM     30  C   UNL     1      -1.372  11.213  18.596  0.00  0.00    +0.000 A 
ATOM     31  C   UNL     1      -0.234  11.722  19.218  0.00  0.00    +0.000 A 
ATOM     32  C   UNL     1       1.007  11.113  19.015  0.00  0.00    +0.000 A 
ENDBRANCH  26  27
ENDBRANCH  25  26
ENDBRANCH  10  25
TORSDOF 8
ENDMDL
MODEL 9
REMARK VINA RESULT:      -6.3      3.083      6.695
REMARK  Name = 
REMARK  8 active torsions:
REMARK  status: ('A' for Active; 'I' for Inactive)
REMARK    1  A    between atoms: C_2  and  O_3
REMARK    2  A    between atoms: C_2  and  C_4
REMARK    3  A    between atoms: C_4  and  O_5
REMARK    4  A    between atoms: O_5  and  C_6
REMARK    5  A    between atoms: C_12  and  C_13
REMARK    6  A    between atoms: C_22  and  O_24
REMARK    7  A    between atoms: O_24  and  C_25
REMARK    8  A    between atoms: C_25  and  C_26
REMARK                            x       y       z     vdW  Elec       q    Type
REMARK                         _______ _______ _______ _____ _____    ______ ____
ROOT
ATOM      1  C   UNL     1      -2.927  13.370  21.305  0.00  0.00    +0.000 C 
ATOM      2  C   UNL     1      -4.362  12.939  21.359  0.00  0.00    +0.000 A 
ATOM      3  S   UNL     1      -5.243  12.354  20.022  0.00  0.00    +0.000 S 
ATOM      4  C   UNL     1      -6.567  12.042  21.073  0.00  0.00    +0.000 A 
ATOM      5  N   UNL     1      -6.385  12.350  22.342  0.00  0.00    +0.000 NA
ATOM      6  C   UNL     1      -5.152  12.954  22.486  0.00  0.00    +0.000 A 
ATOM      7  C   UNL     1      -4.689  13.531  23.781  0.00  0.00    +0.000 C 
ATOM      8  C   UNL     1      -3.158  13.687  23.801  0.00  0.00    +0.000 C 
ATOM      9  N   UNL     1      -2.632  14.169  22.517  0.00  0.00    +0.000 N 
ATOM     10  C   UNL     1      -1.976  15.389  22.476  0.00  0.00    +0.000 C 
ATOM     11  O   UNL     1      -1.789  16.100  23.448  0.00  0.00    +0.000 OA
ENDROOT
BRANCH   1  18
ATOM     12  C   UNL     1      -1.564  11.676  19.823  0.00  0.00    +0.000 A 
ATOM     13  C   UNL     1      -0.712  10.563  19.765  0.00  0.00    +0.000 A 
ATOM     14  C   UNL     1      -0.159  10.026  20.917  0.00  0.00    +0.000 A 
ATOM     15  C   UNL     1      -0.484  10.576  22.142  0.00  0.00    +0.000 A 
ATOM     16  F   UNL     1       0.099  10.094  23.249  0.00  0.00    +0.000 F 
ATOM     17  C   UNL     1      -1.384  11.627  22.241  0.00  0.00    +0.000 A 
ATOM     18  C   UNL     1      -1.976  12.187  21.084  0.00  0.00    +0.000 A 
BRANCH  12  19
ATOM     19  O   UNL     1      -1.980  12.295  18.664  0.00  0.00    +0.000 OA
BRANCH  19  20
ATOM     20  C   UNL     1      -1.949  11.477  17.494  0.00  0.00    +0.000 C 
BRANCH  20  22
ATOM     21  O   UNL     1      -4.150  11.468  16.498  0.00  0.00    +0.000 OA
ATOM     22  C   UNL     1      -3.299  10.880  17.147  0.00  0.00    +0.000 C 
BRANCH  22  23
ATOM     23  O   UNL     1      -3.511   9.653  17.666  0.00  0.00    +0.000 OA
ATOM     24  H   UNL     1      -2.805   8.998  17.470  0.00  0.00    +0.000 HD
ENDBRANCH  22  23
ENDBRANCH  20  22
ENDBRANCH  19  20
ENDBRANCH  12  19
ENDBRANCH   1  18
BRANCH  10  25
ATOM     25  O   UNL     1      -1.560  15.702  21.223  0.00  0.00    +0.000 OA
BRANCH  25  26
ATOM     26  C   UNL     1      -0.190  16.100  21.059  0.00  0.00    +0.000 C 
BRANCH  26  27
ATOM     27  C   UNL     1       0.572  14.952  20.443  0.00  0.00    +0.000 A 
ATOM     28  C   UNL     1       1.305  14.062  21.240  0.00  0.00    +0.000 A 
ATOM     29  C   UNL     1       2.020  13.012  20.659  0.00  0.00    +0.000 A 
ATOM     30  C   UNL     1       2.003  12.834  19.277  0.00  0.00    +0.000 A 
ATOM     31  C   UNL     1       1.263  13.701  18.475  0.00  0.00    +0.000 A 
ATOM     32  C   UNL     1       0.551  14.754  19.053  0.00  0.00    +0.000 A 
ENDBRANCH  26  27
ENDBRANCH  25  26
ENDBRANCH  10  25
TORSDOF 8
ENDMDL
