MODEL 1
REMARK VINA RESULT:      -7.1      0.000      0.000
REMARK  Name = 
REMARK  5 active torsions:
REMARK  status: ('A' for Active; 'I' for Inactive)
REMARK    1  A    between atoms: C_2  and  C_3
REMARK    2  A    between atoms: C_7  and  C_8
REMARK    3  A    between atoms: N_10  and  C_11
REMARK    4  A    between atoms: C_11  and  C_12
REMARK    5  A    between atoms: C_24  and  C_26
REMARK                            x       y       z     vdW  Elec       q    Type
REMARK                         _______ _______ _______ _____ _____    ______ ____
ROOT
ATOM      1  C   UNL     1      -1.140  10.932  18.821  0.00  0.00    +0.000 A 
ATOM      2  N   UNL     1      -0.776   9.728  19.312  0.00  0.00    +0.000 NA
ATOM      3  N   UNL     1       0.315   9.967  20.076  0.00  0.00    +0.000 N 
ATOM      4  C   UNL     1       0.631  11.288  20.122  0.00  0.00    +0.000 A 
ATOM      5  C   UNL     1      -0.261  11.953  19.302  0.00  0.00    +0.000 A 
ATOM      6  C   UNL     1      -0.255  13.450  19.148  0.00  0.00    +0.000 C 
ATOM      7  N   UNL     1       0.878  14.039  19.908  0.00  0.00    +0.000 N 
ATOM      8  C   UNL     1       1.738  14.930  19.268  0.00  0.00    +0.000 C 
ATOM      9  O   UNL     1       1.662  15.183  18.069  0.00  0.00    +0.000 OA
ATOM     10  C   UNL     1       1.186  13.394  21.195  0.00  0.00    +0.000 C 
ATOM     11  C   UNL     1       1.682  11.958  20.938  0.00  0.00    +0.000 C 
ENDROOT
BRANCH   1  16
ATOM     12  C   UNL     1      -3.432  10.689  15.803  0.00  0.00    +0.000 A 
ATOM     13  C   UNL     1      -4.612  11.245  16.312  0.00  0.00    +0.000 A 
ATOM     14  C   UNL     1      -4.647  11.722  17.621  0.00  0.00    +0.000 A 
ATOM     15  C   UNL     1      -3.510  11.638  18.431  0.00  0.00    +0.000 A 
ATOM     16  C   UNL     1      -2.326  11.057  17.956  0.00  0.00    +0.000 A 
ATOM     17  C   UNL     1      -2.298  10.596  16.626  0.00  0.00    +0.000 A 
BRANCH  12  19
ATOM     18  N   UNL     1      -3.357   9.855  13.345  0.00  0.00    +0.000 NA
ATOM     19  C   UNL     1      -3.392  10.216  14.444  0.00  0.00    +0.000 C 
ENDBRANCH  12  19
ENDBRANCH   1  16
BRANCH   8  20
ATOM     20  C   UNL     1       2.758  15.646  20.108  0.00  0.00    +0.000 C 
ATOM     21  C   UNL     1       3.495  16.877  19.627  0.00  0.00    +0.000 C 
ATOM     22  C   UNL     1       2.430  17.014  20.672  0.00  0.00    +0.000 C 
ENDBRANCH   8  20
BRANCH   3  23
ATOM     23  C   UNL     1       1.005   8.863  20.747  0.00  0.00    +0.000 C 
BRANCH  23  24
ATOM     24  C   UNL     1       1.857   8.070  19.786  0.00  0.00    +0.000 A 
ATOM     25  C   UNL     1       2.352   8.655  18.610  0.00  0.00    +0.000 A 
ATOM     26  C   UNL     1       3.031   7.876  17.669  0.00  0.00    +0.000 A 
ATOM     27  C   UNL     1       3.237   6.523  17.913  0.00  0.00    +0.000 A 
ATOM     28  F   UNL     1       3.838   5.770  16.983  0.00  0.00    +0.000 F 
ATOM     29  C   UNL     1       2.818   5.938  19.098  0.00  0.00    +0.000 A 
ATOM     30  C   UNL     1       2.138   6.719  20.026  0.00  0.00    +0.000 A 
ATOM     31  F   UNL     1       1.719   6.143  21.163  0.00  0.00    +0.000 F 
ENDBRANCH  23  24
ENDBRANCH   3  23
TORSDOF 5
ENDMDL
MODEL 2
REMARK VINA RESULT:      -7.0      1.198      1.643
REMARK  Name = 
REMARK  5 active torsions:
REMARK  status: ('A' for Active; 'I' for Inactive)
REMARK    1  A    between atoms: C_2  and  C_3
REMARK    2  A    between atoms: C_7  and  C_8
REMARK    3  A    between atoms: N_10  and  C_11
REMARK    4  A    between atoms: C_11  and  C_12
REMARK    5  A    between atoms: C_24  and  C_26
REMARK                            x       y       z     vdW  Elec       q    Type
REMARK                         _______ _______ _______ _____ _____    ______ ____
ROOT
ATOM      1  C   UNL     1      -1.106  10.759  18.611  0.00  0.00    +0.000 A 
ATOM      2  N   UNL     1      -0.643   9.590  19.100  0.00  0.00    +0.000 NA
ATOM      3  N   UNL     1       0.298   9.929  20.012  0.00  0.00    +0.000 N 
ATOM      4  C   UNL     1       0.418  11.275  20.149  0.00  0.00    +0.000 A 
ATOM      5  C   UNL     1      -0.447  11.860  19.244  0.00  0.00    +0.000 A 
ATOM      6  C   UNL     1      -0.630  13.351  19.149  0.00  0.00    +0.000 C 
ATOM      7  N   UNL     1       0.303  14.042  20.075  0.00  0.00    +0.000 N 
ATOM      8  C   UNL     1       1.106  15.074  19.590  0.00  0.00    +0.000 C 
ATOM      9  O   UNL     1       1.148  15.381  18.402  0.00  0.00    +0.000 OA
ATOM     10  C   UNL     1       0.532  13.373  21.367  0.00  0.00    +0.000 C 
ATOM     11  C   UNL     1       1.252  12.032  21.124  0.00  0.00    +0.000 C 
ENDROOT
BRANCH   1  16
ATOM     12  C   UNL     1      -4.388  11.525  16.860  0.00  0.00    +0.000 A 
ATOM     13  C   UNL     1      -4.215  10.847  15.649  0.00  0.00    +0.000 A 
ATOM     14  C   UNL     1      -3.047  10.121  15.419  0.00  0.00    +0.000 A 
ATOM     15  C   UNL     1      -2.044  10.077  16.392  0.00  0.00    +0.000 A 
ATOM     16  C   UNL     1      -2.179  10.773  17.601  0.00  0.00    +0.000 A 
ATOM     17  C   UNL     1      -3.371  11.487  17.829  0.00  0.00    +0.000 A 
BRANCH  12  19
ATOM     18  N   UNL     1      -6.581  12.851  17.281  0.00  0.00    +0.000 NA
ATOM     19  C   UNL     1      -5.604  12.256  17.104  0.00  0.00    +0.000 C 
ENDBRANCH  12  19
ENDBRANCH   1  16
BRANCH   8  20
ATOM     20  C   UNL     1       1.900  15.872  20.586  0.00  0.00    +0.000 C 
ATOM     21  C   UNL     1       2.436  17.254  20.285  0.00  0.00    +0.000 C 
ATOM     22  C   UNL     1       1.278  17.097  21.224  0.00  0.00    +0.000 C 
ENDBRANCH   8  20
BRANCH   3  23
ATOM     23  C   UNL     1       1.044   8.890  20.727  0.00  0.00    +0.000 C 
BRANCH  23  24
ATOM     24  C   UNL     1       1.856   8.037  19.784  0.00  0.00    +0.000 A 
ATOM     25  C   UNL     1       2.384   8.572  18.599  0.00  0.00    +0.000 A 
ATOM     26  C   UNL     1       3.024   7.742  17.675  0.00  0.00    +0.000 A 
ATOM     27  C   UNL     1       3.158   6.384  17.945  0.00  0.00    +0.000 A 
ATOM     28  F   UNL     1       3.722   5.584  17.031  0.00  0.00    +0.000 F 
ATOM     29  C   UNL     1       2.706   5.845  19.139  0.00  0.00    +0.000 A 
ATOM     30  C   UNL     1       2.065   6.677  20.050  0.00  0.00    +0.000 A 
ATOM     31  F   UNL     1       1.614   6.145  21.196  0.00  0.00    +0.000 F 
ENDBRANCH  23  24
ENDBRANCH   3  23
TORSDOF 5
ENDMDL
MODEL 3
REMARK VINA RESULT:      -7.0      3.078      5.794
REMARK  Name = 
REMARK  5 active torsions:
REMARK  status: ('A' for Active; 'I' for Inactive)
REMARK    1  A    between atoms: C_2  and  C_3
REMARK    2  A    between atoms: C_7  and  C_8
REMARK    3  A    between atoms: N_10  and  C_11
REMARK    4  A    between atoms: C_11  and  C_12
REMARK    5  A    between atoms: C_24  and  C_26
REMARK                            x       y       z     vdW  Elec       q    Type
REMARK                         _______ _______ _______ _____ _____    ______ ____
ROOT
ATOM      1  C   UNL     1       0.976  13.732  19.158  0.00  0.00    +0.000 A 
ATOM      2  N   UNL     1       0.848  12.556  18.507  0.00  0.00    +0.000 NA
ATOM      3  N   UNL     1      -0.172  11.914  19.122  0.00  0.00    +0.000 N 
ATOM      4  C   UNL     1      -0.726  12.660  20.114  0.00  0.00    +0.000 A 
ATOM      5  C   UNL     1      -0.001  13.834  20.199  0.00  0.00    +0.000 A 
ATOM      6  C   UNL     1      -0.362  14.938  21.155  0.00  0.00    +0.000 C 
ATOM      7  N   UNL     1      -1.505  14.524  22.009  0.00  0.00    +0.000 N 
ATOM      8  C   UNL     1      -1.406  14.660  23.393  0.00  0.00    +0.000 C 
ATOM      9  O   UNL     1      -0.375  15.021  23.954  0.00  0.00    +0.000 OA
ATOM     10  C   UNL     1      -2.536  13.711  21.343  0.00  0.00    +0.000 C 
ATOM     11  C   UNL     1      -1.930  12.354  20.936  0.00  0.00    +0.000 C 
ENDROOT
BRANCH   1  16
ATOM     12  C   UNL     1       4.290  15.250  18.094  0.00  0.00    +0.000 A 
ATOM     13  C   UNL     1       3.919  16.580  17.865  0.00  0.00    +0.000 A 
ATOM     14  C   UNL     1       2.603  16.982  18.087  0.00  0.00    +0.000 A 
ATOM     15  C   UNL     1       1.650  16.059  18.527  0.00  0.00    +0.000 A 
ATOM     16  C   UNL     1       1.987  14.715  18.732  0.00  0.00    +0.000 A 
ATOM     17  C   UNL     1       3.325  14.325  18.524  0.00  0.00    +0.000 A 
BRANCH  12  19
ATOM     18  N   UNL     1       6.746  14.503  17.704  0.00  0.00    +0.000 NA
ATOM     19  C   UNL     1       5.654  14.842  17.886  0.00  0.00    +0.000 C 
ENDBRANCH  12  19
ENDBRANCH   1  16
BRANCH   8  20
ATOM     20  C   UNL     1      -2.640  14.407  24.212  0.00  0.00    +0.000 C 
ATOM     21  C   UNL     1      -2.839  14.990  25.594  0.00  0.00    +0.000 C 
ATOM     22  C   UNL     1      -3.626  15.534  24.441  0.00  0.00    +0.000 C 
ENDBRANCH   8  20
BRANCH   3  23
ATOM     23  C   UNL     1      -0.570  10.572  18.690  0.00  0.00    +0.000 C 
BRANCH  23  24
ATOM     24  C   UNL     1       0.510   9.554  18.966  0.00  0.00    +0.000 A 
ATOM     25  C   UNL     1       1.334   9.079  17.934  0.00  0.00    +0.000 A 
ATOM     26  C   UNL     1       2.243   8.046  18.179  0.00  0.00    +0.000 A 
ATOM     27  C   UNL     1       2.345   7.505  19.455  0.00  0.00    +0.000 A 
ATOM     28  F   UNL     1       3.177   6.478  19.671  0.00  0.00    +0.000 F 
ATOM     29  C   UNL     1       1.590   8.004  20.506  0.00  0.00    +0.000 A 
ATOM     30  C   UNL     1       0.685   9.029  20.252  0.00  0.00    +0.000 A 
ATOM     31  F   UNL     1      -0.055   9.495  21.269  0.00  0.00    +0.000 F 
ENDBRANCH  23  24
ENDBRANCH   3  23
TORSDOF 5
ENDMDL
MODEL 4
REMARK VINA RESULT:      -6.9      2.939      3.571
REMARK  Name = 
REMARK  5 active torsions:
REMARK  status: ('A' for Active; 'I' for Inactive)
REMARK    1  A    between atoms: C_2  and  C_3
REMARK    2  A    between atoms: C_7  and  C_8
REMARK    3  A    between atoms: N_10  and  C_11
REMARK    4  A    between atoms: C_11  and  C_12
REMARK    5  A    between atoms: C_24  and  C_26
REMARK                            x       y       z     vdW  Elec       q    Type
REMARK                         _______ _______ _______ _____ _____    ______ ____
ROOT
ATOM      1  C   UNL     1      -1.310  10.714  18.971  0.00  0.00    +0.000 A 
ATOM      2  N   UNL     1      -0.165  10.001  18.911  0.00  0.00    +0.000 NA
ATOM      3  N   UNL     1       0.450  10.207  20.098  0.00  0.00    +0.000 N 
ATOM      4  C   UNL     1      -0.286  10.992  20.928  0.00  0.00    +0.000 A 
ATOM      5  C   UNL     1      -1.421  11.372  20.236  0.00  0.00    +0.000 A 
ATOM      6  C   UNL     1      -2.507  12.206  20.861  0.00  0.00    +0.000 C 
ATOM      7  N   UNL     1      -2.117  12.608  22.237  0.00  0.00    +0.000 N 
ATOM      8  C   UNL     1      -2.199  13.950  22.604  0.00  0.00    +0.000 C 
ATOM      9  O   UNL     1      -2.491  14.840  21.810  0.00  0.00    +0.000 OA
ATOM     10  C   UNL     1      -1.377  11.597  23.011  0.00  0.00    +0.000 C 
ATOM     11  C   UNL     1      -0.008  11.349  22.347  0.00  0.00    +0.000 C 
ENDROOT
BRANCH   1  16
ATOM     12  C   UNL     1      -4.355  11.444  16.823  0.00  0.00    +0.000 A 
ATOM     13  C   UNL     1      -4.054  10.716  15.667  0.00  0.00    +0.000 A 
ATOM     14  C   UNL     1      -2.879   9.969  15.603  0.00  0.00    +0.000 A 
ATOM     15  C   UNL     1      -1.995   9.953  16.686  0.00  0.00    +0.000 A 
ATOM     16  C   UNL     1      -2.258  10.698  17.843  0.00  0.00    +0.000 A 
ATOM     17  C   UNL     1      -3.458  11.434  17.904  0.00  0.00    +0.000 A 
BRANCH  12  19
ATOM     18  N   UNL     1      -6.572  12.792  16.940  0.00  0.00    +0.000 NA
ATOM     19  C   UNL     1      -5.580  12.197  16.896  0.00  0.00    +0.000 C 
ENDBRANCH  12  19
ENDBRANCH   1  16
BRANCH   8  20
ATOM     20  C   UNL     1      -1.975  14.297  24.049  0.00  0.00    +0.000 C 
ATOM     21  C   UNL     1      -2.298  15.659  24.623  0.00  0.00    +0.000 C 
ATOM     22  C   UNL     1      -3.169  14.488  24.963  0.00  0.00    +0.000 C 
ENDBRANCH   8  20
BRANCH   3  23
ATOM     23  C   UNL     1       1.756   9.602  20.371  0.00  0.00    +0.000 C 
BRANCH  23  24
ATOM     24  C   UNL     1       1.804   8.158  19.933  0.00  0.00    +0.000 A 
ATOM     25  C   UNL     1       1.411   7.128  20.801  0.00  0.00    +0.000 A 
ATOM     26  C   UNL     1       1.581   5.792  20.429  0.00  0.00    +0.000 A 
ATOM     27  C   UNL     1       2.118   5.485  19.184  0.00  0.00    +0.000 A 
ATOM     28  F   UNL     1       2.331   4.204  18.856  0.00  0.00    +0.000 F 
ATOM     29  C   UNL     1       2.450   6.485  18.283  0.00  0.00    +0.000 A 
ATOM     30  C   UNL     1       2.283   7.812  18.663  0.00  0.00    +0.000 A 
ATOM     31  F   UNL     1       2.623   8.775  17.793  0.00  0.00    +0.000 F 
ENDBRANCH  23  24
ENDBRANCH   3  23
TORSDOF 5
ENDMDL
MODEL 5
REMARK VINA RESULT:      -6.9      3.289      7.329
REMARK  Name = 
REMARK  5 active torsions:
REMARK  status: ('A' for Active; 'I' for Inactive)
REMARK    1  A    between atoms: C_2  and  C_3
REMARK    2  A    between atoms: C_7  and  C_8
REMARK    3  A    between atoms: N_10  and  C_11
REMARK    4  A    between atoms: C_11  and  C_12
REMARK    5  A    between atoms: C_24  and  C_26
REMARK                            x       y       z     vdW  Elec       q    Type
REMARK                         _______ _______ _______ _____ _____    ______ ____
ROOT
ATOM      1  C   UNL     1       0.840  10.804  19.436  0.00  0.00    +0.000 A 
ATOM      2  N   UNL     1       1.570  11.770  20.034  0.00  0.00    +0.000 NA
ATOM      3  N   UNL     1       0.701  12.777  20.281  0.00  0.00    +0.000 N 
ATOM      4  C   UNL     1      -0.566  12.467  19.899  0.00  0.00    +0.000 A 
ATOM      5  C   UNL     1      -0.526  11.214  19.319  0.00  0.00    +0.000 A 
ATOM      6  C   UNL     1      -1.762  10.512  18.825  0.00  0.00    +0.000 C 
ATOM      7  N   UNL     1      -2.947  11.398  18.971  0.00  0.00    +0.000 N 
ATOM      8  C   UNL     1      -3.786  11.599  17.876  0.00  0.00    +0.000 C 
ATOM      9  O   UNL     1      -3.542  11.152  16.759  0.00  0.00    +0.000 OA
ATOM     10  C   UNL     1      -2.967  12.241  20.177  0.00  0.00    +0.000 C 
ATOM     11  C   UNL     1      -1.811  13.258  20.107  0.00  0.00    +0.000 C 
ENDROOT
BRANCH   1  16
ATOM     12  C   UNL     1       2.019   7.196  19.544  0.00  0.00    +0.000 A 
ATOM     13  C   UNL     1       2.616   7.067  18.286  0.00  0.00    +0.000 A 
ATOM     14  C   UNL     1       2.659   8.160  17.421  0.00  0.00    +0.000 A 
ATOM     15  C   UNL     1       2.099   9.382  17.804  0.00  0.00    +0.000 A 
ATOM     16  C   UNL     1       1.466   9.529  19.046  0.00  0.00    +0.000 A 
ATOM     17  C   UNL     1       1.446   8.423  19.918  0.00  0.00    +0.000 A 
BRANCH  12  19
ATOM     18  N   UNL     1       1.977   5.156  21.152  0.00  0.00    +0.000 NA
ATOM     19  C   UNL     1       1.995   6.073  20.444  0.00  0.00    +0.000 C 
ENDBRANCH  12  19
ENDBRANCH   1  16
BRANCH   8  20
ATOM     20  C   UNL     1      -5.069  12.347  18.105  0.00  0.00    +0.000 C 
ATOM     21  C   UNL     1      -6.158  12.444  17.058  0.00  0.00    +0.000 C 
ATOM     22  C   UNL     1      -6.364  11.575  18.262  0.00  0.00    +0.000 C 
ENDBRANCH   8  20
BRANCH   3  23
ATOM     23  C   UNL     1       1.165  14.019  20.902  0.00  0.00    +0.000 C 
BRANCH  23  24
ATOM     24  C   UNL     1       1.595  15.033  19.870  0.00  0.00    +0.000 A 
ATOM     25  C   UNL     1       0.696  15.996  19.386  0.00  0.00    +0.000 A 
ATOM     26  C   UNL     1       1.070  16.845  18.342  0.00  0.00    +0.000 A 
ATOM     27  C   UNL     1       2.346  16.750  17.798  0.00  0.00    +0.000 A 
ATOM     28  F   UNL     1       2.679  17.528  16.759  0.00  0.00    +0.000 F 
ATOM     29  C   UNL     1       3.274  15.854  18.305  0.00  0.00    +0.000 A 
ATOM     30  C   UNL     1       2.892  15.009  19.341  0.00  0.00    +0.000 A 
ATOM     31  F   UNL     1       3.790  14.131  19.815  0.00  0.00    +0.000 F 
ENDBRANCH  23  24
ENDBRANCH   3  23
TORSDOF 5
ENDMDL
MODEL 6
REMARK VINA RESULT:      -6.9      3.532      7.445
REMARK  Name = 
REMARK  5 active torsions:
REMARK  status: ('A' for Active; 'I' for Inactive)
REMARK    1  A    between atoms: C_2  and  C_3
REMARK    2  A    between atoms: C_7  and  C_8
REMARK    3  A    between atoms: N_10  and  C_11
REMARK    4  A    between atoms: C_11  and  C_12
REMARK    5  A    between atoms: C_24  and  C_26
REMARK                            x       y       z     vdW  Elec       q    Type
REMARK                         _______ _______ _______ _____ _____    ______ ____
ROOT
ATOM      1  C   UNL     1       1.039  10.621  19.234  0.00  0.00    +0.000 A 
ATOM      2  N   UNL     1       1.807  11.614  19.731  0.00  0.00    +0.000 NA
ATOM      3  N   UNL     1       0.964  12.650  19.943  0.00  0.00    +0.000 N 
ATOM      4  C   UNL     1      -0.322  12.336  19.638  0.00  0.00    +0.000 A 
ATOM      5  C   UNL     1      -0.326  11.045  19.146  0.00  0.00    +0.000 A 
ATOM      6  C   UNL     1      -1.592  10.331  18.756  0.00  0.00    +0.000 C 
ATOM      7  N   UNL     1      -2.756  11.245  18.889  0.00  0.00    +0.000 N 
ATOM      8  C   UNL     1      -3.640  11.383  17.820  0.00  0.00    +0.000 C 
ATOM      9  O   UNL     1      -3.450  10.855  16.728  0.00  0.00    +0.000 OA
ATOM     10  C   UNL     1      -2.712  12.171  20.033  0.00  0.00    +0.000 C 
ATOM     11  C   UNL     1      -1.546  13.160  19.842  0.00  0.00    +0.000 C 
ENDROOT
BRANCH   1  16
ATOM     12  C   UNL     1       2.087   6.982  19.509  0.00  0.00    +0.000 A 
ATOM     13  C   UNL     1       2.711   6.784  18.273  0.00  0.00    +0.000 A 
ATOM     14  C   UNL     1       2.815   7.841  17.370  0.00  0.00    +0.000 A 
ATOM     15  C   UNL     1       2.287   9.095  17.691  0.00  0.00    +0.000 A 
ATOM     16  C   UNL     1       1.629   9.311  18.909  0.00  0.00    +0.000 A 
ATOM     17  C   UNL     1       1.548   8.241  19.822  0.00  0.00    +0.000 A 
BRANCH  12  19
ATOM     18  N   UNL     1       1.946   5.011  21.195  0.00  0.00    +0.000 NA
ATOM     19  C   UNL     1       2.001   5.895  20.449  0.00  0.00    +0.000 C 
ENDBRANCH  12  19
ENDBRANCH   1  16
BRANCH   8  20
ATOM     20  C   UNL     1      -4.901  12.167  18.050  0.00  0.00    +0.000 C 
ATOM     21  C   UNL     1      -5.970  12.326  16.990  0.00  0.00    +0.000 C 
ATOM     22  C   UNL     1      -6.222  11.435  18.168  0.00  0.00    +0.000 C 
ENDBRANCH   8  20
BRANCH   3  23
ATOM     23  C   UNL     1       1.472  13.925  20.454  0.00  0.00    +0.000 C 
BRANCH  23  24
ATOM     24  C   UNL     1       1.814  14.879  19.336  0.00  0.00    +0.000 A 
ATOM     25  C   UNL     1       2.942  14.669  18.528  0.00  0.00    +0.000 A 
ATOM     26  C   UNL     1       3.318  15.625  17.581  0.00  0.00    +0.000 A 
ATOM     27  C   UNL     1       2.556  16.777  17.424  0.00  0.00    +0.000 A 
ATOM     28  F   UNL     1       2.952  17.716  16.555  0.00  0.00    +0.000 F 
ATOM     29  C   UNL     1       1.399  16.975  18.163  0.00  0.00    +0.000 A 
ATOM     30  C   UNL     1       1.036  16.021  19.107  0.00  0.00    +0.000 A 
ATOM     31  F   UNL     1      -0.075  16.227  19.831  0.00  0.00    +0.000 F 
ENDBRANCH  23  24
ENDBRANCH   3  23
TORSDOF 5
ENDMDL
MODEL 7
REMARK VINA RESULT:      -6.8      4.851      8.000
REMARK  Name = 
REMARK  5 active torsions:
REMARK  status: ('A' for Active; 'I' for Inactive)
REMARK    1  A    between atoms: C_2  and  C_3
REMARK    2  A    between atoms: C_7  and  C_8
REMARK    3  A    between atoms: N_10  and  C_11
REMARK    4  A    between atoms: C_11  and  C_12
REMARK    5  A    between atoms: C_24  and  C_26
REMARK                            x       y       z     vdW  Elec       q    Type
REMARK                         _______ _______ _______ _____ _____    ______ ____
ROOT
ATOM      1  C   UNL     1      -0.412  12.478  21.914  0.00  0.00    +0.000 A 
ATOM      2  N   UNL     1       0.417  13.527  21.728  0.00  0.00    +0.000 NA
ATOM      3  N   UNL     1      -0.280  14.613  22.134  0.00  0.00    +0.000 N 
ATOM      4  C   UNL     1      -1.509  14.285  22.613  0.00  0.00    +0.000 A 
ATOM      5  C   UNL     1      -1.657  12.919  22.466  0.00  0.00    +0.000 A 
ATOM      6  C   UNL     1      -2.879  12.183  22.943  0.00  0.00    +0.000 C 
ATOM      7  N   UNL     1      -3.880  13.142  23.476  0.00  0.00    +0.000 N 
ATOM      8  C   UNL     1      -5.196  13.079  23.019  0.00  0.00    +0.000 C 
ATOM      9  O   UNL     1      -5.552  12.322  22.121  0.00  0.00    +0.000 OA
ATOM     10  C   UNL     1      -3.331  14.291  24.216  0.00  0.00    +0.000 C 
ATOM     11  C   UNL     1      -2.517  15.175  23.253  0.00  0.00    +0.000 C 
ENDROOT
BRANCH   1  16
ATOM     12  C   UNL     1       0.985   9.494  20.025  0.00  0.00    +0.000 A 
ATOM     13  C   UNL     1       0.939   8.502  21.011  0.00  0.00    +0.000 A 
ATOM     14  C   UNL     1       0.428   8.800  22.273  0.00  0.00    +0.000 A 
ATOM     15  C   UNL     1      -0.030  10.089  22.561  0.00  0.00    +0.000 A 
ATOM     16  C   UNL     1       0.034  11.109  21.601  0.00  0.00    +0.000 A 
ATOM     17  C   UNL     1       0.535  10.791  20.324  0.00  0.00    +0.000 A 
BRANCH  12  19
ATOM     18  N   UNL     1       1.883   8.923  17.656  0.00  0.00    +0.000 NA
ATOM     19  C   UNL     1       1.493   9.179  18.716  0.00  0.00    +0.000 C 
ENDBRANCH  12  19
ENDBRANCH   1  16
BRANCH   8  20
ATOM     20  C   UNL     1      -6.220  13.936  23.708  0.00  0.00    +0.000 C 
ATOM     21  C   UNL     1      -7.573  14.240  23.104  0.00  0.00    +0.000 C 
ATOM     22  C   UNL     1      -7.476  13.296  24.265  0.00  0.00    +0.000 C 
ENDBRANCH   8  20
BRANCH   3  23
ATOM     23  C   UNL     1       0.311  15.950  22.038  0.00  0.00    +0.000 C 
BRANCH  23  24
ATOM     24  C   UNL     1       0.132  16.542  20.662  0.00  0.00    +0.000 A 
ATOM     25  C   UNL     1      -1.124  16.994  20.228  0.00  0.00    +0.000 A 
ATOM     26  C   UNL     1      -1.301  17.422  18.910  0.00  0.00    +0.000 A 
ATOM     27  C   UNL     1      -0.221  17.422  18.033  0.00  0.00    +0.000 A 
ATOM     28  F   UNL     1      -0.410  17.779  16.756  0.00  0.00    +0.000 F 
ATOM     29  C   UNL     1       1.043  17.045  18.457  0.00  0.00    +0.000 A 
ATOM     30  C   UNL     1       1.210  16.615  19.769  0.00  0.00    +0.000 A 
ATOM     31  F   UNL     1       2.433  16.235  20.168  0.00  0.00    +0.000 F 
ENDBRANCH  23  24
ENDBRANCH   3  23
TORSDOF 5
ENDMDL
MODEL 8
REMARK VINA RESULT:      -6.8      2.617      3.128
REMARK  Name = 
REMARK  5 active torsions:
REMARK  status: ('A' for Active; 'I' for Inactive)
REMARK    1  A    between atoms: C_2  and  C_3
REMARK    2  A    between atoms: C_7  and  C_8
REMARK    3  A    between atoms: N_10  and  C_11
REMARK    4  A    between atoms: C_11  and  C_12
REMARK    5  A    between atoms: C_24  and  C_26
REMARK                            x       y       z     vdW  Elec       q    Type
REMARK                         _______ _______ _______ _____ _____    ______ ____
ROOT
ATOM      1  C   UNL     1      -1.372  10.901  18.525  0.00  0.00    +0.000 A 
ATOM      2  N   UNL     1      -0.205  10.260  18.299  0.00  0.00    +0.000 NA
ATOM      3  N   UNL     1       0.524  10.431  19.426  0.00  0.00    +0.000 N 
ATOM      4  C   UNL     1      -0.157  11.122  20.377  0.00  0.00    +0.000 A 
ATOM      5  C   UNL     1      -1.378  11.476  19.835  0.00  0.00    +0.000 A 
ATOM      6  C   UNL     1      -2.430  12.208  20.624  0.00  0.00    +0.000 C 
ATOM      7  N   UNL     1      -1.914  12.550  21.974  0.00  0.00    +0.000 N 
ATOM      8  C   UNL     1      -2.023  13.861  22.434  0.00  0.00    +0.000 C 
ATOM      9  O   UNL     1      -2.445  14.778  21.735  0.00  0.00    +0.000 OA
ATOM     10  C   UNL     1      -1.043  11.539  22.598  0.00  0.00    +0.000 C 
ATOM     11  C   UNL     1       0.255  11.410  21.780  0.00  0.00    +0.000 C 
ENDROOT
BRANCH   1  16
ATOM     12  C   UNL     1      -3.204  10.370  15.242  0.00  0.00    +0.000 A 
ATOM     13  C   UNL     1      -4.482  10.840  15.564  0.00  0.00    +0.000 A 
ATOM     14  C   UNL     1      -4.733  11.354  16.835  0.00  0.00    +0.000 A 
ATOM     15  C   UNL     1      -3.715  11.392  17.792  0.00  0.00    +0.000 A 
ATOM     16  C   UNL     1      -2.435  10.898  17.505  0.00  0.00    +0.000 A 
ATOM     17  C   UNL     1      -2.189  10.399  16.211  0.00  0.00    +0.000 A 
BRANCH  12  19
ATOM     18  N   UNL     1      -2.716   9.437  12.867  0.00  0.00    +0.000 NA
ATOM     19  C   UNL     1      -2.941   9.860  13.922  0.00  0.00    +0.000 C 
ENDBRANCH  12  19
ENDBRANCH   1  16
BRANCH   8  20
ATOM     20  C   UNL     1      -1.662  14.134  23.867  0.00  0.00    +0.000 C 
ATOM     21  C   UNL     1      -1.676  15.525  24.463  0.00  0.00    +0.000 C 
ATOM     22  C   UNL     1      -2.745  14.546  24.843  0.00  0.00    +0.000 C 
ENDBRANCH   8  20
BRANCH   3  23
ATOM     23  C   UNL     1       1.880   9.886  19.519  0.00  0.00    +0.000 C 
BRANCH  23  24
ATOM     24  C   UNL     1       1.880   8.378  19.481  0.00  0.00    +0.000 A 
ATOM     25  C   UNL     1       1.515   7.627  20.609  0.00  0.00    +0.000 A 
ATOM     26  C   UNL     1       1.641   6.236  20.600  0.00  0.00    +0.000 A 
ATOM     27  C   UNL     1       2.108   5.593  19.458  0.00  0.00    +0.000 A 
ATOM     28  F   UNL     1       2.280   4.265  19.474  0.00  0.00    +0.000 F 
ATOM     29  C   UNL     1       2.409   6.307  18.309  0.00  0.00    +0.000 A 
ATOM     30  C   UNL     1       2.286   7.692  18.329  0.00  0.00    +0.000 A 
ATOM     31  F   UNL     1       2.597   8.378  17.219  0.00  0.00    +0.000 F 
ENDBRANCH  23  24
ENDBRANCH   3  23
TORSDOF 5
ENDMDL
MODEL 9
REMARK VINA RESULT:      -6.8      1.482      2.051
REMARK  Name = 
REMARK  5 active torsions:
REMARK  status: ('A' for Active; 'I' for Inactive)
REMARK    1  A    between atoms: C_2  and  C_3
REMARK    2  A    between atoms: C_7  and  C_8
REMARK    3  A    between atoms: N_10  and  C_11
REMARK    4  A    between atoms: C_11  and  C_12
REMARK    5  A    between atoms: C_24  and  C_26
REMARK                            x       y       z     vdW  Elec       q    Type
REMARK                         _______ _______ _______ _____ _____    ______ ____
ROOT
ATOM      1  C   UNL     1      -1.037  10.820  18.799  0.00  0.00    +0.000 A 
ATOM      2  N   UNL     1      -0.544   9.693  19.354  0.00  0.00    +0.000 NA
ATOM      3  N   UNL     1       0.383  10.107  20.247  0.00  0.00    +0.000 N 
ATOM      4  C   UNL     1       0.466  11.462  20.311  0.00  0.00    +0.000 A 
ATOM      5  C   UNL     1      -0.410  11.972  19.372  0.00  0.00    +0.000 A 
ATOM      6  C   UNL     1      -0.634  13.450  19.194  0.00  0.00    +0.000 C 
ATOM      7  N   UNL     1       0.277  14.216  20.084  0.00  0.00    +0.000 N 
ATOM      8  C   UNL     1       1.053  15.241  19.545  0.00  0.00    +0.000 C 
ATOM      9  O   UNL     1       1.092  15.484  18.342  0.00  0.00    +0.000 OA
ATOM     10  C   UNL     1       0.518  13.625  21.411  0.00  0.00    +0.000 C 
ATOM     11  C   UNL     1       1.275  12.294  21.245  0.00  0.00    +0.000 C 
ENDROOT
BRANCH   1  16
ATOM     12  C   UNL     1      -4.327  11.407  16.995  0.00  0.00    +0.000 A 
ATOM     13  C   UNL     1      -4.134  10.660  15.828  0.00  0.00    +0.000 A 
ATOM     14  C   UNL     1      -2.950   9.946  15.647  0.00  0.00    +0.000 A 
ATOM     15  C   UNL     1      -1.950   9.983  16.623  0.00  0.00    +0.000 A 
ATOM     16  C   UNL     1      -2.105  10.749  17.787  0.00  0.00    +0.000 A 
ATOM     17  C   UNL     1      -3.314  11.450  17.967  0.00  0.00    +0.000 A 
BRANCH  12  19
ATOM     18  N   UNL     1      -6.551  12.705  17.326  0.00  0.00    +0.000 NA
ATOM     19  C   UNL     1      -5.559  12.125  17.189  0.00  0.00    +0.000 C 
ENDBRANCH  12  19
ENDBRANCH   1  16
BRANCH   8  20
ATOM     20  C   UNL     1       1.820  16.114  20.497  0.00  0.00    +0.000 C 
ATOM     21  C   UNL     1       2.544  17.368  20.056  0.00  0.00    +0.000 C 
ATOM     22  C   UNL     1       1.280  17.484  20.853  0.00  0.00    +0.000 C 
ENDBRANCH   8  20
BRANCH   3  23
ATOM     23  C   UNL     1       1.154   9.131  21.021  0.00  0.00    +0.000 C 
BRANCH  23  24
ATOM     24  C   UNL     1       1.636   7.990  20.157  0.00  0.00    +0.000 A 
ATOM     25  C   UNL     1       1.563   6.663  20.609  0.00  0.00    +0.000 A 
ATOM     26  C   UNL     1       2.128   5.631  19.854  0.00  0.00    +0.000 A 
ATOM     27  C   UNL     1       2.742   5.920  18.641  0.00  0.00    +0.000 A 
ATOM     28  F   UNL     1       3.330   4.936  17.949  0.00  0.00    +0.000 F 
ATOM     29  C   UNL     1       2.765   7.213  18.142  0.00  0.00    +0.000 A 
ATOM     30  C   UNL     1       2.206   8.235  18.901  0.00  0.00    +0.000 A 
ATOM     31  F   UNL     1       2.248   9.487  18.421  0.00  0.00    +0.000 F 
ENDBRANCH  23  24
ENDBRANCH   3  23
TORSDOF 5
ENDMDL
