MODEL 1
REMARK VINA RESULT:      -7.6      0.000      0.000
REMARK  Name = 
REMARK  5 active torsions:
REMARK  status: ('A' for Active; 'I' for Inactive)
REMARK    1  A    between atoms: C_2  and  O_3
REMARK    2  A    between atoms: C_2  and  C_4
REMARK    3  A    between atoms: C_4  and  C_5
REMARK    4  A    between atoms: C_5  and  C_6
REMARK    5  A    between atoms: C_6  and  C_7
REMARK                            x       y       z     vdW  Elec       q    Type
REMARK                         _______ _______ _______ _____ _____    ______ ____
ROOT
ATOM      1  C   UNL     1       3.498   3.868  18.544  0.00  0.00    +0.000 C 
ATOM      2  N   UNL     1       4.461   3.486  19.569  0.00  0.00    +0.000 N 
ATOM      3  C   UNL     1       4.541   2.138  19.775  0.00  0.00    +0.000 C 
ATOM      4  O   UNL     1       5.272   1.609  20.590  0.00  0.00    +0.000 OA
ATOM      5  N   UNL     1       3.697   1.518  18.931  0.00  0.00    +0.000 N 
ATOM      6  C   UNL     1       3.067   2.419  18.127  0.00  0.00    +0.000 C 
ATOM      7  O   UNL     1       2.276   2.105  17.251  0.00  0.00    +0.000 OA
ATOM      8  H   UNL     1       5.058   4.109  20.095  0.00  0.00    +0.000 HD
ATOM      9  H   UNL     1       3.597   0.520  18.865  0.00  0.00    +0.000 HD
ENDROOT
BRANCH   1  10
ATOM     10  C   UNL     1       4.169   4.641  17.408  0.00  0.00    +0.000 A 
ATOM     11  C   UNL     1       4.862   3.982  16.376  0.00  0.00    +0.000 A 
ATOM     12  C   UNL     1       5.544   4.700  15.385  0.00  0.00    +0.000 A 
ATOM     13  C   UNL     1       5.524   6.090  15.386  0.00  0.00    +0.000 A 
ATOM     14  C   UNL     1       4.807   6.765  16.367  0.00  0.00    +0.000 A 
ATOM     15  C   UNL     1       4.132   6.049  17.360  0.00  0.00    +0.000 A 
ENDBRANCH   1  10
BRANCH   1  16
ATOM     16  C   UNL     1       2.302   4.587  19.211  0.00  0.00    +0.000 C 
BRANCH  16  17
ATOM     17  C   UNL     1       2.259   4.425  20.741  0.00  0.00    +0.000 C 
BRANCH  17  19
ATOM     18  O   UNL     1       1.585   2.597  22.186  0.00  0.00    +0.000 OA
ATOM     19  C   UNL     1       1.387   3.274  21.187  0.00  0.00    +0.000 C 
BRANCH  19  20
ATOM     20  O   UNL     1       0.336   3.061  20.367  0.00  0.00    +0.000 OA
ATOM     21  H   UNL     1       0.391   3.490  19.494  0.00  0.00    +0.000 HD
ENDBRANCH  19  20
ENDBRANCH  17  19
ENDBRANCH  16  17
ENDBRANCH   1  16
TORSDOF 5
ENDMDL
MODEL 2
REMARK VINA RESULT:      -7.6      2.731      4.976
REMARK  Name = 
REMARK  5 active torsions:
REMARK  status: ('A' for Active; 'I' for Inactive)
REMARK    1  A    between atoms: C_2  and  O_3
REMARK    2  A    between atoms: C_2  and  C_4
REMARK    3  A    between atoms: C_4  and  C_5
REMARK    4  A    between atoms: C_5  and  C_6
REMARK    5  A    between atoms: C_6  and  C_7
REMARK                            x       y       z     vdW  Elec       q    Type
REMARK                         _______ _______ _______ _____ _____    ______ ____
ROOT
ATOM      1  C   UNL     1       4.089   4.758  17.970  0.00  0.00    +0.000 C 
ATOM      2  N   UNL     1       3.325   3.521  17.865  0.00  0.00    +0.000 N 
ATOM      3  C   UNL     1       3.867   2.479  18.563  0.00  0.00    +0.000 C 
ATOM      4  O   UNL     1       3.395   1.358  18.601  0.00  0.00    +0.000 OA
ATOM      5  N   UNL     1       4.978   2.905  19.189  0.00  0.00    +0.000 N 
ATOM      6  C   UNL     1       5.184   4.231  18.959  0.00  0.00    +0.000 C 
ATOM      7  O   UNL     1       6.110   4.865  19.445  0.00  0.00    +0.000 OA
ATOM      8  H   UNL     1       2.459   3.390  17.361  0.00  0.00    +0.000 HD
ATOM      9  H   UNL     1       5.540   2.332  19.794  0.00  0.00    +0.000 HD
ENDROOT
BRANCH   1  10
ATOM     10  C   UNL     1       3.244   5.888  18.561  0.00  0.00    +0.000 A 
ATOM     11  C   UNL     1       3.050   7.101  17.874  0.00  0.00    +0.000 A 
ATOM     12  C   UNL     1       2.345   8.161  18.458  0.00  0.00    +0.000 A 
ATOM     13  C   UNL     1       1.794   8.023  19.727  0.00  0.00    +0.000 A 
ATOM     14  C   UNL     1       1.931   6.819  20.408  0.00  0.00    +0.000 A 
ATOM     15  C   UNL     1       2.640   5.763  19.828  0.00  0.00    +0.000 A 
ENDBRANCH   1  10
BRANCH   1  16
ATOM     16  C   UNL     1       4.740   5.071  16.602  0.00  0.00    +0.000 C 
BRANCH  16  17
ATOM     17  C   UNL     1       5.800   4.042  16.173  0.00  0.00    +0.000 C 
BRANCH  17  19
ATOM     18  O   UNL     1       7.545   5.459  15.262  0.00  0.00    +0.000 OA
ATOM     19  C   UNL     1       7.190   4.629  16.087  0.00  0.00    +0.000 C 
BRANCH  19  20
ATOM     20  O   UNL     1       8.023   4.151  17.034  0.00  0.00    +0.000 OA
ATOM     21  H   UNL     1       8.764   3.609  16.707  0.00  0.00    +0.000 HD
ENDBRANCH  19  20
ENDBRANCH  17  19
ENDBRANCH  16  17
ENDBRANCH   1  16
TORSDOF 5
ENDMDL
MODEL 3
REMARK VINA RESULT:      -7.6      3.795      5.966
REMARK  Name = 
REMARK  5 active torsions:
REMARK  status: ('A' for Active; 'I' for Inactive)
REMARK    1  A    between atoms: C_2  and  O_3
REMARK    2  A    between atoms: C_2  and  C_4
REMARK    3  A    between atoms: C_4  and  C_5
REMARK    4  A    between atoms: C_5  and  C_6
REMARK    5  A    between atoms: C_6  and  C_7
REMARK                            x       y       z     vdW  Elec       q    Type
REMARK                         _______ _______ _______ _____ _____    ______ ____
ROOT
ATOM      1  C   UNL     1       5.974   4.724  17.122  0.00  0.00    +0.000 C 
ATOM      2  N   UNL     1       6.712   4.357  18.324  0.00  0.00    +0.000 N 
ATOM      3  C   UNL     1       7.541   5.341  18.782  0.00  0.00    +0.000 C 
ATOM      4  O   UNL     1       8.254   5.238  19.762  0.00  0.00    +0.000 OA
ATOM      5  N   UNL     1       7.424   6.417  17.983  0.00  0.00    +0.000 N 
ATOM      6  C   UNL     1       6.502   6.195  17.007  0.00  0.00    +0.000 C 
ATOM      7  O   UNL     1       6.187   7.032  16.173  0.00  0.00    +0.000 OA
ATOM      8  H   UNL     1       6.644   3.484  18.829  0.00  0.00    +0.000 HD
ATOM      9  H   UNL     1       7.910   7.285  18.131  0.00  0.00    +0.000 HD
ENDROOT
BRANCH   1  10
ATOM     10  C   UNL     1       4.463   4.649  17.350  0.00  0.00    +0.000 A 
ATOM     11  C   UNL     1       3.721   5.774  17.756  0.00  0.00    +0.000 A 
ATOM     12  C   UNL     1       2.354   5.677  18.043  0.00  0.00    +0.000 A 
ATOM     13  C   UNL     1       1.691   4.463  17.903  0.00  0.00    +0.000 A 
ATOM     14  C   UNL     1       2.390   3.347  17.458  0.00  0.00    +0.000 A 
ATOM     15  C   UNL     1       3.756   3.441  17.178  0.00  0.00    +0.000 A 
ENDBRANCH   1  10
BRANCH   1  16
ATOM     16  C   UNL     1       6.499   3.895  15.927  0.00  0.00    +0.000 C 
BRANCH  16  17
ATOM     17  C   UNL     1       5.868   4.286  14.579  0.00  0.00    +0.000 C 
BRANCH  17  19
ATOM     18  O   UNL     1       6.922   4.098  12.403  0.00  0.00    +0.000 OA
ATOM     19  C   UNL     1       6.895   4.601  13.518  0.00  0.00    +0.000 C 
BRANCH  19  20
ATOM     20  O   UNL     1       7.800   5.520  13.916  0.00  0.00    +0.000 OA
ATOM     21  H   UNL     1       8.689   5.430  13.528  0.00  0.00    +0.000 HD
ENDBRANCH  19  20
ENDBRANCH  17  19
ENDBRANCH  16  17
ENDBRANCH   1  16
TORSDOF 5
ENDMDL
MODEL 4
REMARK VINA RESULT:      -7.5      2.932      5.501
REMARK  Name = 
REMARK  5 active torsions:
REMARK  status: ('A' for Active; 'I' for Inactive)
REMARK    1  A    between atoms: C_2  and  O_3
REMARK    2  A    between atoms: C_2  and  C_4
REMARK    3  A    between atoms: C_4  and  C_5
REMARK    4  A    between atoms: C_5  and  C_6
REMARK    5  A    between atoms: C_6  and  C_7
REMARK                            x       y       z     vdW  Elec       q    Type
REMARK                         _______ _______ _______ _____ _____    ______ ____
ROOT
ATOM      1  C   UNL     1       4.635   4.369  17.982  0.00  0.00    +0.000 C 
ATOM      2  N   UNL     1       5.730   4.128  18.914  0.00  0.00    +0.000 N 
ATOM      3  C   UNL     1       6.427   5.254  19.246  0.00  0.00    +0.000 C 
ATOM      4  O   UNL     1       7.383   5.274  19.998  0.00  0.00    +0.000 OA
ATOM      5  N   UNL     1       5.877   6.309  18.618  0.00  0.00    +0.000 N 
ATOM      6  C   UNL     1       4.792   5.926  17.890  0.00  0.00    +0.000 C 
ATOM      7  O   UNL     1       4.097   6.704  17.254  0.00  0.00    +0.000 OA
ATOM      8  H   UNL     1       5.984   3.241  19.326  0.00  0.00    +0.000 HD
ATOM      9  H   UNL     1       6.191   7.258  18.728  0.00  0.00    +0.000 HD
ENDROOT
BRANCH   1  10
ATOM     10  C   UNL     1       3.292   3.940  18.577  0.00  0.00    +0.000 A 
ATOM     11  C   UNL     1       2.829   4.454  19.802  0.00  0.00    +0.000 A 
ATOM     12  C   UNL     1       1.639   3.995  20.380  0.00  0.00    +0.000 A 
ATOM     13  C   UNL     1       0.870   3.033  19.733  0.00  0.00    +0.000 A 
ATOM     14  C   UNL     1       1.281   2.542  18.499  0.00  0.00    +0.000 A 
ATOM     15  C   UNL     1       2.472   2.996  17.925  0.00  0.00    +0.000 A 
ENDBRANCH   1  10
BRANCH   1  16
ATOM     16  C   UNL     1       4.980   3.736  16.614  0.00  0.00    +0.000 C 
BRANCH  16  17
ATOM     17  C   UNL     1       5.535   4.742  15.591  0.00  0.00    +0.000 C 
BRANCH  17  19
ATOM     18  O   UNL     1       7.771   4.401  16.468  0.00  0.00    +0.000 OA
ATOM     19  C   UNL     1       7.045   4.773  15.556  0.00  0.00    +0.000 C 
BRANCH  19  20
ATOM     20  O   UNL     1       7.536   5.251  14.393  0.00  0.00    +0.000 OA
ATOM     21  H   UNL     1       8.208   4.695  13.960  0.00  0.00    +0.000 HD
ENDBRANCH  19  20
ENDBRANCH  17  19
ENDBRANCH  16  17
ENDBRANCH   1  16
TORSDOF 5
ENDMDL
MODEL 5
REMARK VINA RESULT:      -7.5      2.807      5.082
REMARK  Name = 
REMARK  5 active torsions:
REMARK  status: ('A' for Active; 'I' for Inactive)
REMARK    1  A    between atoms: C_2  and  O_3
REMARK    2  A    between atoms: C_2  and  C_4
REMARK    3  A    between atoms: C_4  and  C_5
REMARK    4  A    between atoms: C_5  and  C_6
REMARK    5  A    between atoms: C_6  and  C_7
REMARK                            x       y       z     vdW  Elec       q    Type
REMARK                         _______ _______ _______ _____ _____    ______ ____
ROOT
ATOM      1  C   UNL     1       4.162   5.007  17.821  0.00  0.00    +0.000 C 
ATOM      2  N   UNL     1       3.353   3.814  17.609  0.00  0.00    +0.000 N 
ATOM      3  C   UNL     1       3.833   2.704  18.243  0.00  0.00    +0.000 C 
ATOM      4  O   UNL     1       3.316   1.604  18.189  0.00  0.00    +0.000 OA
ATOM      5  N   UNL     1       4.942   3.037  18.927  0.00  0.00    +0.000 N 
ATOM      6  C   UNL     1       5.207   4.367  18.798  0.00  0.00    +0.000 C 
ATOM      7  O   UNL     1       6.143   4.925  19.352  0.00  0.00    +0.000 OA
ATOM      8  H   UNL     1       2.497   3.755  17.074  0.00  0.00    +0.000 HD
ATOM      9  H   UNL     1       5.463   2.400  19.504  0.00  0.00    +0.000 HD
ENDROOT
BRANCH   1  10
ATOM     10  C   UNL     1       3.347   6.127  18.471  0.00  0.00    +0.000 A 
ATOM     11  C   UNL     1       2.780   5.980  19.750  0.00  0.00    +0.000 A 
ATOM     12  C   UNL     1       1.966   6.976  20.303  0.00  0.00    +0.000 A 
ATOM     13  C   UNL     1       1.724   8.153  19.603  0.00  0.00    +0.000 A 
ATOM     14  C   UNL     1       2.310   8.344  18.357  0.00  0.00    +0.000 A 
ATOM     15  C   UNL     1       3.117   7.346  17.802  0.00  0.00    +0.000 A 
ENDBRANCH   1  10
BRANCH   1  16
ATOM     16  C   UNL     1       4.864   5.389  16.497  0.00  0.00    +0.000 C 
BRANCH  16  17
ATOM     17  C   UNL     1       5.763   4.276  15.931  0.00  0.00    +0.000 C 
BRANCH  17  19
ATOM     18  O   UNL     1       7.645   5.283  14.779  0.00  0.00    +0.000 OA
ATOM     19  C   UNL     1       7.201   4.709  15.763  0.00  0.00    +0.000 C 
BRANCH  19  20
ATOM     20  O   UNL     1       7.971   4.407  16.830  0.00  0.00    +0.000 OA
ATOM     21  H   UNL     1       8.468   3.572  16.766  0.00  0.00    +0.000 HD
ENDBRANCH  19  20
ENDBRANCH  17  19
ENDBRANCH  16  17
ENDBRANCH   1  16
TORSDOF 5
ENDMDL
MODEL 6
REMARK VINA RESULT:      -7.5      3.906      5.871
REMARK  Name = 
REMARK  5 active torsions:
REMARK  status: ('A' for Active; 'I' for Inactive)
REMARK    1  A    between atoms: C_2  and  O_3
REMARK    2  A    between atoms: C_2  and  C_4
REMARK    3  A    between atoms: C_4  and  C_5
REMARK    4  A    between atoms: C_5  and  C_6
REMARK    5  A    between atoms: C_6  and  C_7
REMARK                            x       y       z     vdW  Elec       q    Type
REMARK                         _______ _______ _______ _____ _____    ______ ____
ROOT
ATOM      1  C   UNL     1       5.782   5.742  16.785  0.00  0.00    +0.000 C 
ATOM      2  N   UNL     1       5.923   5.753  15.334  0.00  0.00    +0.000 N 
ATOM      3  C   UNL     1       6.992   5.036  14.880  0.00  0.00    +0.000 C 
ATOM      4  O   UNL     1       7.297   4.924  13.708  0.00  0.00    +0.000 OA
ATOM      5  N   UNL     1       7.624   4.483  15.931  0.00  0.00    +0.000 N 
ATOM      6  C   UNL     1       6.982   4.783  17.094  0.00  0.00    +0.000 C 
ATOM      7  O   UNL     1       7.339   4.371  18.188  0.00  0.00    +0.000 OA
ATOM      8  H   UNL     1       5.309   6.210  14.674  0.00  0.00    +0.000 HD
ATOM      9  H   UNL     1       8.425   3.879  15.854  0.00  0.00    +0.000 HD
ENDROOT
BRANCH   1  10
ATOM     10  C   UNL     1       4.431   5.163  17.211  0.00  0.00    +0.000 A 
ATOM     11  C   UNL     1       4.063   3.842  16.897  0.00  0.00    +0.000 A 
ATOM     12  C   UNL     1       2.793   3.346  17.217  0.00  0.00    +0.000 A 
ATOM     13  C   UNL     1       1.873   4.149  17.883  0.00  0.00    +0.000 A 
ATOM     14  C   UNL     1       2.229   5.443  18.246  0.00  0.00    +0.000 A 
ATOM     15  C   UNL     1       3.494   5.940  17.921  0.00  0.00    +0.000 A 
ENDBRANCH   1  10
BRANCH   1  16
ATOM     16  C   UNL     1       6.096   7.152  17.339  0.00  0.00    +0.000 C 
BRANCH  16  17
ATOM     17  C   UNL     1       7.534   7.621  17.053  0.00  0.00    +0.000 C 
BRANCH  17  19
ATOM     18  O   UNL     1       8.584   9.236  18.527  0.00  0.00    +0.000 OA
ATOM     19  C   UNL     1       8.260   8.079  18.296  0.00  0.00    +0.000 C 
BRANCH  19  20
ATOM     20  O   UNL     1       8.517   7.073  19.158  0.00  0.00    +0.000 OA
ATOM     21  H   UNL     1       8.871   7.342  20.025  0.00  0.00    +0.000 HD
ENDBRANCH  19  20
ENDBRANCH  17  19
ENDBRANCH  16  17
ENDBRANCH   1  16
TORSDOF 5
ENDMDL
MODEL 7
REMARK VINA RESULT:      -7.5      3.776      5.851
REMARK  Name = 
REMARK  5 active torsions:
REMARK  status: ('A' for Active; 'I' for Inactive)
REMARK    1  A    between atoms: C_2  and  O_3
REMARK    2  A    between atoms: C_2  and  C_4
REMARK    3  A    between atoms: C_4  and  C_5
REMARK    4  A    between atoms: C_5  and  C_6
REMARK    5  A    between atoms: C_6  and  C_7
REMARK                            x       y       z     vdW  Elec       q    Type
REMARK                         _______ _______ _______ _____ _____    ______ ____
ROOT
ATOM      1  C   UNL     1       5.932   4.701  17.139  0.00  0.00    +0.000 C 
ATOM      2  N   UNL     1       6.730   4.338  18.303  0.00  0.00    +0.000 N 
ATOM      3  C   UNL     1       7.541   5.342  18.749  0.00  0.00    +0.000 C 
ATOM      4  O   UNL     1       8.296   5.245  19.698  0.00  0.00    +0.000 OA
ATOM      5  N   UNL     1       7.355   6.428  17.978  0.00  0.00    +0.000 N 
ATOM      6  C   UNL     1       6.403   6.192  17.033  0.00  0.00    +0.000 C 
ATOM      7  O   UNL     1       6.026   7.033  16.230  0.00  0.00    +0.000 OA
ATOM      8  H   UNL     1       6.712   3.454  18.792  0.00  0.00    +0.000 HD
ATOM      9  H   UNL     1       7.815   7.310  18.124  0.00  0.00    +0.000 HD
ENDROOT
BRANCH   1  10
ATOM     10  C   UNL     1       4.435   4.567  17.424  0.00  0.00    +0.000 A 
ATOM     11  C   UNL     1       3.760   3.342  17.264  0.00  0.00    +0.000 A 
ATOM     12  C   UNL     1       2.375   3.246  17.447  0.00  0.00    +0.000 A 
ATOM     13  C   UNL     1       1.638   4.365  17.821  0.00  0.00    +0.000 A 
ATOM     14  C   UNL     1       2.286   5.576  18.032  0.00  0.00    +0.000 A 
ATOM     15  C   UNL     1       3.668   5.673  17.843  0.00  0.00    +0.000 A 
ENDBRANCH   1  10
BRANCH   1  16
ATOM     16  C   UNL     1       6.439   3.915  15.908  0.00  0.00    +0.000 C 
BRANCH  16  17
ATOM     17  C   UNL     1       5.913   4.460  14.568  0.00  0.00    +0.000 C 
BRANCH  17  19
ATOM     18  O   UNL     1       7.932   5.556  13.791  0.00  0.00    +0.000 OA
ATOM     19  C   UNL     1       7.018   4.771  13.585  0.00  0.00    +0.000 C 
BRANCH  19  20
ATOM     20  O   UNL     1       6.907   4.079  12.431  0.00  0.00    +0.000 OA
ATOM     21  H   UNL     1       6.937   4.613  11.617  0.00  0.00    +0.000 HD
ENDBRANCH  19  20
ENDBRANCH  17  19
ENDBRANCH  16  17
ENDBRANCH   1  16
TORSDOF 5
ENDMDL
MODEL 8
REMARK VINA RESULT:      -7.5      2.962      5.465
REMARK  Name = 
REMARK  5 active torsions:
REMARK  status: ('A' for Active; 'I' for Inactive)
REMARK    1  A    between atoms: C_2  and  O_3
REMARK    2  A    between atoms: C_2  and  C_4
REMARK    3  A    between atoms: C_4  and  C_5
REMARK    4  A    between atoms: C_5  and  C_6
REMARK    5  A    between atoms: C_6  and  C_7
REMARK                            x       y       z     vdW  Elec       q    Type
REMARK                         _______ _______ _______ _____ _____    ______ ____
ROOT
ATOM      1  C   UNL     1       4.659   4.286  17.977  0.00  0.00    +0.000 C 
ATOM      2  N   UNL     1       5.797   4.095  18.868  0.00  0.00    +0.000 N 
ATOM      3  C   UNL     1       6.408   5.260  19.237  0.00  0.00    +0.000 C 
ATOM      4  O   UNL     1       7.380   5.325  19.965  0.00  0.00    +0.000 OA
ATOM      5  N   UNL     1       5.754   6.292  18.674  0.00  0.00    +0.000 N 
ATOM      6  C   UNL     1       4.685   5.853  17.955  0.00  0.00    +0.000 C 
ATOM      7  O   UNL     1       3.909   6.598  17.375  0.00  0.00    +0.000 OA
ATOM      8  H   UNL     1       6.135   3.215  19.231  0.00  0.00    +0.000 HD
ATOM      9  H   UNL     1       5.992   7.258  18.821  0.00  0.00    +0.000 HD
ENDROOT
BRANCH   1  10
ATOM     10  C   UNL     1       3.374   3.718  18.583  0.00  0.00    +0.000 A 
ATOM     11  C   UNL     1       2.203   3.564  17.817  0.00  0.00    +0.000 A 
ATOM     12  C   UNL     1       1.008   3.122  18.398  0.00  0.00    +0.000 A 
ATOM     13  C   UNL     1       0.964   2.797  19.750  0.00  0.00    +0.000 A 
ATOM     14  C   UNL     1       2.118   2.896  20.518  0.00  0.00    +0.000 A 
ATOM     15  C   UNL     1       3.309   3.343  19.940  0.00  0.00    +0.000 A 
ENDBRANCH   1  10
BRANCH   1  16
ATOM     16  C   UNL     1       5.016   3.747  16.572  0.00  0.00    +0.000 C 
BRANCH  16  17
ATOM     17  C   UNL     1       5.574   4.822  15.622  0.00  0.00    +0.000 C 
BRANCH  17  19
ATOM     18  O   UNL     1       7.822   4.358  16.404  0.00  0.00    +0.000 OA
ATOM     19  C   UNL     1       7.083   4.812  15.542  0.00  0.00    +0.000 C 
BRANCH  19  20
ATOM     20  O   UNL     1       7.554   5.354  14.400  0.00  0.00    +0.000 OA
ATOM     21  H   UNL     1       7.671   6.321  14.411  0.00  0.00    +0.000 HD
ENDBRANCH  19  20
ENDBRANCH  17  19
ENDBRANCH  16  17
ENDBRANCH   1  16
TORSDOF 5
ENDMDL
MODEL 9
REMARK VINA RESULT:      -7.5      3.915      5.983
REMARK  Name = 
REMARK  5 active torsions:
REMARK  status: ('A' for Active; 'I' for Inactive)
REMARK    1  A    between atoms: C_2  and  O_3
REMARK    2  A    between atoms: C_2  and  C_4
REMARK    3  A    between atoms: C_4  and  C_5
REMARK    4  A    between atoms: C_5  and  C_6
REMARK    5  A    between atoms: C_6  and  C_7
REMARK                            x       y       z     vdW  Elec       q    Type
REMARK                         _______ _______ _______ _____ _____    ______ ____
ROOT
ATOM      1  C   UNL     1       5.785   5.781  16.800  0.00  0.00    +0.000 C 
ATOM      2  N   UNL     1       5.971   5.859  15.356  0.00  0.00    +0.000 N 
ATOM      3  C   UNL     1       7.051   5.158  14.902  0.00  0.00    +0.000 C 
ATOM      4  O   UNL     1       7.392   5.098  13.736  0.00  0.00    +0.000 OA
ATOM      5  N   UNL     1       7.649   4.553  15.945  0.00  0.00    +0.000 N 
ATOM      6  C   UNL     1       6.972   4.803  17.100  0.00  0.00    +0.000 C 
ATOM      7  O   UNL     1       7.294   4.339  18.184  0.00  0.00    +0.000 OA
ATOM      8  H   UNL     1       5.379   6.348  14.699  0.00  0.00    +0.000 HD
ATOM      9  H   UNL     1       8.449   3.950  15.865  0.00  0.00    +0.000 HD
ENDROOT
BRANCH   1  10
ATOM     10  C   UNL     1       4.420   5.190  17.156  0.00  0.00    +0.000 A 
ATOM     11  C   UNL     1       3.441   5.946  17.826  0.00  0.00    +0.000 A 
ATOM     12  C   UNL     1       2.225   5.374  18.222  0.00  0.00    +0.000 A 
ATOM     13  C   UNL     1       1.950   4.042  17.933  0.00  0.00    +0.000 A 
ATOM     14  C   UNL     1       2.880   3.285  17.231  0.00  0.00    +0.000 A 
ATOM     15  C   UNL     1       4.096   3.854  16.841  0.00  0.00    +0.000 A 
ENDBRANCH   1  10
BRANCH   1  16
ATOM     16  C   UNL     1       6.086   7.162  17.428  0.00  0.00    +0.000 C 
BRANCH  16  17
ATOM     17  C   UNL     1       7.497   7.690  17.110  0.00  0.00    +0.000 C 
BRANCH  17  19
ATOM     18  O   UNL     1       8.675   9.192  18.606  0.00  0.00    +0.000 OA
ATOM     19  C   UNL     1       8.277   8.065  18.348  0.00  0.00    +0.000 C 
BRANCH  19  20
ATOM     20  O   UNL     1       8.493   7.018  19.172  0.00  0.00    +0.000 OA
ATOM     21  H   UNL     1       7.706   6.680  19.636  0.00  0.00    +0.000 HD
ENDBRANCH  19  20
ENDBRANCH  17  19
ENDBRANCH  16  17
ENDBRANCH   1  16
TORSDOF 5
ENDMDL
