MODEL 1
REMARK VINA RESULT:      -6.8      0.000      0.000
REMARK  Name = 
REMARK  2 active torsions:
REMARK  status: ('A' for Active; 'I' for Inactive)
REMARK    1  A    between atoms: C_9  and  O_10
REMARK    2  A    between atoms: C_11  and  C_12
REMARK                            x       y       z     vdW  Elec       q    Type
REMARK                         _______ _______ _______ _____ _____    ______ ____
ROOT
ATOM      1  C   UNL     1      -0.597  12.706  19.872  0.00  0.00    +0.000 C 
ATOM      2  C   UNL     1       0.253  11.517  19.105  0.00  0.00    +0.000 A 
ATOM      3  C   UNL     1      -0.359  10.376  18.550  0.00  0.00    +0.000 A 
ATOM      4  C   UNL     1       0.330   9.325  17.919  0.00  0.00    +0.000 A 
ATOM      5  C   UNL     1       1.697   9.384  17.762  0.00  0.00    +0.000 A 
ATOM      6  C   UNL     1       2.342  10.542  18.142  0.00  0.00    +0.000 A 
ATOM      7  C   UNL     1       1.622  11.599  18.733  0.00  0.00    +0.000 A 
ATOM      8  C   UNL     1       2.348  12.856  18.772  0.00  0.00    +0.000 C 
ATOM      9  C   UNL     1       1.601  13.884  18.337  0.00  0.00    +0.000 C 
ATOM     10  C   UNL     1       1.210  14.593  19.546  0.00  0.00    +0.000 A 
ATOM     11  C   UNL     1       2.036  15.673  19.899  0.00  0.00    +0.000 A 
ATOM     12  C   UNL     1       2.008  16.140  21.200  0.00  0.00    +0.000 A 
ATOM     13  C   UNL     1       1.145  15.527  22.103  0.00  0.00    +0.000 A 
ATOM     14  C   UNL     1       0.293  14.447  21.731  0.00  0.00    +0.000 A 
ATOM     15  C   UNL     1       0.295  13.929  20.430  0.00  0.00    +0.000 A 
ENDROOT
BRANCH   1  25
ATOM     16  O   UNL     1      -0.916  11.755  23.087  0.00  0.00    +0.000 OA
ATOM     17  C   UNL     1      -1.817  12.073  22.332  0.00  0.00    +0.000 C 
ATOM     18  C   UNL     1      -3.172  12.379  22.866  0.00  0.00    +0.000 A 
ATOM     19  C   UNL     1      -3.696  12.354  24.150  0.00  0.00    +0.000 A 
ATOM     20  C   UNL     1      -5.021  12.790  24.344  0.00  0.00    +0.000 A 
ATOM     21  C   UNL     1      -5.809  13.231  23.266  0.00  0.00    +0.000 A 
ATOM     22  C   UNL     1      -5.269  13.228  21.984  0.00  0.00    +0.000 A 
ATOM     23  C   UNL     1      -3.950  12.799  21.813  0.00  0.00    +0.000 A 
ATOM     24  C   UNL     1      -3.163  12.848  20.567  0.00  0.00    +0.000 C 
ATOM     25  C   UNL     1      -1.803  12.092  20.774  0.00  0.00    +0.000 C 
BRANCH  24  26
ATOM     26  O   UNL     1      -2.983  14.240  20.319  0.00  0.00    +0.000 OA
ATOM     27  H   UNL     1      -3.252  14.735  21.115  0.00  0.00    +0.000 HD
ENDBRANCH  24  26
ENDBRANCH   1  25
TORSDOF 2
ENDMDL
MODEL 2
REMARK VINA RESULT:      -6.8      5.387      9.164
REMARK  Name = 
REMARK  2 active torsions:
REMARK  status: ('A' for Active; 'I' for Inactive)
REMARK    1  A    between atoms: C_9  and  O_10
REMARK    2  A    between atoms: C_11  and  C_12
REMARK                            x       y       z     vdW  Elec       q    Type
REMARK                         _______ _______ _______ _____ _____    ______ ____
ROOT
ATOM      1  C   UNL     1       3.760   5.558  19.007  0.00  0.00    +0.000 C 
ATOM      2  C   UNL     1       5.003   5.442  17.927  0.00  0.00    +0.000 A 
ATOM      3  C   UNL     1       6.055   6.376  17.867  0.00  0.00    +0.000 A 
ATOM      4  C   UNL     1       7.113   6.334  16.942  0.00  0.00    +0.000 A 
ATOM      5  C   UNL     1       7.204   5.301  16.036  0.00  0.00    +0.000 A 
ATOM      6  C   UNL     1       6.295   4.269  16.139  0.00  0.00    +0.000 A 
ATOM      7  C   UNL     1       5.270   4.314  17.103  0.00  0.00    +0.000 A 
ATOM      8  C   UNL     1       4.608   3.040  17.319  0.00  0.00    +0.000 C 
ATOM      9  C   UNL     1       4.490   2.747  18.624  0.00  0.00    +0.000 C 
ATOM     10  C   UNL     1       3.094   3.011  18.936  0.00  0.00    +0.000 A 
ATOM     11  C   UNL     1       2.244   1.894  18.869  0.00  0.00    +0.000 A 
ATOM     12  C   UNL     1       0.883   2.095  18.741  0.00  0.00    +0.000 A 
ATOM     13  C   UNL     1       0.409   3.403  18.702  0.00  0.00    +0.000 A 
ATOM     14  C   UNL     1       1.274   4.531  18.794  0.00  0.00    +0.000 A 
ATOM     15  C   UNL     1       2.662   4.380  18.910  0.00  0.00    +0.000 A 
ENDROOT
BRANCH   1  25
ATOM     16  O   UNL     1       2.426   7.929  17.023  0.00  0.00    +0.000 OA
ATOM     17  C   UNL     1       2.365   7.882  18.238  0.00  0.00    +0.000 C 
ATOM     18  C   UNL     1       1.395   8.736  18.975  0.00  0.00    +0.000 A 
ATOM     19  C   UNL     1       0.478   9.685  18.550  0.00  0.00    +0.000 A 
ATOM     20  C   UNL     1      -0.374  10.272  19.506  0.00  0.00    +0.000 A 
ATOM     21  C   UNL     1      -0.297   9.922  20.864  0.00  0.00    +0.000 A 
ATOM     22  C   UNL     1       0.645   8.982  21.271  0.00  0.00    +0.000 A 
ATOM     23  C   UNL     1       1.476   8.405  20.307  0.00  0.00    +0.000 A 
ATOM     24  C   UNL     1       2.436   7.305  20.516  0.00  0.00    +0.000 C 
ATOM     25  C   UNL     1       3.292   7.100  19.217  0.00  0.00    +0.000 C 
BRANCH  24  26
ATOM     26  O   UNL     1       1.617   6.177  20.815  0.00  0.00    +0.000 OA
ATOM     27  H   UNL     1       0.723   6.492  21.039  0.00  0.00    +0.000 HD
ENDBRANCH  24  26
ENDBRANCH   1  25
TORSDOF 2
ENDMDL
MODEL 3
REMARK VINA RESULT:      -6.7      2.353      6.210
REMARK  Name = 
REMARK  2 active torsions:
REMARK  status: ('A' for Active; 'I' for Inactive)
REMARK    1  A    between atoms: C_9  and  O_10
REMARK    2  A    between atoms: C_11  and  C_12
REMARK                            x       y       z     vdW  Elec       q    Type
REMARK                         _______ _______ _______ _____ _____    ______ ____
ROOT
ATOM      1  C   UNL     1       0.347  11.440  19.984  0.00  0.00    +0.000 C 
ATOM      2  C   UNL     1       1.067  12.821  19.437  0.00  0.00    +0.000 A 
ATOM      3  C   UNL     1       2.055  12.824  18.433  0.00  0.00    +0.000 A 
ATOM      4  C   UNL     1       2.718  13.971  17.963  0.00  0.00    +0.000 A 
ATOM      5  C   UNL     1       2.383  15.216  18.450  0.00  0.00    +0.000 A 
ATOM      6  C   UNL     1       1.318  15.305  19.321  0.00  0.00    +0.000 A 
ATOM      7  C   UNL     1       0.642  14.143  19.744  0.00  0.00    +0.000 A 
ATOM      8  C   UNL     1      -0.638  14.404  20.377  0.00  0.00    +0.000 C 
ATOM      9  C   UNL     1      -1.611  13.616  19.891  0.00  0.00    +0.000 C 
ATOM     10  C   UNL     1      -1.819  12.610  20.920  0.00  0.00    +0.000 A 
ATOM     11  C   UNL     1      -2.850  12.890  21.832  0.00  0.00    +0.000 A 
ATOM     12  C   UNL     1      -2.863  12.237  23.050  0.00  0.00    +0.000 A 
ATOM     13  C   UNL     1      -1.858  11.312  23.314  0.00  0.00    +0.000 A 
ATOM     14  C   UNL     1      -0.828  11.015  22.375  0.00  0.00    +0.000 A 
ATOM     15  C   UNL     1      -0.763  11.661  21.133  0.00  0.00    +0.000 A 
ENDROOT
BRANCH   1  25
ATOM     16  O   UNL     1       0.662   8.736  21.965  0.00  0.00    +0.000 OA
ATOM     17  C   UNL     1       1.145   8.883  20.857  0.00  0.00    +0.000 C 
ATOM     18  C   UNL     1       1.687   7.714  20.113  0.00  0.00    +0.000 A 
ATOM     19  C   UNL     1       1.804   6.372  20.441  0.00  0.00    +0.000 A 
ATOM     20  C   UNL     1       2.294   5.481  19.466  0.00  0.00    +0.000 A 
ATOM     21  C   UNL     1       2.672   5.933  18.190  0.00  0.00    +0.000 A 
ATOM     22  C   UNL     1       2.565   7.287  17.889  0.00  0.00    +0.000 A 
ATOM     23  C   UNL     1       2.070   8.154  18.867  0.00  0.00    +0.000 A 
ATOM     24  C   UNL     1       1.760   9.586  18.699  0.00  0.00    +0.000 C 
ATOM     25  C   UNL     1       1.410  10.215  20.094  0.00  0.00    +0.000 C 
BRANCH  24  26
ATOM     26  O   UNL     1       0.654   9.603  17.799  0.00  0.00    +0.000 OA
ATOM     27  H   UNL     1       0.601  10.485  17.389  0.00  0.00    +0.000 HD
ENDBRANCH  24  26
ENDBRANCH   1  25
TORSDOF 2
ENDMDL
MODEL 4
REMARK VINA RESULT:      -6.6      6.580     11.094
REMARK  Name = 
REMARK  2 active torsions:
REMARK  status: ('A' for Active; 'I' for Inactive)
REMARK    1  A    between atoms: C_9  and  O_10
REMARK    2  A    between atoms: C_11  and  C_12
REMARK                            x       y       z     vdW  Elec       q    Type
REMARK                         _______ _______ _______ _____ _____    ______ ____
ROOT
ATOM      1  C   UNL     1       3.898   5.224  19.161  0.00  0.00    +0.000 C 
ATOM      2  C   UNL     1       3.067   4.157  20.107  0.00  0.00    +0.000 A 
ATOM      3  C   UNL     1       3.619   2.941  20.556  0.00  0.00    +0.000 A 
ATOM      4  C   UNL     1       2.936   1.989  21.333  0.00  0.00    +0.000 A 
ATOM      5  C   UNL     1       1.647   2.231  21.755  0.00  0.00    +0.000 A 
ATOM      6  C   UNL     1       1.099   3.467  21.483  0.00  0.00    +0.000 A 
ATOM      7  C   UNL     1       1.821   4.420  20.739  0.00  0.00    +0.000 A 
ATOM      8  C   UNL     1       1.275   5.763  20.815  0.00  0.00    +0.000 C 
ATOM      9  C   UNL     1       2.222   6.680  21.072  0.00  0.00    +0.000 C 
ATOM     10  C   UNL     1       2.456   7.335  19.795  0.00  0.00    +0.000 A 
ATOM     11  C   UNL     1       1.727   8.518  19.587  0.00  0.00    +0.000 A 
ATOM     12  C   UNL     1       1.559   8.983  18.296  0.00  0.00    +0.000 A 
ATOM     13  C   UNL     1       2.138   8.263  17.254  0.00  0.00    +0.000 A 
ATOM     14  C   UNL     1       2.896   7.077  17.475  0.00  0.00    +0.000 A 
ATOM     15  C   UNL     1       3.083   6.558  18.763  0.00  0.00    +0.000 A 
ENDROOT
BRANCH   1  25
ATOM     16  O   UNL     1       3.261   3.474  16.356  0.00  0.00    +0.000 OA
ATOM     17  C   UNL     1       4.307   4.027  16.643  0.00  0.00    +0.000 C 
ATOM     18  C   UNL     1       5.348   4.253  15.604  0.00  0.00    +0.000 A 
ATOM     19  C   UNL     1       5.412   3.916  14.261  0.00  0.00    +0.000 A 
ATOM     20  C   UNL     1       6.521   4.355  13.510  0.00  0.00    +0.000 A 
ATOM     21  C   UNL     1       7.550   5.106  14.102  0.00  0.00    +0.000 A 
ATOM     22  C   UNL     1       7.475   5.415  15.456  0.00  0.00    +0.000 A 
ATOM     23  C   UNL     1       6.364   4.977  16.182  0.00  0.00    +0.000 A 
ATOM     24  C   UNL     1       6.038   5.313  17.581  0.00  0.00    +0.000 C 
ATOM     25  C   UNL     1       4.809   4.458  18.054  0.00  0.00    +0.000 C 
BRANCH  24  26
ATOM     26  O   UNL     1       5.753   6.709  17.550  0.00  0.00    +0.000 OA
ATOM     27  H   UNL     1       6.579   7.199  17.718  0.00  0.00    +0.000 HD
ENDBRANCH  24  26
ENDBRANCH   1  25
TORSDOF 2
ENDMDL
MODEL 5
REMARK VINA RESULT:      -6.5      5.241      8.678
REMARK  Name = 
REMARK  2 active torsions:
REMARK  status: ('A' for Active; 'I' for Inactive)
REMARK    1  A    between atoms: C_9  and  O_10
REMARK    2  A    between atoms: C_11  and  C_12
REMARK                            x       y       z     vdW  Elec       q    Type
REMARK                         _______ _______ _______ _____ _____    ______ ____
ROOT
ATOM      1  C   UNL     1       2.917   5.808  18.635  0.00  0.00    +0.000 C 
ATOM      2  C   UNL     1       2.939   4.554  19.708  0.00  0.00    +0.000 A 
ATOM      3  C   UNL     1       2.091   4.492  20.831  0.00  0.00    +0.000 A 
ATOM      4  C   UNL     1       2.100   3.461  21.787  0.00  0.00    +0.000 A 
ATOM      5  C   UNL     1       2.946   2.384  21.640  0.00  0.00    +0.000 A 
ATOM      6  C   UNL     1       3.693   2.302  20.484  0.00  0.00    +0.000 A 
ATOM      7  C   UNL     1       3.634   3.328  19.520  0.00  0.00    +0.000 A 
ATOM      8  C   UNL     1       4.196   2.961  18.233  0.00  0.00    +0.000 C 
ATOM      9  C   UNL     1       3.384   3.290  17.215  0.00  0.00    +0.000 C 
ATOM     10  C   UNL     1       3.988   4.477  16.631  0.00  0.00    +0.000 A 
ATOM     11  C   UNL     1       4.842   4.240  15.541  0.00  0.00    +0.000 A 
ATOM     12  C   UNL     1       5.760   5.210  15.186  0.00  0.00    +0.000 A 
ATOM     13  C   UNL     1       5.788   6.393  15.918  0.00  0.00    +0.000 A 
ATOM     14  C   UNL     1       4.903   6.637  17.008  0.00  0.00    +0.000 A 
ATOM     15  C   UNL     1       3.965   5.680  17.416  0.00  0.00    +0.000 A 
ENDROOT
BRANCH   1  25
ATOM     16  O   UNL     1       2.435   8.983  17.621  0.00  0.00    +0.000 OA
ATOM     17  C   UNL     1       2.136   8.515  18.704  0.00  0.00    +0.000 C 
ATOM     18  C   UNL     1       1.214   9.250  19.612  0.00  0.00    +0.000 A 
ATOM     19  C   UNL     1       0.581  10.479  19.502  0.00  0.00    +0.000 A 
ATOM     20  C   UNL     1      -0.317  10.866  20.516  0.00  0.00    +0.000 A 
ATOM     21  C   UNL     1      -0.563  10.039  21.626  0.00  0.00    +0.000 A 
ATOM     22  C   UNL     1       0.099   8.820  21.725  0.00  0.00    +0.000 A 
ATOM     23  C   UNL     1       0.980   8.450  20.705  0.00  0.00    +0.000 A 
ATOM     24  C   UNL     1       1.667   7.153  20.563  0.00  0.00    +0.000 C 
ATOM     25  C   UNL     1       2.704   7.234  19.387  0.00  0.00    +0.000 C 
BRANCH  24  26
ATOM     26  O   UNL     1       0.617   6.225  20.303  0.00  0.00    +0.000 OA
ATOM     27  H   UNL     1       0.049   6.169  21.093  0.00  0.00    +0.000 HD
ENDBRANCH  24  26
ENDBRANCH   1  25
TORSDOF 2
ENDMDL
MODEL 6
REMARK VINA RESULT:      -6.5      2.501      6.521
REMARK  Name = 
REMARK  2 active torsions:
REMARK  status: ('A' for Active; 'I' for Inactive)
REMARK    1  A    between atoms: C_9  and  O_10
REMARK    2  A    between atoms: C_11  and  C_12
REMARK                            x       y       z     vdW  Elec       q    Type
REMARK                         _______ _______ _______ _____ _____    ______ ____
ROOT
ATOM      1  C   UNL     1      -3.415  12.399  19.359  0.00  0.00    +0.000 C 
ATOM      2  C   UNL     1      -4.909  12.241  20.042  0.00  0.00    +0.000 A 
ATOM      3  C   UNL     1      -5.320  12.987  21.164  0.00  0.00    +0.000 A 
ATOM      4  C   UNL     1      -6.569  12.860  21.798  0.00  0.00    +0.000 A 
ATOM      5  C   UNL     1      -7.516  11.992  21.300  0.00  0.00    +0.000 A 
ATOM      6  C   UNL     1      -7.240  11.344  20.114  0.00  0.00    +0.000 A 
ATOM      7  C   UNL     1      -5.997  11.522  19.476  0.00  0.00    +0.000 A 
ATOM      8  C   UNL     1      -5.970  11.060  18.100  0.00  0.00    +0.000 C 
ATOM      9  C   UNL     1      -5.425  11.967  17.273  0.00  0.00    +0.000 C 
ATOM     10  C   UNL     1      -4.092  11.457  16.994  0.00  0.00    +0.000 A 
ATOM     11  C   UNL     1      -3.976  10.692  15.821  0.00  0.00    +0.000 A 
ATOM     12  C   UNL     1      -2.896   9.842  15.679  0.00  0.00    +0.000 A 
ATOM     13  C   UNL     1      -1.955   9.793  16.704  0.00  0.00    +0.000 A 
ATOM     14  C   UNL     1      -2.066  10.589  17.880  0.00  0.00    +0.000 A 
ATOM     15  C   UNL     1      -3.149  11.455  18.077  0.00  0.00    +0.000 A 
ENDROOT
BRANCH   1  25
ATOM     16  O   UNL     1      -0.129  11.686  19.546  0.00  0.00    +0.000 OA
ATOM     17  C   UNL     1      -0.729  12.518  20.203  0.00  0.00    +0.000 C 
ATOM     18  C   UNL     1       0.018  13.555  20.965  0.00  0.00    +0.000 A 
ATOM     19  C   UNL     1       1.373  13.792  21.135  0.00  0.00    +0.000 A 
ATOM     20  C   UNL     1       1.770  14.930  21.864  0.00  0.00    +0.000 A 
ATOM     21  C   UNL     1       0.823  15.806  22.422  0.00  0.00    +0.000 A 
ATOM     22  C   UNL     1      -0.531  15.537  22.256  0.00  0.00    +0.000 A 
ATOM     23  C   UNL     1      -0.906  14.407  21.524  0.00  0.00    +0.000 A 
ATOM     24  C   UNL     1      -2.275  14.029  21.128  0.00  0.00    +0.000 C 
ATOM     25  C   UNL     1      -2.260  12.596  20.485  0.00  0.00    +0.000 C 
BRANCH  24  26
ATOM     26  O   UNL     1      -2.666  15.039  20.201  0.00  0.00    +0.000 OA
ATOM     27  H   UNL     1      -2.130  15.837  20.367  0.00  0.00    +0.000 HD
ENDBRANCH  24  26
ENDBRANCH   1  25
TORSDOF 2
ENDMDL
MODEL 7
REMARK VINA RESULT:      -6.4      2.568      6.320
REMARK  Name = 
REMARK  2 active torsions:
REMARK  status: ('A' for Active; 'I' for Inactive)
REMARK    1  A    between atoms: C_9  and  O_10
REMARK    2  A    between atoms: C_11  and  C_12
REMARK                            x       y       z     vdW  Elec       q    Type
REMARK                         _______ _______ _______ _____ _____    ______ ____
ROOT
ATOM      1  C   UNL     1       1.110  11.510  20.613  0.00  0.00    +0.000 C 
ATOM      2  C   UNL     1      -0.157  11.964  21.567  0.00  0.00    +0.000 A 
ATOM      3  C   UNL     1      -0.855  11.062  22.394  0.00  0.00    +0.000 A 
ATOM      4  C   UNL     1      -1.960  11.399  23.195  0.00  0.00    +0.000 A 
ATOM      5  C   UNL     1      -2.407  12.701  23.251  0.00  0.00    +0.000 A 
ATOM      6  C   UNL     1      -1.676  13.664  22.590  0.00  0.00    +0.000 A 
ATOM      7  C   UNL     1      -0.547  13.307  21.828  0.00  0.00    +0.000 A 
ATOM      8  C   UNL     1       0.303  14.428  21.472  0.00  0.00    +0.000 C 
ATOM      9  C   UNL     1       1.600  14.178  21.718  0.00  0.00    +0.000 C 
ATOM     10  C   UNL     1       2.177  13.909  20.410  0.00  0.00    +0.000 A 
ATOM     11  C   UNL     1       2.773  15.014  19.780  0.00  0.00    +0.000 A 
ATOM     12  C   UNL     1       2.974  14.978  18.413  0.00  0.00    +0.000 A 
ATOM     13  C   UNL     1       2.593  13.833  17.719  0.00  0.00    +0.000 A 
ATOM     14  C   UNL     1       2.011  12.706  18.369  0.00  0.00    +0.000 A 
ATOM     15  C   UNL     1       1.773  12.700  19.749  0.00  0.00    +0.000 A 
ENDROOT
BRANCH   1  25
ATOM     16  O   UNL     1       2.092  10.001  17.768  0.00  0.00    +0.000 OA
ATOM     17  C   UNL     1       1.719   9.451  18.788  0.00  0.00    +0.000 C 
ATOM     18  C   UNL     1       1.962   7.997  18.990  0.00  0.00    +0.000 A 
ATOM     19  C   UNL     1       2.548   7.030  18.188  0.00  0.00    +0.000 A 
ATOM     20  C   UNL     1       2.709   5.731  18.710  0.00  0.00    +0.000 A 
ATOM     21  C   UNL     1       2.277   5.408  20.008  0.00  0.00    +0.000 A 
ATOM     22  C   UNL     1       1.673   6.390  20.787  0.00  0.00    +0.000 A 
ATOM     23  C   UNL     1       1.530   7.674  20.255  0.00  0.00    +0.000 A 
ATOM     24  C   UNL     1       1.042   8.872  20.964  0.00  0.00    +0.000 C 
ATOM     25  C   UNL     1       0.861  10.050  19.943  0.00  0.00    +0.000 C 
BRANCH  24  26
ATOM     26  O   UNL     1       2.051   9.140  21.934  0.00  0.00    +0.000 OA
ATOM     27  H   UNL     1       2.437  10.016  21.748  0.00  0.00    +0.000 HD
ENDBRANCH  24  26
ENDBRANCH   1  25
TORSDOF 2
ENDMDL
MODEL 8
REMARK VINA RESULT:      -6.4      1.912      4.692
REMARK  Name = 
REMARK  2 active torsions:
REMARK  status: ('A' for Active; 'I' for Inactive)
REMARK    1  A    between atoms: C_9  and  O_10
REMARK    2  A    between atoms: C_11  and  C_12
REMARK                            x       y       z     vdW  Elec       q    Type
REMARK                         _______ _______ _______ _____ _____    ______ ____
ROOT
ATOM      1  C   UNL     1      -2.584  12.162  19.989  0.00  0.00    +0.000 C 
ATOM      2  C   UNL     1      -1.171  12.970  20.257  0.00  0.00    +0.000 A 
ATOM      3  C   UNL     1      -0.906  13.675  21.448  0.00  0.00    +0.000 A 
ATOM      4  C   UNL     1       0.269  14.404  21.704  0.00  0.00    +0.000 A 
ATOM      5  C   UNL     1       1.288  14.428  20.778  0.00  0.00    +0.000 A 
ATOM      6  C   UNL     1       1.162  13.634  19.657  0.00  0.00    +0.000 A 
ATOM      7  C   UNL     1      -0.007  12.879  19.445  0.00  0.00    +0.000 A 
ATOM      8  C   UNL     1       0.130  11.855  18.424  0.00  0.00    +0.000 C 
ATOM      9  C   UNL     1      -0.346  10.667  18.833  0.00  0.00    +0.000 C 
ATOM     10  C   UNL     1      -1.626  10.531  18.156  0.00  0.00    +0.000 A 
ATOM     11  C   UNL     1      -1.591   9.814  16.948  0.00  0.00    +0.000 A 
ATOM     12  C   UNL     1      -2.626   9.973  16.045  0.00  0.00    +0.000 A 
ATOM     13  C   UNL     1      -3.672  10.826  16.383  0.00  0.00    +0.000 A 
ATOM     14  C   UNL     1      -3.712  11.532  17.620  0.00  0.00    +0.000 A 
ATOM     15  C   UNL     1      -2.681  11.416  18.561  0.00  0.00    +0.000 A 
ENDROOT
BRANCH   1  25
ATOM     16  O   UNL     1      -5.898  12.143  19.391  0.00  0.00    +0.000 OA
ATOM     17  C   UNL     1      -5.346  12.538  20.402  0.00  0.00    +0.000 C 
ATOM     18  C   UNL     1      -6.132  12.777  21.643  0.00  0.00    +0.000 A 
ATOM     19  C   UNL     1      -7.484  12.667  21.926  0.00  0.00    +0.000 A 
ATOM     20  C   UNL     1      -7.915  12.885  23.250  0.00  0.00    +0.000 A 
ATOM     21  C   UNL     1      -7.004  13.220  24.266  0.00  0.00    +0.000 A 
ATOM     22  C   UNL     1      -5.654  13.345  23.956  0.00  0.00    +0.000 A 
ATOM     23  C   UNL     1      -5.245  13.117  22.639  0.00  0.00    +0.000 A 
ATOM     24  C   UNL     1      -3.857  13.069  22.143  0.00  0.00    +0.000 C 
ATOM     25  C   UNL     1      -3.861  12.978  20.576  0.00  0.00    +0.000 C 
BRANCH  24  26
ATOM     26  O   UNL     1      -3.305  11.907  22.756  0.00  0.00    +0.000 OA
ATOM     27  H   UNL     1      -3.806  11.717  23.570  0.00  0.00    +0.000 HD
ENDBRANCH  24  26
ENDBRANCH   1  25
TORSDOF 2
ENDMDL
MODEL 9
REMARK VINA RESULT:      -6.4      3.140      5.518
REMARK  Name = 
REMARK  2 active torsions:
REMARK  status: ('A' for Active; 'I' for Inactive)
REMARK    1  A    between atoms: C_9  and  O_10
REMARK    2  A    between atoms: C_11  and  C_12
REMARK                            x       y       z     vdW  Elec       q    Type
REMARK                         _______ _______ _______ _____ _____    ______ ____
ROOT
ATOM      1  C   UNL     1      -4.237  12.390  19.944  0.00  0.00    +0.000 C 
ATOM      2  C   UNL     1      -3.453  11.634  18.704  0.00  0.00    +0.000 A 
ATOM      3  C   UNL     1      -2.321  10.817  18.898  0.00  0.00    +0.000 A 
ATOM      4  C   UNL     1      -1.604  10.184  17.869  0.00  0.00    +0.000 A 
ATOM      5  C   UNL     1      -2.019  10.296  16.560  0.00  0.00    +0.000 A 
ATOM      6  C   UNL     1      -3.207  10.951  16.313  0.00  0.00    +0.000 A 
ATOM      7  C   UNL     1      -3.931  11.540  17.368  0.00  0.00    +0.000 A 
ATOM      8  C   UNL     1      -5.296  11.893  17.021  0.00  0.00    +0.000 C 
ATOM      9  C   UNL     1      -6.176  11.477  17.947  0.00  0.00    +0.000 C 
ATOM     10  C   UNL     1      -6.532  12.679  18.684  0.00  0.00    +0.000 A 
ATOM     11  C   UNL     1      -7.694  13.331  18.239  0.00  0.00    +0.000 A 
ATOM     12  C   UNL     1      -7.890  14.657  18.579  0.00  0.00    +0.000 A 
ATOM     13  C   UNL     1      -6.930  15.286  19.366  0.00  0.00    +0.000 A 
ATOM     14  C   UNL     1      -5.765  14.611  19.833  0.00  0.00    +0.000 A 
ATOM     15  C   UNL     1      -5.514  13.273  19.504  0.00  0.00    +0.000 A 
ENDROOT
BRANCH   1  25
ATOM     16  O   UNL     1      -2.585  15.288  20.403  0.00  0.00    +0.000 OA
ATOM     17  C   UNL     1      -2.845  14.459  21.256  0.00  0.00    +0.000 C 
ATOM     18  C   UNL     1      -2.722  14.801  22.699  0.00  0.00    +0.000 A 
ATOM     19  C   UNL     1      -2.311  15.952  23.352  0.00  0.00    +0.000 A 
ATOM     20  C   UNL     1      -2.389  15.992  24.758  0.00  0.00    +0.000 A 
ATOM     21  C   UNL     1      -2.859  14.891  25.494  0.00  0.00    +0.000 A 
ATOM     22  C   UNL     1      -3.247  13.738  24.818  0.00  0.00    +0.000 A 
ATOM     23  C   UNL     1      -3.169  13.720  23.423  0.00  0.00    +0.000 A 
ATOM     24  C   UNL     1      -3.654  12.653  22.528  0.00  0.00    +0.000 C 
ATOM     25  C   UNL     1      -3.195  12.953  21.056  0.00  0.00    +0.000 C 
BRANCH  24  26
ATOM     26  O   UNL     1      -5.071  12.687  22.675  0.00  0.00    +0.000 OA
ATOM     27  H   UNL     1      -5.313  12.181  23.472  0.00  0.00    +0.000 HD
ENDBRANCH  24  26
ENDBRANCH   1  25
TORSDOF 2
ENDMDL
