MODEL 1
REMARK VINA RESULT:      -8.6      0.000      0.000
REMARK  Name = 
REMARK  6 active torsions:
REMARK  status: ('A' for Active; 'I' for Inactive)
REMARK    1  A    between atoms: C_1  and  O_2
REMARK    2  A    between atoms: O_2  and  C_3
REMARK    3  A    between atoms: C_6  and  C_7
REMARK    4  A    between atoms: N_9  and  C_10
REMARK    5  A    between atoms: C_10  and  C_11
REMARK    6  A    between atoms: C_11  and  C_13
REMARK                            x       y       z     vdW  Elec       q    Type
REMARK                         _______ _______ _______ _____ _____    ______ ____
ROOT
ATOM      1  C   UNL     1       3.219   6.209  18.081  0.00  0.00    +0.000 A 
ATOM      2  C   UNL     1       4.480   6.218  17.509  0.00  0.00    +0.000 A 
ATOM      3  N   UNL     1       4.881   4.898  17.263  0.00  0.00    +0.000 N 
ATOM      4  C   UNL     1       3.838   4.108  17.555  0.00  0.00    +0.000 A 
ATOM      5  N   UNL     1       2.881   4.871  18.084  0.00  0.00    +0.000 N 
ATOM      6  C   UNL     1       1.679   4.127  18.429  0.00  0.00    +0.000 C 
ATOM      7  C   UNL     1       2.006   2.665  18.049  0.00  0.00    +0.000 C 
ATOM      8  C   UNL     1       3.453   2.675  17.517  0.00  0.00    +0.000 C 
ENDROOT
BRANCH   1  12
ATOM      9  C   UNL     1       1.004   9.579  19.561  0.00  0.00    +0.000 A 
ATOM     10  C   UNL     1       1.423   9.540  18.231  0.00  0.00    +0.000 A 
ATOM     11  C   UNL     1       2.153   8.452  17.744  0.00  0.00    +0.000 A 
ATOM     12  C   UNL     1       2.457   7.387  18.594  0.00  0.00    +0.000 A 
ATOM     13  C   UNL     1       2.062   7.437  19.934  0.00  0.00    +0.000 A 
ATOM     14  C   UNL     1       1.346   8.536  20.418  0.00  0.00    +0.000 A 
BRANCH   9  16
ATOM     15  C   UNL     1       0.935  11.942  19.633  0.00  0.00    +0.000 C 
ATOM     16  O   UNL     1       0.304  10.697  19.919  0.00  0.00    +0.000 OA
ENDBRANCH   9  16
ENDBRANCH   1  12
BRANCH   3  17
ATOM     17  C   UNL     1       6.273   4.508  16.924  0.00  0.00    +0.000 C 
BRANCH  17  18
ATOM     18  C   UNL     1       6.892   5.228  15.738  0.00  0.00    +0.000 C 
ATOM     19  O   UNL     1       7.590   6.230  15.887  0.00  0.00    +0.000 OA
BRANCH  18  20
ATOM     20  C   UNL     1       6.714   4.707  14.343  0.00  0.00    +0.000 A 
ATOM     21  C   UNL     1       5.598   3.865  14.157  0.00  0.00    +0.000 A 
ATOM     22  C   UNL     1       5.318   3.290  12.916  0.00  0.00    +0.000 A 
ATOM     23  C   UNL     1       6.150   3.544  11.834  0.00  0.00    +0.000 A 
ATOM     24  C   UNL     1       7.261   4.369  11.997  0.00  0.00    +0.000 A 
ATOM     25  C   UNL     1       7.550   4.951  13.242  0.00  0.00    +0.000 A 
ATOM     26 CL   UNL     1       8.991   5.897  13.294  0.00  0.00    +0.000 Cl
ENDBRANCH  18  20
ENDBRANCH  17  18
ENDBRANCH   3  17
TORSDOF 5
ENDMDL
MODEL 2
REMARK VINA RESULT:      -8.6      0.417      1.034
REMARK  Name = 
REMARK  6 active torsions:
REMARK  status: ('A' for Active; 'I' for Inactive)
REMARK    1  A    between atoms: C_1  and  O_2
REMARK    2  A    between atoms: O_2  and  C_3
REMARK    3  A    between atoms: C_6  and  C_7
REMARK    4  A    between atoms: N_9  and  C_10
REMARK    5  A    between atoms: C_10  and  C_11
REMARK    6  A    between atoms: C_11  and  C_13
REMARK                            x       y       z     vdW  Elec       q    Type
REMARK                         _______ _______ _______ _____ _____    ______ ____
ROOT
ATOM      1  C   UNL     1       3.236   6.119  18.106  0.00  0.00    +0.000 A 
ATOM      2  C   UNL     1       4.485   6.144  17.508  0.00  0.00    +0.000 A 
ATOM      3  N   UNL     1       4.901   4.828  17.261  0.00  0.00    +0.000 N 
ATOM      4  C   UNL     1       3.876   4.024  17.578  0.00  0.00    +0.000 A 
ATOM      5  N   UNL     1       2.918   4.776  18.122  0.00  0.00    +0.000 N 
ATOM      6  C   UNL     1       1.735   4.015  18.495  0.00  0.00    +0.000 C 
ATOM      7  C   UNL     1       2.077   2.557  18.116  0.00  0.00    +0.000 C 
ATOM      8  C   UNL     1       3.512   2.585  17.555  0.00  0.00    +0.000 C 
ENDROOT
BRANCH   1  12
ATOM      9  C   UNL     1       1.047   9.498  19.602  0.00  0.00    +0.000 A 
ATOM     10  C   UNL     1       1.375   8.441  20.450  0.00  0.00    +0.000 A 
ATOM     11  C   UNL     1       2.079   7.333  19.968  0.00  0.00    +0.000 A 
ATOM     12  C   UNL     1       2.467   7.287  18.628  0.00  0.00    +0.000 A 
ATOM     13  C   UNL     1       2.113   8.334  17.770  0.00  0.00    +0.000 A 
ATOM     14  C   UNL     1       1.396   9.432  18.255  0.00  0.00    +0.000 A 
BRANCH   9  16
ATOM     15  C   UNL     1      -0.846  10.914  19.526  0.00  0.00    +0.000 C 
ATOM     16  O   UNL     1       0.353  10.520  20.187  0.00  0.00    +0.000 OA
ENDBRANCH   9  16
ENDBRANCH   1  12
BRANCH   3  17
ATOM     17  C   UNL     1       6.292   4.458  16.896  0.00  0.00    +0.000 C 
BRANCH  17  18
ATOM     18  C   UNL     1       6.886   5.204  15.714  0.00  0.00    +0.000 C 
ATOM     19  O   UNL     1       7.568   6.217  15.869  0.00  0.00    +0.000 OA
BRANCH  18  20
ATOM     20  C   UNL     1       6.707   4.696  14.314  0.00  0.00    +0.000 A 
ATOM     21  C   UNL     1       5.580   3.872  14.117  0.00  0.00    +0.000 A 
ATOM     22  C   UNL     1       5.297   3.310  12.871  0.00  0.00    +0.000 A 
ATOM     23  C   UNL     1       6.136   3.561  11.794  0.00  0.00    +0.000 A 
ATOM     24  C   UNL     1       7.257   4.370  11.967  0.00  0.00    +0.000 A 
ATOM     25  C   UNL     1       7.550   4.938  13.217  0.00  0.00    +0.000 A 
ATOM     26 CL   UNL     1       9.003   5.864  13.282  0.00  0.00    +0.000 Cl
ENDBRANCH  18  20
ENDBRANCH  17  18
ENDBRANCH   3  17
TORSDOF 5
ENDMDL
MODEL 3
REMARK VINA RESULT:      -8.3      2.346      3.238
REMARK  Name = 
REMARK  6 active torsions:
REMARK  status: ('A' for Active; 'I' for Inactive)
REMARK    1  A    between atoms: C_1  and  O_2
REMARK    2  A    between atoms: O_2  and  C_3
REMARK    3  A    between atoms: C_6  and  C_7
REMARK    4  A    between atoms: N_9  and  C_10
REMARK    5  A    between atoms: C_10  and  C_11
REMARK    6  A    between atoms: C_11  and  C_13
REMARK                            x       y       z     vdW  Elec       q    Type
REMARK                         _______ _______ _______ _____ _____    ______ ____
ROOT
ATOM      1  C   UNL     1       2.572   5.865  18.886  0.00  0.00    +0.000 A 
ATOM      2  C   UNL     1       3.155   5.270  17.780  0.00  0.00    +0.000 A 
ATOM      3  N   UNL     1       3.549   3.968  18.114  0.00  0.00    +0.000 N 
ATOM      4  C   UNL     1       3.100   3.726  19.354  0.00  0.00    +0.000 A 
ATOM      5  N   UNL     1       2.572   4.856  19.827  0.00  0.00    +0.000 N 
ATOM      6  C   UNL     1       2.029   4.716  21.170  0.00  0.00    +0.000 C 
ATOM      7  C   UNL     1       2.311   3.245  21.551  0.00  0.00    +0.000 C 
ATOM      8  C   UNL     1       3.058   2.628  20.352  0.00  0.00    +0.000 C 
ENDROOT
BRANCH   1  12
ATOM      9  C   UNL     1       1.193   9.919  19.230  0.00  0.00    +0.000 A 
ATOM     10  C   UNL     1       1.673   9.439  18.011  0.00  0.00    +0.000 A 
ATOM     11  C   UNL     1       2.133   8.124  17.894  0.00  0.00    +0.000 A 
ATOM     12  C   UNL     1       2.102   7.278  19.004  0.00  0.00    +0.000 A 
ATOM     13  C   UNL     1       1.647   7.766  20.233  0.00  0.00    +0.000 A 
ATOM     14  C   UNL     1       1.203   9.086  20.347  0.00  0.00    +0.000 A 
BRANCH   9  16
ATOM     15  C   UNL     1      -0.621  11.428  19.396  0.00  0.00    +0.000 C 
ATOM     16  O   UNL     1       0.778  11.221  19.221  0.00  0.00    +0.000 OA
ENDBRANCH   9  16
ENDBRANCH   1  12
BRANCH   3  17
ATOM     17  C   UNL     1       4.453   3.139  17.277  0.00  0.00    +0.000 C 
BRANCH  17  18
ATOM     18  C   UNL     1       5.470   3.902  16.446  0.00  0.00    +0.000 C 
ATOM     19  O   UNL     1       5.650   3.647  15.255  0.00  0.00    +0.000 OA
BRANCH  18  20
ATOM     20  C   UNL     1       6.256   5.034  17.039  0.00  0.00    +0.000 A 
ATOM     21  C   UNL     1       7.131   4.671  18.083  0.00  0.00    +0.000 A 
ATOM     22  C   UNL     1       7.910   5.622  18.744  0.00  0.00    +0.000 A 
ATOM     23  C   UNL     1       7.831   6.958  18.374  0.00  0.00    +0.000 A 
ATOM     24  C   UNL     1       6.969   7.339  17.348  0.00  0.00    +0.000 A 
ATOM     25  C   UNL     1       6.180   6.389  16.679  0.00  0.00    +0.000 A 
ATOM     26 CL   UNL     1       5.124   7.028  15.476  0.00  0.00    +0.000 Cl
ENDBRANCH  18  20
ENDBRANCH  17  18
ENDBRANCH   3  17
TORSDOF 5
ENDMDL
MODEL 4
REMARK VINA RESULT:      -7.9      2.894      8.391
REMARK  Name = 
REMARK  6 active torsions:
REMARK  status: ('A' for Active; 'I' for Inactive)
REMARK    1  A    between atoms: C_1  and  O_2
REMARK    2  A    between atoms: O_2  and  C_3
REMARK    3  A    between atoms: C_6  and  C_7
REMARK    4  A    between atoms: N_9  and  C_10
REMARK    5  A    between atoms: C_10  and  C_11
REMARK    6  A    between atoms: C_11  and  C_13
REMARK                            x       y       z     vdW  Elec       q    Type
REMARK                         _______ _______ _______ _____ _____    ______ ____
ROOT
ATOM      1  C   UNL     1       3.461   5.281  18.300  0.00  0.00    +0.000 A 
ATOM      2  C   UNL     1       3.434   6.344  19.187  0.00  0.00    +0.000 A 
ATOM      3  N   UNL     1       2.372   6.165  20.084  0.00  0.00    +0.000 N 
ATOM      4  C   UNL     1       1.844   4.958  19.835  0.00  0.00    +0.000 A 
ATOM      5  N   UNL     1       2.449   4.461  18.755  0.00  0.00    +0.000 N 
ATOM      6  C   UNL     1       1.973   3.135  18.391  0.00  0.00    +0.000 C 
ATOM      7  C   UNL     1       0.882   2.814  19.438  0.00  0.00    +0.000 C 
ATOM      8  C   UNL     1       0.787   4.052  20.351  0.00  0.00    +0.000 C 
ENDROOT
BRANCH   1  12
ATOM      9  C   UNL     1       6.034   4.820  14.891  0.00  0.00    +0.000 A 
ATOM     10  C   UNL     1       5.700   3.716  15.676  0.00  0.00    +0.000 A 
ATOM     11  C   UNL     1       4.871   3.859  16.793  0.00  0.00    +0.000 A 
ATOM     12  C   UNL     1       4.363   5.118  17.121  0.00  0.00    +0.000 A 
ATOM     13  C   UNL     1       4.720   6.230  16.351  0.00  0.00    +0.000 A 
ATOM     14  C   UNL     1       5.561   6.081  15.245  0.00  0.00    +0.000 A 
BRANCH   9  16
ATOM     15  C   UNL     1       6.327   3.677  12.841  0.00  0.00    +0.000 C 
ATOM     16  O   UNL     1       6.856   4.554  13.831  0.00  0.00    +0.000 OA
ENDBRANCH   9  16
ENDBRANCH   1  12
BRANCH   3  17
ATOM     17  C   UNL     1       1.865   7.231  20.985  0.00  0.00    +0.000 C 
BRANCH  17  18
ATOM     18  C   UNL     1       1.331   8.477  20.301  0.00  0.00    +0.000 C 
ATOM     19  O   UNL     1       1.419   8.631  19.083  0.00  0.00    +0.000 OA
BRANCH  18  20
ATOM     20  C   UNL     1       0.624   9.543  21.085  0.00  0.00    +0.000 A 
ATOM     21  C   UNL     1      -0.033   9.092  22.249  0.00  0.00    +0.000 A 
ATOM     22  C   UNL     1      -0.749   9.968  23.066  0.00  0.00    +0.000 A 
ATOM     23  C   UNL     1      -0.824  11.315  22.737  0.00  0.00    +0.000 A 
ATOM     24  C   UNL     1      -0.185  11.781  21.590  0.00  0.00    +0.000 A 
ATOM     25  C   UNL     1       0.536  10.906  20.761  0.00  0.00    +0.000 A 
ATOM     26 CL   UNL     1       1.217  11.625  19.350  0.00  0.00    +0.000 Cl
ENDBRANCH  18  20
ENDBRANCH  17  18
ENDBRANCH   3  17
TORSDOF 5
ENDMDL
MODEL 5
REMARK VINA RESULT:      -7.8      3.414      8.194
REMARK  Name = 
REMARK  6 active torsions:
REMARK  status: ('A' for Active; 'I' for Inactive)
REMARK    1  A    between atoms: C_1  and  O_2
REMARK    2  A    between atoms: O_2  and  C_3
REMARK    3  A    between atoms: C_6  and  C_7
REMARK    4  A    between atoms: N_9  and  C_10
REMARK    5  A    between atoms: C_10  and  C_11
REMARK    6  A    between atoms: C_11  and  C_13
REMARK                            x       y       z     vdW  Elec       q    Type
REMARK                         _______ _______ _______ _____ _____    ______ ____
ROOT
ATOM      1  C   UNL     1       3.683   5.463  19.014  0.00  0.00    +0.000 A 
ATOM      2  C   UNL     1       2.910   6.539  19.418  0.00  0.00    +0.000 A 
ATOM      3  N   UNL     1       1.997   6.108  20.389  0.00  0.00    +0.000 N 
ATOM      4  C   UNL     1       2.292   4.830  20.669  0.00  0.00    +0.000 A 
ATOM      5  N   UNL     1       3.247   4.436  19.826  0.00  0.00    +0.000 N 
ATOM      6  C   UNL     1       3.670   3.061  20.042  0.00  0.00    +0.000 C 
ATOM      7  C   UNL     1       2.788   2.563  21.209  0.00  0.00    +0.000 C 
ATOM      8  C   UNL     1       1.857   3.736  21.573  0.00  0.00    +0.000 C 
ENDROOT
BRANCH   1  12
ATOM      9  C   UNL     1       6.627   5.458  15.886  0.00  0.00    +0.000 A 
ATOM     10  C   UNL     1       5.451   4.721  15.747  0.00  0.00    +0.000 A 
ATOM     11  C   UNL     1       4.492   4.710  16.765  0.00  0.00    +0.000 A 
ATOM     12  C   UNL     1       4.708   5.451  17.928  0.00  0.00    +0.000 A 
ATOM     13  C   UNL     1       5.900   6.167  18.081  0.00  0.00    +0.000 A 
ATOM     14  C   UNL     1       6.861   6.161  17.065  0.00  0.00    +0.000 A 
BRANCH   9  16
ATOM     15  C   UNL     1       7.018   4.662  13.694  0.00  0.00    +0.000 C 
ATOM     16  O   UNL     1       7.489   5.384  14.828  0.00  0.00    +0.000 OA
ENDBRANCH   9  16
ENDBRANCH   1  12
BRANCH   3  17
ATOM     17  C   UNL     1       0.832   6.911  20.840  0.00  0.00    +0.000 C 
BRANCH  17  18
ATOM     18  C   UNL     1       1.138   8.334  21.275  0.00  0.00    +0.000 C 
ATOM     19  O   UNL     1       2.003   8.578  22.116  0.00  0.00    +0.000 OA
BRANCH  18  20
ATOM     20  C   UNL     1       0.428   9.499  20.652  0.00  0.00    +0.000 A 
ATOM     21  C   UNL     1       0.682   9.687  19.277  0.00  0.00    +0.000 A 
ATOM     22  C   UNL     1       0.107  10.743  18.569  0.00  0.00    +0.000 A 
ATOM     23  C   UNL     1      -0.734  11.635  19.220  0.00  0.00    +0.000 A 
ATOM     24  C   UNL     1      -0.995  11.470  20.579  0.00  0.00    +0.000 A 
ATOM     25  C   UNL     1      -0.420  10.411  21.300  0.00  0.00    +0.000 A 
ATOM     26 CL   UNL     1      -0.793  10.380  22.983  0.00  0.00    +0.000 Cl
ENDBRANCH  18  20
ENDBRANCH  17  18
ENDBRANCH   3  17
TORSDOF 5
ENDMDL
MODEL 6
REMARK VINA RESULT:      -7.8      2.901      8.337
REMARK  Name = 
REMARK  6 active torsions:
REMARK  status: ('A' for Active; 'I' for Inactive)
REMARK    1  A    between atoms: C_1  and  O_2
REMARK    2  A    between atoms: O_2  and  C_3
REMARK    3  A    between atoms: C_6  and  C_7
REMARK    4  A    between atoms: N_9  and  C_10
REMARK    5  A    between atoms: C_10  and  C_11
REMARK    6  A    between atoms: C_11  and  C_13
REMARK                            x       y       z     vdW  Elec       q    Type
REMARK                         _______ _______ _______ _____ _____    ______ ____
ROOT
ATOM      1  C   UNL     1       3.622   5.187  18.420  0.00  0.00    +0.000 A 
ATOM      2  C   UNL     1       3.340   6.192  19.331  0.00  0.00    +0.000 A 
ATOM      3  N   UNL     1       2.180   5.855  20.041  0.00  0.00    +0.000 N 
ATOM      4  C   UNL     1       1.835   4.615  19.667  0.00  0.00    +0.000 A 
ATOM      5  N   UNL     1       2.650   4.242  18.679  0.00  0.00    +0.000 N 
ATOM      6  C   UNL     1       2.386   2.895  18.196  0.00  0.00    +0.000 C 
ATOM      7  C   UNL     1       1.191   2.407  19.044  0.00  0.00    +0.000 C 
ATOM      8  C   UNL     1       0.819   3.577  19.976  0.00  0.00    +0.000 C 
ENDROOT
BRANCH   1  12
ATOM      9  C   UNL     1       6.746   5.144  15.472  0.00  0.00    +0.000 A 
ATOM     10  C   UNL     1       6.909   5.855  16.662  0.00  0.00    +0.000 A 
ATOM     11  C   UNL     1       5.893   5.882  17.622  0.00  0.00    +0.000 A 
ATOM     12  C   UNL     1       4.707   5.183  17.394  0.00  0.00    +0.000 A 
ATOM     13  C   UNL     1       4.531   4.493  16.190  0.00  0.00    +0.000 A 
ATOM     14  C   UNL     1       5.545   4.483  15.228  0.00  0.00    +0.000 A 
BRANCH   9  16
ATOM     15  C   UNL     1       7.507   4.938  13.243  0.00  0.00    +0.000 C 
ATOM     16  O   UNL     1       7.806   5.199  14.611  0.00  0.00    +0.000 OA
ENDBRANCH   9  16
ENDBRANCH   1  12
BRANCH   3  17
ATOM     17  C   UNL     1       1.426   6.812  20.889  0.00  0.00    +0.000 C 
BRANCH  17  18
ATOM     18  C   UNL     1       1.287   8.220  20.336  0.00  0.00    +0.000 C 
ATOM     19  O   UNL     1       1.790   8.541  19.259  0.00  0.00    +0.000 OA
BRANCH  18  20
ATOM     20  C   UNL     1       0.483   9.258  21.063  0.00  0.00    +0.000 A 
ATOM     21  C   UNL     1       0.385   9.068  22.456  0.00  0.00    +0.000 A 
ATOM     22  C   UNL     1      -0.350   9.943  23.260  0.00  0.00    +0.000 A 
ATOM     23  C   UNL     1      -1.001  11.026  22.686  0.00  0.00    +0.000 A 
ATOM     24  C   UNL     1      -0.920  11.229  21.309  0.00  0.00    +0.000 A 
ATOM     25  C   UNL     1      -0.185  10.353  20.494  0.00  0.00    +0.000 A 
ATOM     26 CL   UNL     1      -0.232  10.707  18.807  0.00  0.00    +0.000 Cl
ENDBRANCH  18  20
ENDBRANCH  17  18
ENDBRANCH   3  17
TORSDOF 5
ENDMDL
MODEL 7
REMARK VINA RESULT:      -7.8      2.636      7.921
REMARK  Name = 
REMARK  6 active torsions:
REMARK  status: ('A' for Active; 'I' for Inactive)
REMARK    1  A    between atoms: C_1  and  O_2
REMARK    2  A    between atoms: O_2  and  C_3
REMARK    3  A    between atoms: C_6  and  C_7
REMARK    4  A    between atoms: N_9  and  C_10
REMARK    5  A    between atoms: C_10  and  C_11
REMARK    6  A    between atoms: C_11  and  C_13
REMARK                            x       y       z     vdW  Elec       q    Type
REMARK                         _______ _______ _______ _____ _____    ______ ____
ROOT
ATOM      1  C   UNL     1       3.759   5.434  18.990  0.00  0.00    +0.000 A 
ATOM      2  C   UNL     1       2.990   6.521  19.371  0.00  0.00    +0.000 A 
ATOM      3  N   UNL     1       2.048   6.105  20.321  0.00  0.00    +0.000 N 
ATOM      4  C   UNL     1       2.320   4.825  20.613  0.00  0.00    +0.000 A 
ATOM      5  N   UNL     1       3.291   4.416  19.795  0.00  0.00    +0.000 N 
ATOM      6  C   UNL     1       3.691   3.036  20.027  0.00  0.00    +0.000 C 
ATOM      7  C   UNL     1       2.774   2.554  21.173  0.00  0.00    +0.000 C 
ATOM      8  C   UNL     1       1.849   3.740  21.510  0.00  0.00    +0.000 C 
ENDROOT
BRANCH   1  12
ATOM      9  C   UNL     1       6.781   5.380  15.938  0.00  0.00    +0.000 A 
ATOM     10  C   UNL     1       5.563   4.731  15.735  0.00  0.00    +0.000 A 
ATOM     11  C   UNL     1       4.578   4.735  16.727  0.00  0.00    +0.000 A 
ATOM     12  C   UNL     1       4.810   5.405  17.930  0.00  0.00    +0.000 A 
ATOM     13  C   UNL     1       6.041   6.032  18.146  0.00  0.00    +0.000 A 
ATOM     14  C   UNL     1       7.027   6.011  17.155  0.00  0.00    +0.000 A 
BRANCH   9  16
ATOM     15  C   UNL     1       7.139   4.789  13.676  0.00  0.00    +0.000 C 
ATOM     16  O   UNL     1       7.664   5.300  14.898  0.00  0.00    +0.000 OA
ENDBRANCH   9  16
ENDBRANCH   1  12
BRANCH   3  17
ATOM     17  C   UNL     1       0.883   6.924  20.741  0.00  0.00    +0.000 C 
BRANCH  17  18
ATOM     18  C   UNL     1       1.191   8.356  21.143  0.00  0.00    +0.000 C 
ATOM     19  O   UNL     1       2.050   8.617  21.985  0.00  0.00    +0.000 OA
BRANCH  18  20
ATOM     20  C   UNL     1       0.491   9.509  20.485  0.00  0.00    +0.000 A 
ATOM     21  C   UNL     1      -0.341  10.266  21.336  0.00  0.00    +0.000 A 
ATOM     22  C   UNL     1      -1.071  11.356  20.858  0.00  0.00    +0.000 A 
ATOM     23  C   UNL     1      -0.986  11.711  19.519  0.00  0.00    +0.000 A 
ATOM     24  C   UNL     1      -0.173  10.973  18.660  0.00  0.00    +0.000 A 
ATOM     25  C   UNL     1       0.564   9.875  19.132  0.00  0.00    +0.000 A 
ATOM     26 CL   UNL     1       1.473   9.031  17.935  0.00  0.00    +0.000 Cl
ENDBRANCH  18  20
ENDBRANCH  17  18
ENDBRANCH   3  17
TORSDOF 5
ENDMDL
MODEL 8
REMARK VINA RESULT:      -7.7      0.977      1.069
REMARK  Name = 
REMARK  6 active torsions:
REMARK  status: ('A' for Active; 'I' for Inactive)
REMARK    1  A    between atoms: C_1  and  O_2
REMARK    2  A    between atoms: O_2  and  C_3
REMARK    3  A    between atoms: C_6  and  C_7
REMARK    4  A    between atoms: N_9  and  C_10
REMARK    5  A    between atoms: C_10  and  C_11
REMARK    6  A    between atoms: C_11  and  C_13
REMARK                            x       y       z     vdW  Elec       q    Type
REMARK                         _______ _______ _______ _____ _____    ______ ____
ROOT
ATOM      1  C   UNL     1       3.325   7.044  17.950  0.00  0.00    +0.000 A 
ATOM      2  C   UNL     1       4.419   7.421  17.189  0.00  0.00    +0.000 A 
ATOM      3  N   UNL     1       5.177   6.283  16.882  0.00  0.00    +0.000 N 
ATOM      4  C   UNL     1       4.494   5.221  17.330  0.00  0.00    +0.000 A 
ATOM      5  N   UNL     1       3.432   5.669  18.002  0.00  0.00    +0.000 N 
ATOM      6  C   UNL     1       2.594   4.602  18.527  0.00  0.00    +0.000 C 
ATOM      7  C   UNL     1       3.308   3.301  18.098  0.00  0.00    +0.000 C 
ATOM      8  C   UNL     1       4.582   3.739  17.349  0.00  0.00    +0.000 C 
ENDROOT
BRANCH   1  12
ATOM      9  C   UNL     1       0.396   9.615  19.757  0.00  0.00    +0.000 A 
ATOM     10  C   UNL     1       0.732   9.766  18.411  0.00  0.00    +0.000 A 
ATOM     11  C   UNL     1       1.691   8.940  17.818  0.00  0.00    +0.000 A 
ATOM     12  C   UNL     1       2.313   7.946  18.576  0.00  0.00    +0.000 A 
ATOM     13  C   UNL     1       1.998   7.812  19.932  0.00  0.00    +0.000 A 
ATOM     14  C   UNL     1       1.049   8.651  20.522  0.00  0.00    +0.000 A 
BRANCH   9  16
ATOM     15  C   UNL     1      -1.328  11.145  19.229  0.00  0.00    +0.000 C 
ATOM     16  O   UNL     1      -0.549  10.485  20.223  0.00  0.00    +0.000 OA
ENDBRANCH   9  16
ENDBRANCH   1  12
BRANCH   3  17
ATOM     17  C   UNL     1       6.555   6.334  16.331  0.00  0.00    +0.000 C 
BRANCH  17  18
ATOM     18  C   UNL     1       7.094   5.028  15.775  0.00  0.00    +0.000 C 
ATOM     19  O   UNL     1       7.744   4.251  16.473  0.00  0.00    +0.000 OA
BRANCH  18  20
ATOM     20  C   UNL     1       6.806   4.615  14.361  0.00  0.00    +0.000 A 
ATOM     21  C   UNL     1       5.686   3.773  14.202  0.00  0.00    +0.000 A 
ATOM     22  C   UNL     1       5.309   3.291  12.947  0.00  0.00    +0.000 A 
ATOM     23  C   UNL     1       6.046   3.642  11.824  0.00  0.00    +0.000 A 
ATOM     24  C   UNL     1       7.159   4.470  11.959  0.00  0.00    +0.000 A 
ATOM     25  C   UNL     1       7.545   4.957  13.218  0.00  0.00    +0.000 A 
ATOM     26 CL   UNL     1       8.976   5.918  13.226  0.00  0.00    +0.000 Cl
ENDBRANCH  18  20
ENDBRANCH  17  18
ENDBRANCH   3  17
TORSDOF 5
ENDMDL
MODEL 9
REMARK VINA RESULT:      -7.6      1.980      2.387
REMARK  Name = 
REMARK  6 active torsions:
REMARK  status: ('A' for Active; 'I' for Inactive)
REMARK    1  A    between atoms: C_1  and  O_2
REMARK    2  A    between atoms: O_2  and  C_3
REMARK    3  A    between atoms: C_6  and  C_7
REMARK    4  A    between atoms: N_9  and  C_10
REMARK    5  A    between atoms: C_10  and  C_11
REMARK    6  A    between atoms: C_11  and  C_13
REMARK                            x       y       z     vdW  Elec       q    Type
REMARK                         _______ _______ _______ _____ _____    ______ ____
ROOT
ATOM      1  C   UNL     1       2.699   6.179  19.549  0.00  0.00    +0.000 A 
ATOM      2  C   UNL     1       3.979   5.847  19.140  0.00  0.00    +0.000 A 
ATOM      3  N   UNL     1       4.213   4.494  19.419  0.00  0.00    +0.000 N 
ATOM      4  C   UNL     1       3.060   3.978  19.865  0.00  0.00    +0.000 A 
ATOM      5  N   UNL     1       2.185   4.977  19.991  0.00  0.00    +0.000 N 
ATOM      6  C   UNL     1       0.877   4.538  20.455  0.00  0.00    +0.000 C 
ATOM      7  C   UNL     1       1.028   3.013  20.652  0.00  0.00    +0.000 C 
ATOM      8  C   UNL     1       2.490   2.677  20.298  0.00  0.00    +0.000 C 
ENDROOT
BRANCH   1  12
ATOM      9  C   UNL     1       0.872  10.067  19.507  0.00  0.00    +0.000 A 
ATOM     10  C   UNL     1       1.489   9.566  18.361  0.00  0.00    +0.000 A 
ATOM     11  C   UNL     1       2.094   8.305  18.369  0.00  0.00    +0.000 A 
ATOM     12  C   UNL     1       2.073   7.534  19.533  0.00  0.00    +0.000 A 
ATOM     13  C   UNL     1       1.480   8.047  20.691  0.00  0.00    +0.000 A 
ATOM     14  C   UNL     1       0.891   9.315  20.680  0.00  0.00    +0.000 A 
BRANCH   9  16
ATOM     15  C   UNL     1       1.170  12.307  18.812  0.00  0.00    +0.000 C 
ATOM     16  O   UNL     1       0.323  11.311  19.377  0.00  0.00    +0.000 OA
ENDBRANCH   9  16
ENDBRANCH   1  12
BRANCH   3  17
ATOM     17  C   UNL     1       5.558   3.865  19.380  0.00  0.00    +0.000 C 
BRANCH  17  18
ATOM     18  C   UNL     1       6.576   4.534  18.474  0.00  0.00    +0.000 C 
ATOM     19  O   UNL     1       7.690   4.857  18.886  0.00  0.00    +0.000 OA
BRANCH  18  20
ATOM     20  C   UNL     1       6.276   4.777  17.024  0.00  0.00    +0.000 A 
ATOM     21  C   UNL     1       6.072   3.613  16.254  0.00  0.00    +0.000 A 
ATOM     22  C   UNL     1       5.805   3.684  14.886  0.00  0.00    +0.000 A 
ATOM     23  C   UNL     1       5.736   4.920  14.258  0.00  0.00    +0.000 A 
ATOM     24  C   UNL     1       5.937   6.083  15.000  0.00  0.00    +0.000 A 
ATOM     25  C   UNL     1       6.209   6.021  16.377  0.00  0.00    +0.000 A 
ATOM     26 CL   UNL     1       6.493   7.541  17.138  0.00  0.00    +0.000 Cl
ENDBRANCH  18  20
ENDBRANCH  17  18
ENDBRANCH   3  17
TORSDOF 5
ENDMDL
