MODEL 1
REMARK VINA RESULT:      -8.4      0.000      0.000
REMARK  Name = 
REMARK  5 active torsions:
REMARK  status: ('A' for Active; 'I' for Inactive)
REMARK    1  A    between atoms: C_1  and  C_2
REMARK    2  A    between atoms: C_4  and  S_5
REMARK    3  A    between atoms: S_5  and  N_8
REMARK    4  A    between atoms: C_15  and  N_16
REMARK    5  A    between atoms: N_19  and  C_20
REMARK                            x       y       z     vdW  Elec       q    Type
REMARK                         _______ _______ _______ _____ _____    ______ ____
ROOT
ATOM      1  C   UNL     1       2.007   4.266  17.606  0.00  0.00    +0.000 C 
ATOM      2  C   UNL     1       3.146   5.206  17.629  0.00  0.00    +0.000 A 
ATOM      3  O   UNL     1       4.256   4.740  16.986  0.00  0.00    +0.000 OA
ATOM      4  C   UNL     1       5.253   5.682  17.075  0.00  0.00    +0.000 A 
ATOM      5  C   UNL     1       4.741   6.753  17.786  0.00  0.00    +0.000 A 
ATOM      6  C   UNL     1       3.396   6.467  18.151  0.00  0.00    +0.000 A 
ENDROOT
BRANCH   6   7
ATOM      7  N   UNL     1       2.518   7.276  18.877  0.00  0.00    +0.000 N 
ATOM      8  C   UNL     1       2.066   8.493  18.385  0.00  0.00    +0.000 C 
ATOM      9  O   UNL     1       2.349   8.938  17.274  0.00  0.00    +0.000 OA
ATOM     10  N   UNL     1       1.274   9.200  19.284  0.00  0.00    +0.000 N 
ATOM     11  H   UNL     1       2.150   6.925  19.748  0.00  0.00    +0.000 HD
ATOM     12  H   UNL     1       1.584   9.132  20.243  0.00  0.00    +0.000 HD
BRANCH  10  13
ATOM     13  C   UNL     1       0.800  10.480  18.880  0.00  0.00    +0.000 A 
ATOM     14  C   UNL     1       1.646  11.599  18.910  0.00  0.00    +0.000 A 
ATOM     15  C   UNL     1       1.142  12.875  18.649  0.00  0.00    +0.000 A 
ATOM     16  C   UNL     1      -0.208  13.027  18.365  0.00  0.00    +0.000 A 
ATOM     17  F   UNL     1      -0.706  14.254  18.162  0.00  0.00    +0.000 F 
ATOM     18  C   UNL     1      -1.054  11.923  18.305  0.00  0.00    +0.000 A 
ATOM     19  C   UNL     1      -0.547  10.641  18.538  0.00  0.00    +0.000 A 
ENDBRANCH  10  13
ENDBRANCH   6   7
BRANCH   4  20
ATOM     20  S   UNL     1       6.868   5.446  16.319  0.00  0.00    +0.000 S 
ATOM     21  O   UNL     1       7.518   6.729  16.424  0.00  0.00    +0.000 OA
ATOM     22  O   UNL     1       7.398   4.260  16.955  0.00  0.00    +0.000 OA
BRANCH  20  23
ATOM     23  N   UNL     1       6.606   5.105  14.649  0.00  0.00    +0.000 NA
ATOM     24  C   UNL     1       7.795   5.357  13.796  0.00  0.00    +0.000 C 
ATOM     25  C   UNL     1       7.475   5.144  12.322  0.00  0.00    +0.000 C 
ATOM     26  C   UNL     1       6.880   3.760  12.085  0.00  0.00    +0.000 C 
ATOM     27  C   UNL     1       5.630   3.590  12.936  0.00  0.00    +0.000 C 
ATOM     28  C   UNL     1       5.934   3.804  14.418  0.00  0.00    +0.000 C 
ENDBRANCH  20  23
ENDBRANCH   4  20
TORSDOF 4
ENDMDL
MODEL 2
REMARK VINA RESULT:      -8.1      1.827      2.091
REMARK  Name = 
REMARK  5 active torsions:
REMARK  status: ('A' for Active; 'I' for Inactive)
REMARK    1  A    between atoms: C_1  and  C_2
REMARK    2  A    between atoms: C_4  and  S_5
REMARK    3  A    between atoms: S_5  and  N_8
REMARK    4  A    between atoms: C_15  and  N_16
REMARK    5  A    between atoms: N_19  and  C_20
REMARK                            x       y       z     vdW  Elec       q    Type
REMARK                         _______ _______ _______ _____ _____    ______ ____
ROOT
ATOM      1  C   UNL     1       2.259   4.003  17.373  0.00  0.00    +0.000 C 
ATOM      2  C   UNL     1       3.478   4.757  17.731  0.00  0.00    +0.000 A 
ATOM      3  O   UNL     1       4.501   4.600  16.842  0.00  0.00    +0.000 OA
ATOM      4  C   UNL     1       5.583   5.331  17.272  0.00  0.00    +0.000 A 
ATOM      5  C   UNL     1       5.213   5.953  18.451  0.00  0.00    +0.000 A 
ATOM      6  C   UNL     1       3.871   5.597  18.763  0.00  0.00    +0.000 A 
ENDROOT
BRANCH   6   7
ATOM      7  N   UNL     1       3.114   6.002  19.865  0.00  0.00    +0.000 N 
ATOM      8  C   UNL     1       2.382   7.181  19.857  0.00  0.00    +0.000 C 
ATOM      9  O   UNL     1       2.293   7.935  18.889  0.00  0.00    +0.000 OA
ATOM     10  N   UNL     1       1.767   7.466  21.073  0.00  0.00    +0.000 N 
ATOM     11  H   UNL     1       3.044   5.379  20.654  0.00  0.00    +0.000 HD
ATOM     12  H   UNL     1       2.328   7.230  21.879  0.00  0.00    +0.000 HD
BRANCH  10  13
ATOM     13  C   UNL     1       1.028   8.678  21.170  0.00  0.00    +0.000 A 
ATOM     14  C   UNL     1       0.639   9.181  22.422  0.00  0.00    +0.000 A 
ATOM     15  C   UNL     1      -0.205  10.291  22.508  0.00  0.00    +0.000 A 
ATOM     16  C   UNL     1      -0.661  10.889  21.341  0.00  0.00    +0.000 A 
ATOM     17  F   UNL     1      -1.508  11.923  21.417  0.00  0.00    +0.000 F 
ATOM     18  C   UNL     1      -0.262  10.418  20.093  0.00  0.00    +0.000 A 
ATOM     19  C   UNL     1       0.605   9.324  20.004  0.00  0.00    +0.000 A 
ENDBRANCH  10  13
ENDBRANCH   6   7
BRANCH   4  20
ATOM     20  S   UNL     1       7.123   5.404  16.345  0.00  0.00    +0.000 S 
ATOM     21  O   UNL     1       7.553   6.776  16.446  0.00  0.00    +0.000 OA
ATOM     22  O   UNL     1       7.913   4.310  16.865  0.00  0.00    +0.000 OA
BRANCH  20  23
ATOM     23  N   UNL     1       6.743   5.074  14.696  0.00  0.00    +0.000 NA
ATOM     24  C   UNL     1       7.865   5.344  13.761  0.00  0.00    +0.000 C 
ATOM     25  C   UNL     1       7.440   5.140  12.312  0.00  0.00    +0.000 C 
ATOM     26  C   UNL     1       6.841   3.752  12.107  0.00  0.00    +0.000 C 
ATOM     27  C   UNL     1       5.658   3.564  13.045  0.00  0.00    +0.000 C 
ATOM     28  C   UNL     1       6.067   3.768  14.502  0.00  0.00    +0.000 C 
ENDBRANCH  20  23
ENDBRANCH   4  20
TORSDOF 4
ENDMDL
MODEL 3
REMARK VINA RESULT:      -8.0      4.154      5.410
REMARK  Name = 
REMARK  5 active torsions:
REMARK  status: ('A' for Active; 'I' for Inactive)
REMARK    1  A    between atoms: C_1  and  C_2
REMARK    2  A    between atoms: C_4  and  S_5
REMARK    3  A    between atoms: S_5  and  N_8
REMARK    4  A    between atoms: C_15  and  N_16
REMARK    5  A    between atoms: N_19  and  C_20
REMARK                            x       y       z     vdW  Elec       q    Type
REMARK                         _______ _______ _______ _____ _____    ______ ____
ROOT
ATOM      1  C   UNL     1       1.024   8.960  21.291  0.00  0.00    +0.000 C 
ATOM      2  C   UNL     1       1.572   8.551  19.982  0.00  0.00    +0.000 A 
ATOM      3  O   UNL     1       2.339   7.423  20.036  0.00  0.00    +0.000 OA
ATOM      4  C   UNL     1       2.804   7.138  18.775  0.00  0.00    +0.000 A 
ATOM      5  C   UNL     1       2.308   8.111  17.926  0.00  0.00    +0.000 A 
ATOM      6  C   UNL     1       1.519   9.025  18.679  0.00  0.00    +0.000 A 
ENDROOT
BRANCH   6   7
ATOM      7  N   UNL     1       0.842  10.154  18.212  0.00  0.00    +0.000 N 
ATOM      8  C   UNL     1      -0.543  10.243  18.244  0.00  0.00    +0.000 C 
ATOM      9  O   UNL     1      -1.281   9.380  18.719  0.00  0.00    +0.000 OA
ATOM     10  N   UNL     1      -1.044  11.399  17.654  0.00  0.00    +0.000 N 
ATOM     11  H   UNL     1       1.383  10.951  17.915  0.00  0.00    +0.000 HD
ATOM     12  H   UNL     1      -0.544  11.682  16.824  0.00  0.00    +0.000 HD
BRANCH  10  13
ATOM     13  C   UNL     1      -2.458  11.554  17.604  0.00  0.00    +0.000 A 
ATOM     14  C   UNL     1      -3.174  11.958  18.742  0.00  0.00    +0.000 A 
ATOM     15  C   UNL     1      -4.571  11.973  18.732  0.00  0.00    +0.000 A 
ATOM     16  C   UNL     1      -5.245  11.578  17.585  0.00  0.00    +0.000 A 
ATOM     17  F   UNL     1      -6.584  11.544  17.585  0.00  0.00    +0.000 F 
ATOM     18  C   UNL     1      -4.548  11.201  16.439  0.00  0.00    +0.000 A 
ATOM     19  C   UNL     1      -3.150  11.212  16.438  0.00  0.00    +0.000 A 
ENDBRANCH  10  13
ENDBRANCH   6   7
BRANCH   4  20
ATOM     20  S   UNL     1       3.831   5.701  18.432  0.00  0.00    +0.000 S 
ATOM     21  O   UNL     1       3.958   5.670  16.996  0.00  0.00    +0.000 OA
ATOM     22  O   UNL     1       4.974   5.853  19.304  0.00  0.00    +0.000 OA
BRANCH  20  23
ATOM     23  N   UNL     1       2.941   4.309  18.927  0.00  0.00    +0.000 NA
ATOM     24  C   UNL     1       2.803   4.183  20.401  0.00  0.00    +0.000 C 
ATOM     25  C   UNL     1       2.105   2.885  20.784  0.00  0.00    +0.000 C 
ATOM     26  C   UNL     1       0.766   2.751  20.068  0.00  0.00    +0.000 C 
ATOM     27  C   UNL     1       0.983   2.819  18.563  0.00  0.00    +0.000 C 
ATOM     28  C   UNL     1       1.685   4.116  18.162  0.00  0.00    +0.000 C 
ENDBRANCH  20  23
ENDBRANCH   4  20
TORSDOF 4
ENDMDL
MODEL 4
REMARK VINA RESULT:      -7.9      5.309      6.909
REMARK  Name = 
REMARK  5 active torsions:
REMARK  status: ('A' for Active; 'I' for Inactive)
REMARK    1  A    between atoms: C_1  and  C_2
REMARK    2  A    between atoms: C_4  and  S_5
REMARK    3  A    between atoms: S_5  and  N_8
REMARK    4  A    between atoms: C_15  and  N_16
REMARK    5  A    between atoms: N_19  and  C_20
REMARK                            x       y       z     vdW  Elec       q    Type
REMARK                         _______ _______ _______ _____ _____    ______ ____
ROOT
ATOM      1  C   UNL     1       8.366   5.282  20.331  0.00  0.00    +0.000 C 
ATOM      2  C   UNL     1       7.910   6.003  19.125  0.00  0.00    +0.000 A 
ATOM      3  O   UNL     1       7.102   5.260  18.314  0.00  0.00    +0.000 OA
ATOM      4  C   UNL     1       6.745   6.018  17.225  0.00  0.00    +0.000 A 
ATOM      5  C   UNL     1       7.346   7.255  17.372  0.00  0.00    +0.000 A 
ATOM      6  C   UNL     1       8.097   7.266  18.581  0.00  0.00    +0.000 A 
ENDROOT
BRANCH   6   7
ATOM      7  N   UNL     1       8.857   8.313  19.105  0.00  0.00    +0.000 N 
ATOM      8  C   UNL     1       8.805   9.594  18.571  0.00  0.00    +0.000 C 
ATOM      9  O   UNL     1       8.068   9.929  17.645  0.00  0.00    +0.000 OA
ATOM     10  N   UNL     1       9.698  10.483  19.162  0.00  0.00    +0.000 N 
ATOM     11  H   UNL     1       9.399   8.145  19.938  0.00  0.00    +0.000 HD
ATOM     12  H   UNL     1      10.592  10.072  19.391  0.00  0.00    +0.000 HD
BRANCH  10  13
ATOM     13  C   UNL     1       9.744  11.810  18.650  0.00  0.00    +0.000 A 
ATOM     14  C   UNL     1      10.625  12.146  17.609  0.00  0.00    +0.000 A 
ATOM     15  C   UNL     1      10.769  13.475  17.205  0.00  0.00    +0.000 A 
ATOM     16  C   UNL     1      10.037  14.463  17.848  0.00  0.00    +0.000 A 
ATOM     17  F   UNL     1      10.207  15.744  17.497  0.00  0.00    +0.000 F 
ATOM     18  C   UNL     1       9.139  14.142  18.863  0.00  0.00    +0.000 A 
ATOM     19  C   UNL     1       8.971  12.809  19.250  0.00  0.00    +0.000 A 
ENDBRANCH  10  13
ENDBRANCH   6   7
BRANCH   4  20
ATOM     20  S   UNL     1       5.654   5.394  15.937  0.00  0.00    +0.000 S 
ATOM     21  O   UNL     1       5.490   6.498  15.023  0.00  0.00    +0.000 OA
ATOM     22  O   UNL     1       6.249   4.140  15.531  0.00  0.00    +0.000 OA
BRANCH  20  23
ATOM     23  N   UNL     1       4.130   5.069  16.673  0.00  0.00    +0.000 NA
ATOM     24  C   UNL     1       3.947   3.646  17.061  0.00  0.00    +0.000 C 
ATOM     25  C   UNL     1       2.547   3.396  17.606  0.00  0.00    +0.000 C 
ATOM     26  C   UNL     1       2.226   4.349  18.751  0.00  0.00    +0.000 C 
ATOM     27  C   UNL     1       2.365   5.787  18.272  0.00  0.00    +0.000 C 
ATOM     28  C   UNL     1       3.764   6.054  17.720  0.00  0.00    +0.000 C 
ENDBRANCH  20  23
ENDBRANCH   4  20
TORSDOF 4
ENDMDL
MODEL 5
REMARK VINA RESULT:      -7.9      3.737      5.191
REMARK  Name = 
REMARK  5 active torsions:
REMARK  status: ('A' for Active; 'I' for Inactive)
REMARK    1  A    between atoms: C_1  and  C_2
REMARK    2  A    between atoms: C_4  and  S_5
REMARK    3  A    between atoms: S_5  and  N_8
REMARK    4  A    between atoms: C_15  and  N_16
REMARK    5  A    between atoms: N_19  and  C_20
REMARK                            x       y       z     vdW  Elec       q    Type
REMARK                         _______ _______ _______ _____ _____    ______ ____
ROOT
ATOM      1  C   UNL     1       0.993   9.030  21.305  0.00  0.00    +0.000 C 
ATOM      2  C   UNL     1       1.489   8.664  19.962  0.00  0.00    +0.000 A 
ATOM      3  O   UNL     1       2.301   7.568  19.956  0.00  0.00    +0.000 OA
ATOM      4  C   UNL     1       2.711   7.322  18.668  0.00  0.00    +0.000 A 
ATOM      5  C   UNL     1       2.134   8.289  17.864  0.00  0.00    +0.000 A 
ATOM      6  C   UNL     1       1.350   9.158  18.673  0.00  0.00    +0.000 A 
ENDROOT
BRANCH   6   7
ATOM      7  N   UNL     1       0.605  10.266  18.263  0.00  0.00    +0.000 N 
ATOM      8  C   UNL     1      -0.782  10.281  18.325  0.00  0.00    +0.000 C 
ATOM      9  O   UNL     1      -1.464   9.364  18.781  0.00  0.00    +0.000 OA
ATOM     10  N   UNL     1      -1.354  11.430  17.788  0.00  0.00    +0.000 N 
ATOM     11  H   UNL     1       1.098  11.101  17.985  0.00  0.00    +0.000 HD
ATOM     12  H   UNL     1      -0.887  11.770  16.960  0.00  0.00    +0.000 HD
BRANCH  10  13
ATOM     13  C   UNL     1      -2.775  11.514  17.772  0.00  0.00    +0.000 A 
ATOM     14  C   UNL     1      -3.496  11.222  16.603  0.00  0.00    +0.000 A 
ATOM     15  C   UNL     1      -4.874  11.440  16.548  0.00  0.00    +0.000 A 
ATOM     16  C   UNL     1      -5.524  11.956  17.661  0.00  0.00    +0.000 A 
ATOM     17  F   UNL     1      -6.837  12.212  17.598  0.00  0.00    +0.000 F 
ATOM     18  C   UNL     1      -4.827  12.224  18.836  0.00  0.00    +0.000 A 
ATOM     19  C   UNL     1      -3.452  11.980  18.903  0.00  0.00    +0.000 A 
ENDBRANCH  10  13
ENDBRANCH   6   7
BRANCH   4  20
ATOM     20  S   UNL     1       3.774   5.933  18.246  0.00  0.00    +0.000 S 
ATOM     21  O   UNL     1       4.257   6.225  16.919  0.00  0.00    +0.000 OA
ATOM     22  O   UNL     1       4.664   5.798  19.378  0.00  0.00    +0.000 OA
BRANCH  20  23
ATOM     23  N   UNL     1       2.772   4.532  18.162  0.00  0.00    +0.000 NA
ATOM     24  C   UNL     1       3.519   3.284  17.859  0.00  0.00    +0.000 C 
ATOM     25  C   UNL     1       2.575   2.100  17.690  0.00  0.00    +0.000 C 
ATOM     26  C   UNL     1       1.667   1.946  18.905  0.00  0.00    +0.000 C 
ATOM     27  C   UNL     1       0.882   3.232  19.121  0.00  0.00    +0.000 C 
ATOM     28  C   UNL     1       1.815   4.430  19.290  0.00  0.00    +0.000 C 
ENDBRANCH  20  23
ENDBRANCH   4  20
TORSDOF 4
ENDMDL
MODEL 6
REMARK VINA RESULT:      -7.8      5.273      6.848
REMARK  Name = 
REMARK  5 active torsions:
REMARK  status: ('A' for Active; 'I' for Inactive)
REMARK    1  A    between atoms: C_1  and  C_2
REMARK    2  A    between atoms: C_4  and  S_5
REMARK    3  A    between atoms: S_5  and  N_8
REMARK    4  A    between atoms: C_15  and  N_16
REMARK    5  A    between atoms: N_19  and  C_20
REMARK                            x       y       z     vdW  Elec       q    Type
REMARK                         _______ _______ _______ _____ _____    ______ ____
ROOT
ATOM      1  C   UNL     1       8.429   5.231  20.136  0.00  0.00    +0.000 C 
ATOM      2  C   UNL     1       7.941   6.044  19.003  0.00  0.00    +0.000 A 
ATOM      3  O   UNL     1       7.112   5.366  18.157  0.00  0.00    +0.000 OA
ATOM      4  C   UNL     1       6.728   6.205  17.140  0.00  0.00    +0.000 A 
ATOM      5  C   UNL     1       7.332   7.429  17.368  0.00  0.00    +0.000 A 
ATOM      6  C   UNL     1       8.114   7.346  18.554  0.00  0.00    +0.000 A 
ENDROOT
BRANCH   6   7
ATOM      7  N   UNL     1       8.887   8.351  19.139  0.00  0.00    +0.000 N 
ATOM      8  C   UNL     1       8.854   9.661  18.681  0.00  0.00    +0.000 C 
ATOM      9  O   UNL     1       8.123  10.059  17.775  0.00  0.00    +0.000 OA
ATOM     10  N   UNL     1       9.758  10.502  19.324  0.00  0.00    +0.000 N 
ATOM     11  H   UNL     1       9.425   8.127  19.962  0.00  0.00    +0.000 HD
ATOM     12  H   UNL     1      10.645  10.066  19.529  0.00  0.00    +0.000 HD
BRANCH  10  13
ATOM     13  C   UNL     1       9.822  11.856  18.889  0.00  0.00    +0.000 A 
ATOM     14  C   UNL     1       9.031  12.842  19.500  0.00  0.00    +0.000 A 
ATOM     15  C   UNL     1       8.989  14.138  18.981  0.00  0.00    +0.000 A 
ATOM     16  C   UNL     1       9.734  14.441  17.850  0.00  0.00    +0.000 A 
ATOM     17  F   UNL     1       9.662  15.668  17.321  0.00  0.00    +0.000 F 
ATOM     18  C   UNL     1      10.545  13.480  17.250  0.00  0.00    +0.000 A 
ATOM     19  C   UNL     1      10.610  12.189  17.784  0.00  0.00    +0.000 A 
ENDBRANCH  10  13
ENDBRANCH   6   7
BRANCH   4  20
ATOM     20  S   UNL     1       5.604   5.683  15.835  0.00  0.00    +0.000 S 
ATOM     21  O   UNL     1       5.231   6.899  15.157  0.00  0.00    +0.000 OA
ATOM     22  O   UNL     1       6.300   4.609  15.163  0.00  0.00    +0.000 OA
BRANCH  20  23
ATOM     23  N   UNL     1       4.200   5.036  16.600  0.00  0.00    +0.000 NA
ATOM     24  C   UNL     1       4.335   3.607  16.982  0.00  0.00    +0.000 C 
ATOM     25  C   UNL     1       3.033   3.061  17.554  0.00  0.00    +0.000 C 
ATOM     26  C   UNL     1       2.539   3.921  18.711  0.00  0.00    +0.000 C 
ATOM     27  C   UNL     1       2.357   5.356  18.239  0.00  0.00    +0.000 C 
ATOM     28  C   UNL     1       3.654   5.919  17.660  0.00  0.00    +0.000 C 
ENDBRANCH  20  23
ENDBRANCH   4  20
TORSDOF 4
ENDMDL
MODEL 7
REMARK VINA RESULT:      -7.8      2.130      2.422
REMARK  Name = 
REMARK  5 active torsions:
REMARK  status: ('A' for Active; 'I' for Inactive)
REMARK    1  A    between atoms: C_1  and  C_2
REMARK    2  A    between atoms: C_4  and  S_5
REMARK    3  A    between atoms: S_5  and  N_8
REMARK    4  A    between atoms: C_15  and  N_16
REMARK    5  A    between atoms: N_19  and  C_20
REMARK                            x       y       z     vdW  Elec       q    Type
REMARK                         _______ _______ _______ _____ _____    ______ ____
ROOT
ATOM      1  C   UNL     1       2.037   4.821  18.142  0.00  0.00    +0.000 C 
ATOM      2  C   UNL     1       3.109   5.698  17.629  0.00  0.00    +0.000 A 
ATOM      3  O   UNL     1       4.238   5.028  17.260  0.00  0.00    +0.000 OA
ATOM      4  C   UNL     1       5.169   5.933  16.810  0.00  0.00    +0.000 A 
ATOM      5  C   UNL     1       4.595   7.189  16.902  0.00  0.00    +0.000 A 
ATOM      6  C   UNL     1       3.278   7.060  17.425  0.00  0.00    +0.000 A 
ENDROOT
BRANCH   6   7
ATOM      7  N   UNL     1       2.358   8.079  17.680  0.00  0.00    +0.000 N 
ATOM      8  C   UNL     1       1.963   8.404  18.971  0.00  0.00    +0.000 C 
ATOM      9  O   UNL     1       2.411   7.872  19.986  0.00  0.00    +0.000 OA
ATOM     10  N   UNL     1       0.972   9.380  19.024  0.00  0.00    +0.000 N 
ATOM     11  H   UNL     1       2.033   8.639  16.906  0.00  0.00    +0.000 HD
ATOM     12  H   UNL     1       0.279   9.298  18.295  0.00  0.00    +0.000 HD
BRANCH  10  13
ATOM     13  C   UNL     1       0.476   9.745  20.307  0.00  0.00    +0.000 A 
ATOM     14  C   UNL     1       0.030   8.766  21.208  0.00  0.00    +0.000 A 
ATOM     15  C   UNL     1      -0.587   9.133  22.406  0.00  0.00    +0.000 A 
ATOM     16  C   UNL     1      -0.759  10.479  22.695  0.00  0.00    +0.000 A 
ATOM     17  F   UNL     1      -1.392  10.837  23.820  0.00  0.00    +0.000 F 
ATOM     18  C   UNL     1      -0.297  11.463  21.824  0.00  0.00    +0.000 A 
ATOM     19  C   UNL     1       0.345  11.098  20.637  0.00  0.00    +0.000 A 
ENDBRANCH  10  13
ENDBRANCH   6   7
BRANCH   4  20
ATOM     20  S   UNL     1       6.786   5.428  16.204  0.00  0.00    +0.000 S 
ATOM     21  O   UNL     1       7.618   6.597  16.348  0.00  0.00    +0.000 OA
ATOM     22  O   UNL     1       7.066   4.192  16.899  0.00  0.00    +0.000 OA
BRANCH  20  23
ATOM     23  N   UNL     1       6.616   5.088  14.522  0.00  0.00    +0.000 NA
ATOM     24  C   UNL     1       7.848   5.350  13.734  0.00  0.00    +0.000 C 
ATOM     25  C   UNL     1       7.610   5.136  12.245  0.00  0.00    +0.000 C 
ATOM     26  C   UNL     1       7.039   3.749  11.975  0.00  0.00    +0.000 C 
ATOM     27  C   UNL     1       5.745   3.569  12.756  0.00  0.00    +0.000 C 
ATOM     28  C   UNL     1       5.967   3.782  14.252  0.00  0.00    +0.000 C 
ENDBRANCH  20  23
ENDBRANCH   4  20
TORSDOF 4
ENDMDL
MODEL 8
REMARK VINA RESULT:      -7.8      3.145      4.154
REMARK  Name = 
REMARK  5 active torsions:
REMARK  status: ('A' for Active; 'I' for Inactive)
REMARK    1  A    between atoms: C_1  and  C_2
REMARK    2  A    between atoms: C_4  and  S_5
REMARK    3  A    between atoms: S_5  and  N_8
REMARK    4  A    between atoms: C_15  and  N_16
REMARK    5  A    between atoms: N_19  and  C_20
REMARK                            x       y       z     vdW  Elec       q    Type
REMARK                         _______ _______ _______ _____ _____    ______ ____
ROOT
ATOM      1  C   UNL     1       2.148   8.927  17.825  0.00  0.00    +0.000 C 
ATOM      2  C   UNL     1       2.240   7.725  18.679  0.00  0.00    +0.000 A 
ATOM      3  O   UNL     1       2.512   6.580  17.988  0.00  0.00    +0.000 OA
ATOM      4  C   UNL     1       2.565   5.528  18.870  0.00  0.00    +0.000 A 
ATOM      5  C   UNL     1       2.323   6.040  20.132  0.00  0.00    +0.000 A 
ATOM      6  C   UNL     1       2.111   7.443  20.031  0.00  0.00    +0.000 A 
ENDROOT
BRANCH   6   7
ATOM      7  N   UNL     1       1.831   8.340  21.064  0.00  0.00    +0.000 N 
ATOM      8  C   UNL     1       0.712   9.162  21.038  0.00  0.00    +0.000 C 
ATOM      9  O   UNL     1      -0.140   9.142  20.152  0.00  0.00    +0.000 OA
ATOM     10  N   UNL     1       0.648  10.054  22.105  0.00  0.00    +0.000 N 
ATOM     11  H   UNL     1       2.422   8.332  21.882  0.00  0.00    +0.000 HD
ATOM     12  H   UNL     1       1.543  10.436  22.371  0.00  0.00    +0.000 HD
BRANCH  10  13
ATOM     13  C   UNL     1      -0.446  10.964  22.137  0.00  0.00    +0.000 A 
ATOM     14  C   UNL     1      -0.523  12.023  21.218  0.00  0.00    +0.000 A 
ATOM     15  C   UNL     1      -1.518  12.995  21.340  0.00  0.00    +0.000 A 
ATOM     16  C   UNL     1      -2.427  12.909  22.385  0.00  0.00    +0.000 A 
ATOM     17  F   UNL     1      -3.353  13.864  22.535  0.00  0.00    +0.000 F 
ATOM     18  C   UNL     1      -2.380  11.849  23.289  0.00  0.00    +0.000 A 
ATOM     19  C   UNL     1      -1.402  10.859  23.152  0.00  0.00    +0.000 A 
ENDBRANCH  10  13
ENDBRANCH   6   7
BRANCH   4  20
ATOM     20  S   UNL     1       2.934   3.848  18.340  0.00  0.00    +0.000 S 
ATOM     21  O   UNL     1       2.920   3.066  19.551  0.00  0.00    +0.000 OA
ATOM     22  O   UNL     1       2.015   3.599  17.252  0.00  0.00    +0.000 OA
BRANCH  20  23
ATOM     23  N   UNL     1       4.541   3.852  17.715  0.00  0.00    +0.000 NA
ATOM     24  C   UNL     1       4.607   4.034  16.242  0.00  0.00    +0.000 C 
ATOM     25  C   UNL     1       6.037   3.921  15.733  0.00  0.00    +0.000 C 
ATOM     26  C   UNL     1       6.960   4.883  16.472  0.00  0.00    +0.000 C 
ATOM     27  C   UNL     1       6.899   4.602  17.967  0.00  0.00    +0.000 C 
ATOM     28  C   UNL     1       5.468   4.708  18.493  0.00  0.00    +0.000 C 
ENDBRANCH  20  23
ENDBRANCH   4  20
TORSDOF 4
ENDMDL
MODEL 9
REMARK VINA RESULT:      -7.7      3.892      5.324
REMARK  Name = 
REMARK  5 active torsions:
REMARK  status: ('A' for Active; 'I' for Inactive)
REMARK    1  A    between atoms: C_1  and  C_2
REMARK    2  A    between atoms: C_4  and  S_5
REMARK    3  A    between atoms: S_5  and  N_8
REMARK    4  A    between atoms: C_15  and  N_16
REMARK    5  A    between atoms: N_19  and  C_20
REMARK                            x       y       z     vdW  Elec       q    Type
REMARK                         _______ _______ _______ _____ _____    ______ ____
ROOT
ATOM      1  C   UNL     1       0.987   8.966  21.292  0.00  0.00    +0.000 C 
ATOM      2  C   UNL     1       1.535   8.537  19.989  0.00  0.00    +0.000 A 
ATOM      3  O   UNL     1       2.328   7.430  20.064  0.00  0.00    +0.000 OA
ATOM      4  C   UNL     1       2.791   7.125  18.807  0.00  0.00    +0.000 A 
ATOM      5  C   UNL     1       2.266   8.066  17.939  0.00  0.00    +0.000 A 
ATOM      6  C   UNL     1       1.461   8.979  18.676  0.00  0.00    +0.000 A 
ENDROOT
BRANCH   6   7
ATOM      7  N   UNL     1       0.754  10.080  18.187  0.00  0.00    +0.000 N 
ATOM      8  C   UNL     1      -0.632  10.138  18.232  0.00  0.00    +0.000 C 
ATOM      9  O   UNL     1      -1.346   9.272  18.736  0.00  0.00    +0.000 OA
ATOM     10  N   UNL     1      -1.165  11.268  17.617  0.00  0.00    +0.000 N 
ATOM     11  H   UNL     1       1.274  10.881  17.864  0.00  0.00    +0.000 HD
ATOM     12  H   UNL     1      -0.679  11.541  16.775  0.00  0.00    +0.000 HD
BRANCH  10  13
ATOM     13  C   UNL     1      -2.583  11.390  17.578  0.00  0.00    +0.000 A 
ATOM     14  C   UNL     1      -3.291  11.134  16.393  0.00  0.00    +0.000 A 
ATOM     15  C   UNL     1      -4.661  11.391  16.318  0.00  0.00    +0.000 A 
ATOM     16  C   UNL     1      -5.317  11.910  17.426  0.00  0.00    +0.000 A 
ATOM     17  F   UNL     1      -6.621  12.203  17.345  0.00  0.00    +0.000 F 
ATOM     18  C   UNL     1      -4.633  12.143  18.617  0.00  0.00    +0.000 A 
ATOM     19  C   UNL     1      -3.266  11.860  18.703  0.00  0.00    +0.000 A 
ENDBRANCH  10  13
ENDBRANCH   6   7
BRANCH   4  20
ATOM     20  S   UNL     1       3.848   5.704  18.490  0.00  0.00    +0.000 S 
ATOM     21  O   UNL     1       4.061   5.710  17.064  0.00  0.00    +0.000 OA
ATOM     22  O   UNL     1       4.938   5.844  19.431  0.00  0.00    +0.000 OA
BRANCH  20  23
ATOM     23  N   UNL     1       2.944   4.294  18.899  0.00  0.00    +0.000 NA
ATOM     24  C   UNL     1       1.765   4.571  19.759  0.00  0.00    +0.000 C 
ATOM     25  C   UNL     1       1.068   3.283  20.176  0.00  0.00    +0.000 C 
ATOM     26  C   UNL     1       0.706   2.437  18.960  0.00  0.00    +0.000 C 
ATOM     27  C   UNL     1       1.964   2.132  18.159  0.00  0.00    +0.000 C 
ATOM     28  C   UNL     1       2.677   3.415  17.735  0.00  0.00    +0.000 C 
ENDBRANCH  20  23
ENDBRANCH   4  20
TORSDOF 4
ENDMDL
