MODEL 1
REMARK VINA RESULT:      -6.7      0.000      0.000
REMARK  Name = 
REMARK  8 active torsions:
REMARK  status: ('A' for Active; 'I' for Inactive)
REMARK    1  A    between atoms: C_1  and  C_2
REMARK    2  A    between atoms: C_2  and  N_3
REMARK    3  A    between atoms: C_2  and  C_8
REMARK    4  A    between atoms: N_3  and  C_4
REMARK    5  A    between atoms: C_4  and  C_5
REMARK    6  A    between atoms: C_4  and  C_6
REMARK    7  A    between atoms: C_4  and  C_7
REMARK    8  A    between atoms: C_8  and  C_10
REMARK                            x       y       z     vdW  Elec       q    Type
REMARK                         _______ _______ _______ _____ _____    ______ ____
ROOT
ATOM      1  C   UNL     1       6.435   5.415  19.023  0.00  0.00    +0.000 C 
ATOM      2  O   UNL     1       7.225   5.310  19.963  0.00  0.00    +0.000 OA
ENDROOT
BRANCH   1   3
ATOM      3  C   UNL     1       5.075   4.813  19.207  0.00  0.00    +0.000 A 
ATOM      4  C   UNL     1       4.809   3.450  19.053  0.00  0.00    +0.000 A 
ATOM      5  C   UNL     1       3.518   2.970  19.276  0.00  0.00    +0.000 A 
ATOM      6  F   UNL     1       3.280   1.659  19.152  0.00  0.00    +0.000 F 
ATOM      7  C   UNL     1       2.479   3.816  19.627  0.00  0.00    +0.000 A 
ATOM      8  C   UNL     1       2.744   5.171  19.750  0.00  0.00    +0.000 A 
ATOM      9  F   UNL     1       1.748   6.009  20.073  0.00  0.00    +0.000 F 
ATOM     10  C   UNL     1       4.023   5.679  19.546  0.00  0.00    +0.000 A 
ENDBRANCH   1   3
BRANCH   1  12
ATOM     11  C   UNL     1       7.836   7.236  18.068  0.00  0.00    +0.000 C 
ATOM     12  C   UNL     1       6.796   6.166  17.715  0.00  0.00    +0.000 C 
BRANCH  12  13
ATOM     13  N   UNL     1       7.280   5.198  16.703  0.00  0.00    +0.000 NA
ATOM     14  H   UNL     1       7.493   4.310  17.155  0.00  0.00    +0.000 HD
BRANCH  13  15
ATOM     15  C   UNL     1       6.439   4.923  15.513  0.00  0.00    +0.000 C 
ATOM     16  C   UNL     1       5.720   3.566  15.605  0.00  0.00    +0.000 C 
ATOM     17  C   UNL     1       5.327   6.001  15.490  0.00  0.00    +0.000 C 
ATOM     18  C   UNL     1       7.217   5.029  14.191  0.00  0.00    +0.000 C 
ENDBRANCH  13  15
ENDBRANCH  12  13
ENDBRANCH   1  12
TORSDOF 4
ENDMDL
MODEL 2
REMARK VINA RESULT:      -6.6      0.781      1.292
REMARK  Name = 
REMARK  8 active torsions:
REMARK  status: ('A' for Active; 'I' for Inactive)
REMARK    1  A    between atoms: C_1  and  C_2
REMARK    2  A    between atoms: C_2  and  N_3
REMARK    3  A    between atoms: C_2  and  C_8
REMARK    4  A    between atoms: N_3  and  C_4
REMARK    5  A    between atoms: C_4  and  C_5
REMARK    6  A    between atoms: C_4  and  C_6
REMARK    7  A    between atoms: C_4  and  C_7
REMARK    8  A    between atoms: C_8  and  C_10
REMARK                            x       y       z     vdW  Elec       q    Type
REMARK                         _______ _______ _______ _____ _____    ______ ____
ROOT
ATOM      1  C   UNL     1       6.335   5.464  18.886  0.00  0.00    +0.000 C 
ATOM      2  O   UNL     1       7.020   5.234  19.885  0.00  0.00    +0.000 OA
ENDROOT
BRANCH   1   3
ATOM      3  C   UNL     1       4.922   4.965  18.903  0.00  0.00    +0.000 A 
ATOM      4  C   UNL     1       4.556   3.704  19.381  0.00  0.00    +0.000 A 
ATOM      5  C   UNL     1       3.211   3.333  19.389  0.00  0.00    +0.000 A 
ATOM      6  F   UNL     1       2.870   2.133  19.874  0.00  0.00    +0.000 F 
ATOM      7  C   UNL     1       2.222   4.177  18.912  0.00  0.00    +0.000 A 
ATOM      8  C   UNL     1       2.595   5.415  18.413  0.00  0.00    +0.000 A 
ATOM      9  F   UNL     1       1.653   6.240  17.932  0.00  0.00    +0.000 F 
ATOM     10  C   UNL     1       3.926   5.819  18.402  0.00  0.00    +0.000 A 
ENDBRANCH   1   3
BRANCH   1  12
ATOM     11  C   UNL     1       7.974   7.202  18.192  0.00  0.00    +0.000 C 
ATOM     12  C   UNL     1       6.875   6.266  17.674  0.00  0.00    +0.000 C 
BRANCH  12  13
ATOM     13  N   UNL     1       7.354   5.328  16.632  0.00  0.00    +0.000 NA
ATOM     14  H   UNL     1       7.592   4.434  17.059  0.00  0.00    +0.000 HD
BRANCH  13  15
ATOM     15  C   UNL     1       6.494   5.064  15.454  0.00  0.00    +0.000 C 
ATOM     16  C   UNL     1       7.304   4.958  14.150  0.00  0.00    +0.000 C 
ATOM     17  C   UNL     1       5.845   3.674  15.673  0.00  0.00    +0.000 C 
ATOM     18  C   UNL     1       5.357   6.088  15.299  0.00  0.00    +0.000 C 
ENDBRANCH  13  15
ENDBRANCH  12  13
ENDBRANCH   1  12
TORSDOF 4
ENDMDL
MODEL 3
REMARK VINA RESULT:      -6.6      0.978      2.088
REMARK  Name = 
REMARK  8 active torsions:
REMARK  status: ('A' for Active; 'I' for Inactive)
REMARK    1  A    between atoms: C_1  and  C_2
REMARK    2  A    between atoms: C_2  and  N_3
REMARK    3  A    between atoms: C_2  and  C_8
REMARK    4  A    between atoms: N_3  and  C_4
REMARK    5  A    between atoms: C_4  and  C_5
REMARK    6  A    between atoms: C_4  and  C_6
REMARK    7  A    between atoms: C_4  and  C_7
REMARK    8  A    between atoms: C_8  and  C_10
REMARK                            x       y       z     vdW  Elec       q    Type
REMARK                         _______ _______ _______ _____ _____    ______ ____
ROOT
ATOM      1  C   UNL     1       6.139   5.373  18.728  0.00  0.00    +0.000 C 
ATOM      2  O   UNL     1       6.686   5.284  19.829  0.00  0.00    +0.000 OA
ENDROOT
BRANCH   1   3
ATOM      3  C   UNL     1       4.805   4.707  18.576  0.00  0.00    +0.000 A 
ATOM      4  C   UNL     1       3.654   5.376  18.152  0.00  0.00    +0.000 A 
ATOM      5  C   UNL     1       2.460   4.670  18.008  0.00  0.00    +0.000 A 
ATOM      6  F   UNL     1       1.370   5.315  17.575  0.00  0.00    +0.000 F 
ATOM      7  C   UNL     1       2.376   3.317  18.295  0.00  0.00    +0.000 A 
ATOM      8  C   UNL     1       3.515   2.666  18.742  0.00  0.00    +0.000 A 
ATOM      9  F   UNL     1       3.450   1.360  19.041  0.00  0.00    +0.000 F 
ATOM     10  C   UNL     1       4.723   3.340  18.885  0.00  0.00    +0.000 A 
ENDBRANCH   1   3
BRANCH   1  12
ATOM     11  C   UNL     1       7.824   7.106  18.138  0.00  0.00    +0.000 C 
ATOM     12  C   UNL     1       6.764   6.166  17.551  0.00  0.00    +0.000 C 
BRANCH  12  13
ATOM     13  N   UNL     1       7.316   5.220  16.552  0.00  0.00    +0.000 NA
ATOM     14  H   UNL     1       7.522   4.330  17.002  0.00  0.00    +0.000 HD
BRANCH  13  15
ATOM     15  C   UNL     1       6.541   4.947  15.318  0.00  0.00    +0.000 C 
ATOM     16  C   UNL     1       5.826   3.586  15.364  0.00  0.00    +0.000 C 
ATOM     17  C   UNL     1       5.425   6.019  15.241  0.00  0.00    +0.000 C 
ATOM     18  C   UNL     1       7.388   5.066  14.039  0.00  0.00    +0.000 C 
ENDBRANCH  13  15
ENDBRANCH  12  13
ENDBRANCH   1  12
TORSDOF 4
ENDMDL
MODEL 4
REMARK VINA RESULT:      -6.6      0.214      2.241
REMARK  Name = 
REMARK  8 active torsions:
REMARK  status: ('A' for Active; 'I' for Inactive)
REMARK    1  A    between atoms: C_1  and  C_2
REMARK    2  A    between atoms: C_2  and  N_3
REMARK    3  A    between atoms: C_2  and  C_8
REMARK    4  A    between atoms: N_3  and  C_4
REMARK    5  A    between atoms: C_4  and  C_5
REMARK    6  A    between atoms: C_4  and  C_6
REMARK    7  A    between atoms: C_4  and  C_7
REMARK    8  A    between atoms: C_8  and  C_10
REMARK                            x       y       z     vdW  Elec       q    Type
REMARK                         _______ _______ _______ _____ _____    ______ ____
ROOT
ATOM      1  C   UNL     1       6.455   5.503  18.995  0.00  0.00    +0.000 C 
ATOM      2  O   UNL     1       7.236   5.394  19.943  0.00  0.00    +0.000 OA
ENDROOT
BRANCH   1   3
ATOM      3  C   UNL     1       5.093   4.903  19.164  0.00  0.00    +0.000 A 
ATOM      4  C   UNL     1       3.977   5.631  19.583  0.00  0.00    +0.000 A 
ATOM      5  C   UNL     1       2.737   4.999  19.682  0.00  0.00    +0.000 A 
ATOM      6  F   UNL     1       1.670   5.713  20.059  0.00  0.00    +0.000 F 
ATOM      7  C   UNL     1       2.584   3.652  19.396  0.00  0.00    +0.000 A 
ATOM      8  C   UNL     1       3.702   2.929  19.009  0.00  0.00    +0.000 A 
ATOM      9  F   UNL     1       3.576   1.620  18.744  0.00  0.00    +0.000 F 
ATOM     10  C   UNL     1       4.948   3.534  18.889  0.00  0.00    +0.000 A 
ENDBRANCH   1   3
BRANCH   1  12
ATOM     11  C   UNL     1       7.885   7.309  18.056  0.00  0.00    +0.000 C 
ATOM     12  C   UNL     1       6.829   6.258  17.693  0.00  0.00    +0.000 C 
BRANCH  12  13
ATOM     13  N   UNL     1       7.299   5.290  16.675  0.00  0.00    +0.000 NA
ATOM     14  H   UNL     1       7.543   4.410  17.127  0.00  0.00    +0.000 HD
BRANCH  13  15
ATOM     15  C   UNL     1       6.426   4.989  15.515  0.00  0.00    +0.000 C 
ATOM     16  C   UNL     1       5.269   5.993  15.376  0.00  0.00    +0.000 C 
ATOM     17  C   UNL     1       7.296   5.155  14.243  0.00  0.00    +0.000 C 
ATOM     18  C   UNL     1       5.889   3.548  15.525  0.00  0.00    +0.000 C 
ENDBRANCH  13  15
ENDBRANCH  12  13
ENDBRANCH   1  12
TORSDOF 4
ENDMDL
MODEL 5
REMARK VINA RESULT:      -6.6      1.069      2.398
REMARK  Name = 
REMARK  8 active torsions:
REMARK  status: ('A' for Active; 'I' for Inactive)
REMARK    1  A    between atoms: C_1  and  C_2
REMARK    2  A    between atoms: C_2  and  N_3
REMARK    3  A    between atoms: C_2  and  C_8
REMARK    4  A    between atoms: N_3  and  C_4
REMARK    5  A    between atoms: C_4  and  C_5
REMARK    6  A    between atoms: C_4  and  C_6
REMARK    7  A    between atoms: C_4  and  C_7
REMARK    8  A    between atoms: C_8  and  C_10
REMARK                            x       y       z     vdW  Elec       q    Type
REMARK                         _______ _______ _______ _____ _____    ______ ____
ROOT
ATOM      1  C   UNL     1       6.091   5.265  18.708  0.00  0.00    +0.000 C 
ATOM      2  O   UNL     1       6.606   5.159  19.823  0.00  0.00    +0.000 OA
ENDROOT
BRANCH   1   3
ATOM      3  C   UNL     1       4.776   4.576  18.498  0.00  0.00    +0.000 A 
ATOM      4  C   UNL     1       3.610   5.243  18.116  0.00  0.00    +0.000 A 
ATOM      5  C   UNL     1       2.436   4.518  17.911  0.00  0.00    +0.000 A 
ATOM      6  F   UNL     1       1.332   5.164  17.518  0.00  0.00    +0.000 F 
ATOM      7  C   UNL     1       2.388   3.146  18.099  0.00  0.00    +0.000 A 
ATOM      8  C   UNL     1       3.542   2.495  18.506  0.00  0.00    +0.000 A 
ATOM      9  F   UNL     1       3.510   1.169  18.709  0.00  0.00    +0.000 F 
ATOM     10  C   UNL     1       4.730   3.188  18.707  0.00  0.00    +0.000 A 
ENDBRANCH   1   3
BRANCH   1  12
ATOM     11  C   UNL     1       7.821   6.979  18.203  0.00  0.00    +0.000 C 
ATOM     12  C   UNL     1       6.735   6.100  17.571  0.00  0.00    +0.000 C 
BRANCH  12  13
ATOM     13  N   UNL     1       7.258   5.193  16.524  0.00  0.00    +0.000 NA
ATOM     14  H   UNL     1       7.470   4.284  16.933  0.00  0.00    +0.000 HD
BRANCH  13  15
ATOM     15  C   UNL     1       6.454   4.973  15.297  0.00  0.00    +0.000 C 
ATOM     16  C   UNL     1       5.360   6.039  15.116  0.00  0.00    +0.000 C 
ATOM     17  C   UNL     1       7.417   5.135  14.094  0.00  0.00    +0.000 C 
ATOM     18  C   UNL     1       5.848   3.562  15.221  0.00  0.00    +0.000 C 
ENDBRANCH  13  15
ENDBRANCH  12  13
ENDBRANCH   1  12
TORSDOF 4
ENDMDL
MODEL 6
REMARK VINA RESULT:      -6.4      3.065      5.215
REMARK  Name = 
REMARK  8 active torsions:
REMARK  status: ('A' for Active; 'I' for Inactive)
REMARK    1  A    between atoms: C_1  and  C_2
REMARK    2  A    between atoms: C_2  and  N_3
REMARK    3  A    between atoms: C_2  and  C_8
REMARK    4  A    between atoms: N_3  and  C_4
REMARK    5  A    between atoms: C_4  and  C_5
REMARK    6  A    between atoms: C_4  and  C_6
REMARK    7  A    between atoms: C_4  and  C_7
REMARK    8  A    between atoms: C_8  and  C_10
REMARK                            x       y       z     vdW  Elec       q    Type
REMARK                         _______ _______ _______ _____ _____    ______ ____
ROOT
ATOM      1  C   UNL     1       3.857   6.487  17.945  0.00  0.00    +0.000 C 
ATOM      2  O   UNL     1       3.658   7.646  17.575  0.00  0.00    +0.000 OA
ENDROOT
BRANCH   1   3
ATOM      3  C   UNL     1       4.994   5.754  17.300  0.00  0.00    +0.000 A 
ATOM      4  C   UNL     1       6.150   5.369  17.984  0.00  0.00    +0.000 A 
ATOM      5  C   UNL     1       7.145   4.660  17.312  0.00  0.00    +0.000 A 
ATOM      6  F   UNL     1       8.236   4.273  17.985  0.00  0.00    +0.000 F 
ATOM      7  C   UNL     1       7.031   4.343  15.969  0.00  0.00    +0.000 A 
ATOM      8  C   UNL     1       5.894   4.753  15.289  0.00  0.00    +0.000 A 
ATOM      9  F   UNL     1       5.773   4.469  13.984  0.00  0.00    +0.000 F 
ATOM     10  C   UNL     1       4.879   5.451  15.934  0.00  0.00    +0.000 A 
ENDBRANCH   1   3
BRANCH   1  12
ATOM     11  C   UNL     1       2.286   6.923  19.823  0.00  0.00    +0.000 C 
ATOM     12  C   UNL     1       3.010   5.812  19.054  0.00  0.00    +0.000 C 
BRANCH  12  13
ATOM     13  N   UNL     1       2.085   4.829  18.443  0.00  0.00    +0.000 NA
ATOM     14  H   UNL     1       2.167   4.866  17.429  0.00  0.00    +0.000 HD
BRANCH  13  15
ATOM     15  C   UNL     1       2.166   3.409  18.864  0.00  0.00    +0.000 C 
ATOM     16  C   UNL     1       2.471   2.467  17.686  0.00  0.00    +0.000 C 
ATOM     17  C   UNL     1       3.371   3.295  19.831  0.00  0.00    +0.000 C 
ATOM     18  C   UNL     1       0.915   2.935  19.622  0.00  0.00    +0.000 C 
ENDBRANCH  13  15
ENDBRANCH  12  13
ENDBRANCH   1  12
TORSDOF 4
ENDMDL
MODEL 7
REMARK VINA RESULT:      -6.4      3.068      5.113
REMARK  Name = 
REMARK  8 active torsions:
REMARK  status: ('A' for Active; 'I' for Inactive)
REMARK    1  A    between atoms: C_1  and  C_2
REMARK    2  A    between atoms: C_2  and  N_3
REMARK    3  A    between atoms: C_2  and  C_8
REMARK    4  A    between atoms: N_3  and  C_4
REMARK    5  A    between atoms: C_4  and  C_5
REMARK    6  A    between atoms: C_4  and  C_6
REMARK    7  A    between atoms: C_4  and  C_7
REMARK    8  A    between atoms: C_8  and  C_10
REMARK                            x       y       z     vdW  Elec       q    Type
REMARK                         _______ _______ _______ _____ _____    ______ ____
ROOT
ATOM      1  C   UNL     1       3.834   6.488  18.010  0.00  0.00    +0.000 C 
ATOM      2  O   UNL     1       3.619   7.646  17.647  0.00  0.00    +0.000 OA
ENDROOT
BRANCH   1   3
ATOM      3  C   UNL     1       4.976   5.771  17.356  0.00  0.00    +0.000 A 
ATOM      4  C   UNL     1       6.133   5.384  18.036  0.00  0.00    +0.000 A 
ATOM      5  C   UNL     1       7.134   4.691  17.355  0.00  0.00    +0.000 A 
ATOM      6  F   UNL     1       8.226   4.301  18.023  0.00  0.00    +0.000 F 
ATOM      7  C   UNL     1       7.022   4.392  16.007  0.00  0.00    +0.000 A 
ATOM      8  C   UNL     1       5.884   4.805  15.332  0.00  0.00    +0.000 A 
ATOM      9  F   UNL     1       5.765   4.539  14.023  0.00  0.00    +0.000 F 
ATOM     10  C   UNL     1       4.864   5.487  15.986  0.00  0.00    +0.000 A 
ENDBRANCH   1   3
BRANCH   1  12
ATOM     11  C   UNL     1       2.257   6.895  19.891  0.00  0.00    +0.000 C 
ATOM     12  C   UNL     1       3.000   5.797  19.121  0.00  0.00    +0.000 C 
BRANCH  12  13
ATOM     13  N   UNL     1       2.092   4.799  18.511  0.00  0.00    +0.000 NA
ATOM     14  H   UNL     1       2.061   4.935  17.502  0.00  0.00    +0.000 HD
BRANCH  13  15
ATOM     15  C   UNL     1       2.326   3.359  18.777  0.00  0.00    +0.000 C 
ATOM     16  C   UNL     1       3.280   3.130  19.962  0.00  0.00    +0.000 C 
ATOM     17  C   UNL     1       0.964   2.751  19.196  0.00  0.00    +0.000 C 
ATOM     18  C   UNL     1       2.815   2.591  17.538  0.00  0.00    +0.000 C 
ENDBRANCH  13  15
ENDBRANCH  12  13
ENDBRANCH   1  12
TORSDOF 4
ENDMDL
MODEL 8
REMARK VINA RESULT:      -6.4      2.317      3.404
REMARK  Name = 
REMARK  8 active torsions:
REMARK  status: ('A' for Active; 'I' for Inactive)
REMARK    1  A    between atoms: C_1  and  C_2
REMARK    2  A    between atoms: C_2  and  N_3
REMARK    3  A    between atoms: C_2  and  C_8
REMARK    4  A    between atoms: N_3  and  C_4
REMARK    5  A    between atoms: C_4  and  C_5
REMARK    6  A    between atoms: C_4  and  C_6
REMARK    7  A    between atoms: C_4  and  C_7
REMARK    8  A    between atoms: C_8  and  C_10
REMARK                            x       y       z     vdW  Elec       q    Type
REMARK                         _______ _______ _______ _____ _____    ______ ____
ROOT
ATOM      1  C   UNL     1       4.153   4.185  17.530  0.00  0.00    +0.000 C 
ATOM      2  O   UNL     1       4.521   3.343  16.709  0.00  0.00    +0.000 OA
ENDROOT
BRANCH   1   3
ATOM      3  C   UNL     1       3.144   3.747  18.548  0.00  0.00    +0.000 A 
ATOM      4  C   UNL     1       3.282   3.978  19.919  0.00  0.00    +0.000 A 
ATOM      5  C   UNL     1       2.277   3.564  20.793  0.00  0.00    +0.000 A 
ATOM      6  F   UNL     1       2.407   3.814  22.101  0.00  0.00    +0.000 F 
ATOM      7  C   UNL     1       1.146   2.904  20.339  0.00  0.00    +0.000 A 
ATOM      8  C   UNL     1       1.029   2.653  18.981  0.00  0.00    +0.000 A 
ATOM      9  F   UNL     1      -0.051   2.001  18.525  0.00  0.00    +0.000 F 
ATOM     10  C   UNL     1       2.008   3.064  18.083  0.00  0.00    +0.000 A 
ENDBRANCH   1   3
BRANCH   1  12
ATOM     11  C   UNL     1       3.548   6.586  17.777  0.00  0.00    +0.000 C 
ATOM     12  C   UNL     1       4.724   5.627  17.555  0.00  0.00    +0.000 C 
BRANCH  12  13
ATOM     13  N   UNL     1       5.765   5.731  18.604  0.00  0.00    +0.000 NA
ATOM     14  H   UNL     1       5.672   4.954  19.256  0.00  0.00    +0.000 HD
BRANCH  13  15
ATOM     15  C   UNL     1       7.188   5.825  18.196  0.00  0.00    +0.000 C 
ATOM     16  C   UNL     1       7.516   7.169  17.522  0.00  0.00    +0.000 C 
ATOM     17  C   UNL     1       8.032   5.776  19.494  0.00  0.00    +0.000 C 
ATOM     18  C   UNL     1       7.636   4.654  17.305  0.00  0.00    +0.000 C 
ENDBRANCH  13  15
ENDBRANCH  12  13
ENDBRANCH   1  12
TORSDOF 4
ENDMDL
MODEL 9
REMARK VINA RESULT:      -6.3      3.181      5.841
REMARK  Name = 
REMARK  8 active torsions:
REMARK  status: ('A' for Active; 'I' for Inactive)
REMARK    1  A    between atoms: C_1  and  C_2
REMARK    2  A    between atoms: C_2  and  N_3
REMARK    3  A    between atoms: C_2  and  C_8
REMARK    4  A    between atoms: N_3  and  C_4
REMARK    5  A    between atoms: C_4  and  C_5
REMARK    6  A    between atoms: C_4  and  C_6
REMARK    7  A    between atoms: C_4  and  C_7
REMARK    8  A    between atoms: C_8  and  C_10
REMARK                            x       y       z     vdW  Elec       q    Type
REMARK                         _______ _______ _______ _____ _____    ______ ____
ROOT
ATOM      1  C   UNL     1       3.379   4.240  17.707  0.00  0.00    +0.000 C 
ATOM      2  O   UNL     1       2.676   5.246  17.597  0.00  0.00    +0.000 OA
ENDROOT
BRANCH   1   3
ATOM      3  C   UNL     1       4.779   4.327  17.179  0.00  0.00    +0.000 A 
ATOM      4  C   UNL     1       5.106   4.146  15.833  0.00  0.00    +0.000 A 
ATOM      5  C   UNL     1       6.433   4.278  15.422  0.00  0.00    +0.000 A 
ATOM      6  F   UNL     1       6.731   4.128  14.126  0.00  0.00    +0.000 F 
ATOM      7  C   UNL     1       7.447   4.564  16.322  0.00  0.00    +0.000 A 
ATOM      8  C   UNL     1       7.118   4.715  17.660  0.00  0.00    +0.000 A 
ATOM      9  F   UNL     1       8.089   4.976  18.549  0.00  0.00    +0.000 F 
ATOM     10  C   UNL     1       5.804   4.601  18.099  0.00  0.00    +0.000 A 
ENDBRANCH   1   3
BRANCH   1  12
ATOM     11  C   UNL     1       3.661   1.770  17.801  0.00  0.00    +0.000 C 
ATOM     12  C   UNL     1       2.874   2.944  18.394  0.00  0.00    +0.000 C 
BRANCH  12  13
ATOM     13  N   UNL     1       3.031   3.067  19.862  0.00  0.00    +0.000 NA
ATOM     14  H   UNL     1       3.791   3.711  20.072  0.00  0.00    +0.000 HD
BRANCH  13  15
ATOM     15  C   UNL     1       1.856   3.455  20.679  0.00  0.00    +0.000 C 
ATOM     16  C   UNL     1       1.850   4.954  21.022  0.00  0.00    +0.000 C 
ATOM     17  C   UNL     1       0.599   3.207  19.807  0.00  0.00    +0.000 C 
ATOM     18  C   UNL     1       1.708   2.611  21.957  0.00  0.00    +0.000 C 
ENDBRANCH  13  15
ENDBRANCH  12  13
ENDBRANCH   1  12
TORSDOF 4
ENDMDL
