MODEL 1
REMARK VINA RESULT:      -7.7      0.000      0.000
REMARK  Name = 
REMARK  5 active torsions:
REMARK  status: ('A' for Active; 'I' for Inactive)
REMARK    1  A    between atoms: C_2  and  C_3
REMARK    2  A    between atoms: C_3  and  O_4
REMARK    3  A    between atoms: O_4  and  C_5
REMARK    4  A    between atoms: C_5  and  C_7
REMARK    5  A    between atoms: C_18  and  N_19
REMARK                            x       y       z     vdW  Elec       q    Type
REMARK                         _______ _______ _______ _____ _____    ______ ____
ROOT
ATOM      1  O   UNL     1       3.909   2.021  17.579  0.00  0.00    +0.000 OA
ATOM      2  C   UNL     1       3.742   3.245  17.647  0.00  0.00    +0.000 C 
ATOM      3  N   UNL     1       3.022   3.750  18.695  0.00  0.00    +0.000 N 
ATOM      4  C   UNL     1       2.701   5.065  18.880  0.00  0.00    +0.000 A 
ATOM      5  N   UNL     1       2.674   6.008  17.978  0.00  0.00    +0.000 NA
ATOM      6  C   UNL     1       2.229   7.186  18.549  0.00  0.00    +0.000 A 
ATOM      7  C   UNL     1       2.019   8.395  17.852  0.00  0.00    +0.000 A 
ATOM      8  C   UNL     1       1.536   9.517  18.536  0.00  0.00    +0.000 A 
ATOM      9  C   UNL     1       1.286   9.440  19.912  0.00  0.00    +0.000 A 
ATOM     10  C   UNL     1       1.502   8.252  20.631  0.00  0.00    +0.000 A 
ATOM     11  C   UNL     1       1.965   7.132  19.917  0.00  0.00    +0.000 A 
ATOM     12  S   UNL     1       2.277   5.516  20.467  0.00  0.00    +0.000 S 
ATOM     13  H   UNL     1       2.810   3.085  19.423  0.00  0.00    +0.000 HD
ENDROOT
BRANCH   9  14
ATOM     14  N   UNL     1       0.774  10.625  20.616  0.00  0.00    +0.000 N 
ATOM     15  O   UNL     1       0.122  11.449  19.964  0.00  0.00    +0.000 OA
ATOM     16  O   UNL     1       1.026  10.725  21.828  0.00  0.00    +0.000 OA
ENDBRANCH   9  14
BRANCH   2  17
ATOM     17  C   UNL     1       4.444   4.194  16.665  0.00  0.00    +0.000 C 
BRANCH  17  18
ATOM     18  O   UNL     1       5.785   3.808  16.364  0.00  0.00    +0.000 OA
BRANCH  18  19
ATOM     19  C   UNL     1       6.532   4.804  15.803  0.00  0.00    +0.000 C 
ATOM     20  O   UNL     1       6.740   4.918  14.594  0.00  0.00    +0.000 OA
BRANCH  19  21
ATOM     21  C   UNL     1       7.061   5.673  16.819  0.00  0.00    +0.000 A 
ATOM     22  C   UNL     1       7.490   5.419  18.109  0.00  0.00    +0.000 A 
ATOM     23  C   UNL     1       7.914   6.659  18.648  0.00  0.00    +0.000 A 
ATOM     24  C   UNL     1       7.705   7.594  17.664  0.00  0.00    +0.000 A 
ATOM     25  O   UNL     1       7.194   7.012  16.554  0.00  0.00    +0.000 OA
ENDBRANCH  19  21
ENDBRANCH  18  19
ENDBRANCH  17  18
ENDBRANCH   2  17
TORSDOF 5
ENDMDL
MODEL 2
REMARK VINA RESULT:      -7.5      2.809      7.085
REMARK  Name = 
REMARK  5 active torsions:
REMARK  status: ('A' for Active; 'I' for Inactive)
REMARK    1  A    between atoms: C_2  and  C_3
REMARK    2  A    between atoms: C_3  and  O_4
REMARK    3  A    between atoms: O_4  and  C_5
REMARK    4  A    between atoms: C_5  and  C_7
REMARK    5  A    between atoms: C_18  and  N_19
REMARK                            x       y       z     vdW  Elec       q    Type
REMARK                         _______ _______ _______ _____ _____    ______ ____
ROOT
ATOM      1  O   UNL     1       1.107   7.284  20.969  0.00  0.00    +0.000 OA
ATOM      2  C   UNL     1       1.896   6.629  20.278  0.00  0.00    +0.000 C 
ATOM      3  N   UNL     1       2.458   7.228  19.183  0.00  0.00    +0.000 N 
ATOM      4  C   UNL     1       3.298   6.625  18.290  0.00  0.00    +0.000 A 
ATOM      5  N   UNL     1       3.436   5.346  18.073  0.00  0.00    +0.000 NA
ATOM      6  C   UNL     1       4.332   5.143  17.039  0.00  0.00    +0.000 A 
ATOM      7  C   UNL     1       4.674   3.885  16.498  0.00  0.00    +0.000 A 
ATOM      8  C   UNL     1       5.575   3.810  15.429  0.00  0.00    +0.000 A 
ATOM      9  C   UNL     1       6.148   4.981  14.917  0.00  0.00    +0.000 A 
ATOM     10  C   UNL     1       5.836   6.244  15.449  0.00  0.00    +0.000 A 
ATOM     11  C   UNL     1       4.911   6.296  16.507  0.00  0.00    +0.000 A 
ATOM     12  S   UNL     1       4.262   7.668  17.348  0.00  0.00    +0.000 S 
ATOM     13  H   UNL     1       2.297   8.221  19.114  0.00  0.00    +0.000 HD
ENDROOT
BRANCH   9  14
ATOM     14  N   UNL     1       7.089   4.887  13.790  0.00  0.00    +0.000 N 
ATOM     15  O   UNL     1       6.822   4.095  12.879  0.00  0.00    +0.000 OA
ATOM     16  O   UNL     1       8.095   5.613  13.822  0.00  0.00    +0.000 OA
ENDBRANCH   9  14
BRANCH   2  17
ATOM     17  C   UNL     1       2.352   5.229  20.710  0.00  0.00    +0.000 C 
BRANCH  17  18
ATOM     18  O   UNL     1       1.269   4.348  21.012  0.00  0.00    +0.000 OA
BRANCH  18  19
ATOM     19  C   UNL     1       1.653   3.055  21.223  0.00  0.00    +0.000 C 
ATOM     20  O   UNL     1       1.541   2.466  22.299  0.00  0.00    +0.000 OA
BRANCH  19  21
ATOM     21  C   UNL     1       2.231   2.498  20.031  0.00  0.00    +0.000 A 
ATOM     22  C   UNL     1       3.496   2.001  19.770  0.00  0.00    +0.000 A 
ATOM     23  C   UNL     1       3.498   1.581  18.417  0.00  0.00    +0.000 A 
ATOM     24  C   UNL     1       2.244   1.859  17.930  0.00  0.00    +0.000 A 
ATOM     25  O   UNL     1       1.469   2.409  18.893  0.00  0.00    +0.000 OA
ENDBRANCH  19  21
ENDBRANCH  18  19
ENDBRANCH  17  18
ENDBRANCH   2  17
TORSDOF 5
ENDMDL
MODEL 3
REMARK VINA RESULT:      -7.5      2.645      4.633
REMARK  Name = 
REMARK  5 active torsions:
REMARK  status: ('A' for Active; 'I' for Inactive)
REMARK    1  A    between atoms: C_2  and  C_3
REMARK    2  A    between atoms: C_3  and  O_4
REMARK    3  A    between atoms: O_4  and  C_5
REMARK    4  A    between atoms: C_5  and  C_7
REMARK    5  A    between atoms: C_18  and  N_19
REMARK                            x       y       z     vdW  Elec       q    Type
REMARK                         _______ _______ _______ _____ _____    ______ ____
ROOT
ATOM      1  O   UNL     1       4.658   5.826  16.472  0.00  0.00    +0.000 OA
ATOM      2  C   UNL     1       3.863   6.164  17.358  0.00  0.00    +0.000 C 
ATOM      3  N   UNL     1       3.446   7.467  17.399  0.00  0.00    +0.000 N 
ATOM      4  C   UNL     1       2.621   8.009  18.344  0.00  0.00    +0.000 A 
ATOM      5  N   UNL     1       2.376   7.547  19.540  0.00  0.00    +0.000 NA
ATOM      6  C   UNL     1       1.545   8.421  20.216  0.00  0.00    +0.000 A 
ATOM      7  C   UNL     1       1.125   8.268  21.555  0.00  0.00    +0.000 A 
ATOM      8  C   UNL     1       0.305   9.239  22.141  0.00  0.00    +0.000 A 
ATOM      9  C   UNL     1      -0.114  10.344  21.389  0.00  0.00    +0.000 A 
ATOM     10  C   UNL     1       0.278  10.511  20.050  0.00  0.00    +0.000 A 
ATOM     11  C   UNL     1       1.123   9.535  19.490  0.00  0.00    +0.000 A 
ATOM     12  S   UNL     1       1.836   9.457  17.911  0.00  0.00    +0.000 S 
ATOM     13  H   UNL     1       3.706   8.021  16.598  0.00  0.00    +0.000 HD
ENDROOT
BRANCH   9  14
ATOM     14  N   UNL     1      -0.971  11.358  22.020  0.00  0.00    +0.000 N 
ATOM     15  O   UNL     1      -0.776  11.621  23.213  0.00  0.00    +0.000 OA
ATOM     16  O   UNL     1      -1.840  11.894  21.313  0.00  0.00    +0.000 OA
ENDBRANCH   9  14
BRANCH   2  17
ATOM     17  C   UNL     1       3.243   5.125  18.303  0.00  0.00    +0.000 C 
BRANCH  17  18
ATOM     18  O   UNL     1       2.168   4.394  17.713  0.00  0.00    +0.000 OA
BRANCH  18  19
ATOM     19  C   UNL     1       2.146   3.073  18.059  0.00  0.00    +0.000 C 
ATOM     20  O   UNL     1       2.209   2.144  17.253  0.00  0.00    +0.000 OA
BRANCH  19  21
ATOM     21  C   UNL     1       2.008   2.925  19.482  0.00  0.00    +0.000 A 
ATOM     22  C   UNL     1       0.926   3.114  20.323  0.00  0.00    +0.000 A 
ATOM     23  C   UNL     1       1.372   2.816  21.634  0.00  0.00    +0.000 A 
ATOM     24  C   UNL     1       2.698   2.479  21.518  0.00  0.00    +0.000 A 
ATOM     25  O   UNL     1       3.094   2.537  20.225  0.00  0.00    +0.000 OA
ENDBRANCH  19  21
ENDBRANCH  18  19
ENDBRANCH  17  18
ENDBRANCH   2  17
TORSDOF 5
ENDMDL
MODEL 4
REMARK VINA RESULT:      -7.4      2.633      6.758
REMARK  Name = 
REMARK  5 active torsions:
REMARK  status: ('A' for Active; 'I' for Inactive)
REMARK    1  A    between atoms: C_2  and  C_3
REMARK    2  A    between atoms: C_3  and  O_4
REMARK    3  A    between atoms: O_4  and  C_5
REMARK    4  A    between atoms: C_5  and  C_7
REMARK    5  A    between atoms: C_18  and  N_19
REMARK                            x       y       z     vdW  Elec       q    Type
REMARK                         _______ _______ _______ _____ _____    ______ ____
ROOT
ATOM      1  O   UNL     1       1.813   3.122  22.103  0.00  0.00    +0.000 OA
ATOM      2  C   UNL     1       2.433   3.735  21.226  0.00  0.00    +0.000 C 
ATOM      3  N   UNL     1       2.921   3.032  20.158  0.00  0.00    +0.000 N 
ATOM      4  C   UNL     1       3.673   3.550  19.142  0.00  0.00    +0.000 A 
ATOM      5  N   UNL     1       4.369   4.653  19.155  0.00  0.00    +0.000 NA
ATOM      6  C   UNL     1       5.048   4.790  17.958  0.00  0.00    +0.000 A 
ATOM      7  C   UNL     1       5.944   5.836  17.649  0.00  0.00    +0.000 A 
ATOM      8  C   UNL     1       6.597   5.849  16.411  0.00  0.00    +0.000 A 
ATOM      9  C   UNL     1       6.340   4.838  15.477  0.00  0.00    +0.000 A 
ATOM     10  C   UNL     1       5.440   3.794  15.754  0.00  0.00    +0.000 A 
ATOM     11  C   UNL     1       4.815   3.789  17.014  0.00  0.00    +0.000 A 
ATOM     12  S   UNL     1       3.713   2.639  17.702  0.00  0.00    +0.000 S 
ATOM     13  H   UNL     1       2.598   2.079  20.095  0.00  0.00    +0.000 HD
ENDROOT
BRANCH   9  14
ATOM     14  N   UNL     1       7.037   4.863  14.182  0.00  0.00    +0.000 N 
ATOM     15  O   UNL     1       7.999   5.629  14.058  0.00  0.00    +0.000 OA
ATOM     16  O   UNL     1       6.616   4.108  13.290  0.00  0.00    +0.000 OA
ENDBRANCH   9  14
BRANCH   2  17
ATOM     17  C   UNL     1       2.534   5.266  21.253  0.00  0.00    +0.000 C 
BRANCH  17  18
ATOM     18  O   UNL     1       1.413   5.918  20.656  0.00  0.00    +0.000 OA
BRANCH  18  19
ATOM     19  C   UNL     1       1.444   7.279  20.767  0.00  0.00    +0.000 C 
ATOM     20  O   UNL     1       1.164   7.898  21.793  0.00  0.00    +0.000 OA
BRANCH  19  21
ATOM     21  C   UNL     1       1.818   7.879  19.515  0.00  0.00    +0.000 A 
ATOM     22  C   UNL     1       2.591   7.410  18.468  0.00  0.00    +0.000 A 
ATOM     23  C   UNL     1       2.615   8.434  17.489  0.00  0.00    +0.000 A 
ATOM     24  C   UNL     1       1.869   9.468  18.000  0.00  0.00    +0.000 A 
ATOM     25  O   UNL     1       1.380   9.146  19.220  0.00  0.00    +0.000 OA
ENDBRANCH  19  21
ENDBRANCH  18  19
ENDBRANCH  17  18
ENDBRANCH   2  17
TORSDOF 5
ENDMDL
MODEL 5
REMARK VINA RESULT:      -7.4      1.318      2.264
REMARK  Name = 
REMARK  5 active torsions:
REMARK  status: ('A' for Active; 'I' for Inactive)
REMARK    1  A    between atoms: C_2  and  C_3
REMARK    2  A    between atoms: C_3  and  O_4
REMARK    3  A    between atoms: O_4  and  C_5
REMARK    4  A    between atoms: C_5  and  C_7
REMARK    5  A    between atoms: C_18  and  N_19
REMARK                            x       y       z     vdW  Elec       q    Type
REMARK                         _______ _______ _______ _____ _____    ______ ____
ROOT
ATOM      1  O   UNL     1       4.482   2.959  17.166  0.00  0.00    +0.000 OA
ATOM      2  C   UNL     1       4.192   4.148  17.346  0.00  0.00    +0.000 C 
ATOM      3  N   UNL     1       3.365   4.468  18.389  0.00  0.00    +0.000 N 
ATOM      4  C   UNL     1       2.906   5.721  18.685  0.00  0.00    +0.000 A 
ATOM      5  N   UNL     1       2.840   6.749  17.884  0.00  0.00    +0.000 NA
ATOM      6  C   UNL     1       2.249   7.813  18.540  0.00  0.00    +0.000 A 
ATOM      7  C   UNL     1       1.962   9.066  17.958  0.00  0.00    +0.000 A 
ATOM      8  C   UNL     1       1.332  10.058  18.719  0.00  0.00    +0.000 A 
ATOM      9  C   UNL     1       1.011   9.810  20.059  0.00  0.00    +0.000 A 
ATOM     10  C   UNL     1       1.300   8.576  20.666  0.00  0.00    +0.000 A 
ATOM     11  C   UNL     1       1.911   7.586  19.875  0.00  0.00    +0.000 A 
ATOM     12  S   UNL     1       2.348   5.956  20.277  0.00  0.00    +0.000 S 
ATOM     13  H   UNL     1       3.177   3.712  19.028  0.00  0.00    +0.000 HD
ENDROOT
BRANCH   9  14
ATOM     14  N   UNL     1       0.344  10.860  20.844  0.00  0.00    +0.000 N 
ATOM     15  O   UNL     1      -0.236  11.762  20.229  0.00  0.00    +0.000 OA
ATOM     16  O   UNL     1       0.402  10.774  22.081  0.00  0.00    +0.000 OA
ENDBRANCH   9  14
BRANCH   2  17
ATOM     17  C   UNL     1       4.853   5.258  16.517  0.00  0.00    +0.000 C 
BRANCH  17  18
ATOM     18  O   UNL     1       6.170   5.588  16.961  0.00  0.00    +0.000 OA
BRANCH  18  19
ATOM     19  C   UNL     1       7.139   4.760  16.470  0.00  0.00    +0.000 C 
ATOM     20  O   UNL     1       8.009   4.226  17.159  0.00  0.00    +0.000 OA
BRANCH  19  21
ATOM     21  C   UNL     1       7.018   4.630  15.043  0.00  0.00    +0.000 A 
ATOM     22  C   UNL     1       6.252   3.784  14.261  0.00  0.00    +0.000 A 
ATOM     23  C   UNL     1       6.536   4.108  12.912  0.00  0.00    +0.000 A 
ATOM     24  C   UNL     1       7.464   5.119  12.950  0.00  0.00    +0.000 A 
ATOM     25  O   UNL     1       7.762   5.446  14.229  0.00  0.00    +0.000 OA
ENDBRANCH  19  21
ENDBRANCH  18  19
ENDBRANCH  17  18
ENDBRANCH   2  17
TORSDOF 5
ENDMDL
MODEL 6
REMARK VINA RESULT:      -7.4      2.931      7.174
REMARK  Name = 
REMARK  5 active torsions:
REMARK  status: ('A' for Active; 'I' for Inactive)
REMARK    1  A    between atoms: C_2  and  C_3
REMARK    2  A    between atoms: C_3  and  O_4
REMARK    3  A    between atoms: O_4  and  C_5
REMARK    4  A    between atoms: C_5  and  C_7
REMARK    5  A    between atoms: C_18  and  N_19
REMARK                            x       y       z     vdW  Elec       q    Type
REMARK                         _______ _______ _______ _____ _____    ______ ____
ROOT
ATOM      1  O   UNL     1       1.140   2.977  21.642  0.00  0.00    +0.000 OA
ATOM      2  C   UNL     1       1.658   3.572  20.689  0.00  0.00    +0.000 C 
ATOM      3  N   UNL     1       2.572   2.903  19.920  0.00  0.00    +0.000 N 
ATOM      4  C   UNL     1       3.272   3.435  18.874  0.00  0.00    +0.000 A 
ATOM      5  N   UNL     1       3.502   4.697  18.635  0.00  0.00    +0.000 NA
ATOM      6  C   UNL     1       4.311   4.820  17.521  0.00  0.00    +0.000 A 
ATOM      7  C   UNL     1       4.809   6.039  17.011  0.00  0.00    +0.000 A 
ATOM      8  C   UNL     1       5.646   6.032  15.890  0.00  0.00    +0.000 A 
ATOM      9  C   UNL     1       5.967   4.820  15.266  0.00  0.00    +0.000 A 
ATOM     10  C   UNL     1       5.471   3.595  15.744  0.00  0.00    +0.000 A 
ATOM     11  C   UNL     1       4.652   3.624  16.887  0.00  0.00    +0.000 A 
ATOM     12  S   UNL     1       3.927   2.317  17.768  0.00  0.00    +0.000 S 
ATOM     13  H   UNL     1       2.636   1.914  20.103  0.00  0.00    +0.000 HD
ENDROOT
BRANCH   9  14
ATOM     14  N   UNL     1       6.852   4.829  14.091  0.00  0.00    +0.000 N 
ATOM     15  O   UNL     1       6.576   4.073  13.153  0.00  0.00    +0.000 OA
ATOM     16  O   UNL     1       7.825   5.601  14.113  0.00  0.00    +0.000 OA
ENDBRANCH   9  14
BRANCH   2  17
ATOM     17  C   UNL     1       1.189   4.976  20.283  0.00  0.00    +0.000 C 
BRANCH  17  18
ATOM     18  O   UNL     1       1.715   6.011  21.114  0.00  0.00    +0.000 OA
BRANCH  18  19
ATOM     19  C   UNL     1       1.669   7.251  20.544  0.00  0.00    +0.000 C 
ATOM     20  O   UNL     1       2.139   7.525  19.439  0.00  0.00    +0.000 OA
BRANCH  19  21
ATOM     21  C   UNL     1       1.027   8.189  21.424  0.00  0.00    +0.000 A 
ATOM     22  C   UNL     1       1.542   9.178  22.244  0.00  0.00    +0.000 A 
ATOM     23  C   UNL     1       0.438   9.795  22.881  0.00  0.00    +0.000 A 
ATOM     24  C   UNL     1      -0.680   9.139  22.425  0.00  0.00    +0.000 A 
ATOM     25  O   UNL     1      -0.339   8.171  21.544  0.00  0.00    +0.000 OA
ENDBRANCH  19  21
ENDBRANCH  18  19
ENDBRANCH  17  18
ENDBRANCH   2  17
TORSDOF 5
ENDMDL
MODEL 7
REMARK VINA RESULT:      -7.3      2.690      7.016
REMARK  Name = 
REMARK  5 active torsions:
REMARK  status: ('A' for Active; 'I' for Inactive)
REMARK    1  A    between atoms: C_2  and  C_3
REMARK    2  A    between atoms: C_3  and  O_4
REMARK    3  A    between atoms: O_4  and  C_5
REMARK    4  A    between atoms: C_5  and  C_7
REMARK    5  A    between atoms: C_18  and  N_19
REMARK                            x       y       z     vdW  Elec       q    Type
REMARK                         _______ _______ _______ _____ _____    ______ ____
ROOT
ATOM      1  O   UNL     1       1.205   2.985  21.592  0.00  0.00    +0.000 OA
ATOM      2  C   UNL     1       1.994   3.586  20.853  0.00  0.00    +0.000 C 
ATOM      3  N   UNL     1       2.369   2.993  19.678  0.00  0.00    +0.000 N 
ATOM      4  C   UNL     1       3.272   3.497  18.785  0.00  0.00    +0.000 A 
ATOM      5  N   UNL     1       4.196   4.390  19.013  0.00  0.00    +0.000 NA
ATOM      6  C   UNL     1       4.953   4.578  17.872  0.00  0.00    +0.000 A 
ATOM      7  C   UNL     1       6.077   5.427  17.775  0.00  0.00    +0.000 A 
ATOM      8  C   UNL     1       6.782   5.512  16.569  0.00  0.00    +0.000 A 
ATOM      9  C   UNL     1       6.356   4.773  15.459  0.00  0.00    +0.000 A 
ATOM     10  C   UNL     1       5.231   3.933  15.524  0.00  0.00    +0.000 A 
ATOM     11  C   UNL     1       4.553   3.845  16.754  0.00  0.00    +0.000 A 
ATOM     12  S   UNL     1       3.184   2.877  17.201  0.00  0.00    +0.000 S 
ATOM     13  H   UNL     1       1.844   2.168  19.434  0.00  0.00    +0.000 HD
ENDROOT
BRANCH   9  14
ATOM     14  N   UNL     1       7.110   4.868  14.200  0.00  0.00    +0.000 N 
ATOM     15  O   UNL     1       8.067   5.649  14.157  0.00  0.00    +0.000 OA
ATOM     16  O   UNL     1       6.739   4.153  13.254  0.00  0.00    +0.000 OA
ENDBRANCH   9  14
BRANCH   2  17
ATOM     17  C   UNL     1       2.435   5.022  21.168  0.00  0.00    +0.000 C 
BRANCH  17  18
ATOM     18  O   UNL     1       1.439   6.000  20.864  0.00  0.00    +0.000 OA
BRANCH  18  19
ATOM     19  C   UNL     1       1.922   7.086  20.190  0.00  0.00    +0.000 C 
ATOM     20  O   UNL     1       2.768   7.028  19.297  0.00  0.00    +0.000 OA
BRANCH  19  21
ATOM     21  C   UNL     1       1.330   8.296  20.693  0.00  0.00    +0.000 A 
ATOM     22  C   UNL     1       1.025   8.702  21.980  0.00  0.00    +0.000 A 
ATOM     23  C   UNL     1       0.458   9.996  21.875  0.00  0.00    +0.000 A 
ATOM     24  C   UNL     1       0.438  10.295  20.534  0.00  0.00    +0.000 A 
ATOM     25  O   UNL     1       0.964   9.281  19.811  0.00  0.00    +0.000 OA
ENDBRANCH  19  21
ENDBRANCH  18  19
ENDBRANCH  17  18
ENDBRANCH   2  17
TORSDOF 5
ENDMDL
MODEL 8
REMARK VINA RESULT:      -7.3      3.633      5.392
REMARK  Name = 
REMARK  5 active torsions:
REMARK  status: ('A' for Active; 'I' for Inactive)
REMARK    1  A    between atoms: C_2  and  C_3
REMARK    2  A    between atoms: C_3  and  O_4
REMARK    3  A    between atoms: O_4  and  C_5
REMARK    4  A    between atoms: C_5  and  C_7
REMARK    5  A    between atoms: C_18  and  N_19
REMARK                            x       y       z     vdW  Elec       q    Type
REMARK                         _______ _______ _______ _____ _____    ______ ____
ROOT
ATOM      1  O   UNL     1       3.452   5.684  18.802  0.00  0.00    +0.000 OA
ATOM      2  C   UNL     1       2.615   6.255  19.512  0.00  0.00    +0.000 C 
ATOM      3  N   UNL     1       2.372   7.584  19.296  0.00  0.00    +0.000 N 
ATOM      4  C   UNL     1       1.526   8.368  20.029  0.00  0.00    +0.000 A 
ATOM      5  N   UNL     1       1.090   8.146  21.239  0.00  0.00    +0.000 NA
ATOM      6  C   UNL     1       0.312   9.210  21.656  0.00  0.00    +0.000 A 
ATOM      7  C   UNL     1      -0.272   9.335  22.935  0.00  0.00    +0.000 A 
ATOM      8  C   UNL     1      -1.016  10.478  23.250  0.00  0.00    +0.000 A 
ATOM      9  C   UNL     1      -1.198  11.479  22.288  0.00  0.00    +0.000 A 
ATOM     10  C   UNL     1      -0.640  11.371  21.003  0.00  0.00    +0.000 A 
ATOM     11  C   UNL     1       0.125  10.225  20.717  0.00  0.00    +0.000 A 
ATOM     12  S   UNL     1       0.993   9.801  19.277  0.00  0.00    +0.000 S 
ATOM     13  H   UNL     1       2.792   7.961  18.461  0.00  0.00    +0.000 HD
ENDROOT
BRANCH   9  14
ATOM     14  N   UNL     1      -1.978  12.676  22.636  0.00  0.00    +0.000 N 
ATOM     15  O   UNL     1      -3.203  12.636  22.473  0.00  0.00    +0.000 OA
ATOM     16  O   UNL     1      -1.357  13.657  23.077  0.00  0.00    +0.000 OA
ENDBRANCH   9  14
BRANCH   2  17
ATOM     17  C   UNL     1       1.761   5.468  20.516  0.00  0.00    +0.000 C 
BRANCH  17  18
ATOM     18  O   UNL     1       2.526   4.596  21.349  0.00  0.00    +0.000 OA
BRANCH  18  19
ATOM     19  C   UNL     1       2.142   3.287  21.275  0.00  0.00    +0.000 C 
ATOM     20  O   UNL     1       1.555   2.684  22.174  0.00  0.00    +0.000 OA
BRANCH  19  21
ATOM     21  C   UNL     1       2.547   2.712  20.021  0.00  0.00    +0.000 A 
ATOM     22  C   UNL     1       3.778   2.268  19.571  0.00  0.00    +0.000 A 
ATOM     23  C   UNL     1       3.581   1.795  18.250  0.00  0.00    +0.000 A 
ATOM     24  C   UNL     1       2.251   1.991  17.969  0.00  0.00    +0.000 A 
ATOM     25  O   UNL     1       1.615   2.540  19.029  0.00  0.00    +0.000 OA
ENDBRANCH  19  21
ENDBRANCH  18  19
ENDBRANCH  17  18
ENDBRANCH   2  17
TORSDOF 5
ENDMDL
MODEL 9
REMARK VINA RESULT:      -7.2      1.435      2.252
REMARK  Name = 
REMARK  5 active torsions:
REMARK  status: ('A' for Active; 'I' for Inactive)
REMARK    1  A    between atoms: C_2  and  C_3
REMARK    2  A    between atoms: C_3  and  O_4
REMARK    3  A    between atoms: O_4  and  C_5
REMARK    4  A    between atoms: C_5  and  C_7
REMARK    5  A    between atoms: C_18  and  N_19
REMARK                            x       y       z     vdW  Elec       q    Type
REMARK                         _______ _______ _______ _____ _____    ______ ____
ROOT
ATOM      1  O   UNL     1       4.616   2.151  19.759  0.00  0.00    +0.000 OA
ATOM      2  C   UNL     1       4.404   3.328  19.440  0.00  0.00    +0.000 C 
ATOM      3  N   UNL     1       3.372   3.993  20.044  0.00  0.00    +0.000 N 
ATOM      4  C   UNL     1       2.975   5.270  19.761  0.00  0.00    +0.000 A 
ATOM      5  N   UNL     1       3.214   5.951  18.674  0.00  0.00    +0.000 NA
ATOM      6  C   UNL     1       2.579   7.177  18.744  0.00  0.00    +0.000 A 
ATOM      7  C   UNL     1       2.572   8.145  17.717  0.00  0.00    +0.000 A 
ATOM      8  C   UNL     1       1.865   9.340  17.894  0.00  0.00    +0.000 A 
ATOM      9  C   UNL     1       1.189   9.579  19.097  0.00  0.00    +0.000 A 
ATOM     10  C   UNL     1       1.194   8.638  20.141  0.00  0.00    +0.000 A 
ATOM     11  C   UNL     1       1.890   7.434  19.930  0.00  0.00    +0.000 A 
ATOM     12  S   UNL     1       2.052   6.049  20.963  0.00  0.00    +0.000 S 
ATOM     13  H   UNL     1       2.956   3.510  20.824  0.00  0.00    +0.000 HD
ENDROOT
BRANCH   9  14
ATOM     14  N   UNL     1       0.447  10.838  19.266  0.00  0.00    +0.000 N 
ATOM     15  O   UNL     1       1.028  11.784  19.810  0.00  0.00    +0.000 OA
ATOM     16  O   UNL     1      -0.722  10.874  18.849  0.00  0.00    +0.000 OA
ENDBRANCH   9  14
BRANCH   2  17
ATOM     17  C   UNL     1       5.359   4.076  18.499  0.00  0.00    +0.000 C 
BRANCH  17  18
ATOM     18  O   UNL     1       6.471   4.666  19.172  0.00  0.00    +0.000 OA
BRANCH  18  19
ATOM     19  C   UNL     1       7.169   5.555  18.406  0.00  0.00    +0.000 C 
ATOM     20  O   UNL     1       7.962   6.384  18.854  0.00  0.00    +0.000 OA
BRANCH  19  21
ATOM     21  C   UNL     1       6.823   5.407  17.019  0.00  0.00    +0.000 A 
ATOM     22  C   UNL     1       5.813   5.972  16.260  0.00  0.00    +0.000 A 
ATOM     23  C   UNL     1       5.958   5.465  14.945  0.00  0.00    +0.000 A 
ATOM     24  C   UNL     1       7.036   4.614  14.983  0.00  0.00    +0.000 A 
ATOM     25  O   UNL     1       7.569   4.572  16.225  0.00  0.00    +0.000 OA
ENDBRANCH  19  21
ENDBRANCH  18  19
ENDBRANCH  17  18
ENDBRANCH   2  17
TORSDOF 5
ENDMDL
