MODEL 1
REMARK VINA RESULT:      -6.7      0.000      0.000
REMARK  Name = 
REMARK  6 active torsions:
REMARK  status: ('A' for Active; 'I' for Inactive)
REMARK    1  A    between atoms: C_1  and  C_2
REMARK    2  A    between atoms: C_10  and  C_11
REMARK    3  A    between atoms: N_13  and  C_14
REMARK    4  A    between atoms: N_21  and  C_22
REMARK    5  A    between atoms: C_27  and  C_28
REMARK    6  A    between atoms: C_32  and  C_33
REMARK                            x       y       z     vdW  Elec       q    Type
REMARK                         _______ _______ _______ _____ _____    ______ ____
ROOT
ATOM      1  C   UNL     1      -3.423  14.812  25.590  0.00  0.00    +0.000 C 
ATOM      2  C   UNL     1      -2.573  14.392  24.421  0.00  0.00    +0.000 A 
ATOM      3  C   UNL     1      -1.365  15.079  24.154  0.00  0.00    +0.000 A 
ATOM      4  C   UNL     1      -0.567  14.704  23.056  0.00  0.00    +0.000 A 
ATOM      5  N   UNL     1       0.639  15.199  22.627  0.00  0.00    +0.000 NA
ATOM      6  C   UNL     1       0.944  14.545  21.519  0.00  0.00    +0.000 A 
ATOM      7  N   UNL     1       1.982  14.858  20.683  0.00  0.00    +0.000 N 
ATOM      8  C   UNL     1       3.241  15.362  21.235  0.00  0.00    +0.000 C 
ATOM      9  C   UNL     1       3.711  16.609  20.479  0.00  0.00    +0.000 C 
ATOM     10  C   UNL     1       3.712  16.425  18.954  0.00  0.00    +0.000 C 
ATOM     11  C   UNL     1       2.342  15.922  18.501  0.00  0.00    +0.000 C 
ATOM     12  C   UNL     1       1.935  14.652  19.238  0.00  0.00    +0.000 C 
ATOM     13  N   UNL     1      -0.004  13.531  21.283  0.00  0.00    +0.000 N 
ATOM     14  C   UNL     1      -0.997  13.666  22.244  0.00  0.00    +0.000 A 
ATOM     15  C   UNL     1      -2.164  12.934  22.521  0.00  0.00    +0.000 A 
ATOM     16  C   UNL     1      -2.962  13.312  23.608  0.00  0.00    +0.000 A 
ATOM     17  C   UNL     1      -4.218  12.522  23.872  0.00  0.00    +0.000 C 
ENDROOT
BRANCH  13  18
ATOM     18  C   UNL     1       0.035  12.478  20.326  0.00  0.00    +0.000 A 
ATOM     19  C   UNL     1       1.015  11.481  20.424  0.00  0.00    +0.000 A 
ATOM     20  C   UNL     1       1.045  10.444  19.493  0.00  0.00    +0.000 A 
ATOM     21  C   UNL     1       0.085  10.398  18.486  0.00  0.00    +0.000 A 
ATOM     22  F   UNL     1       0.117   9.378  17.617  0.00  0.00    +0.000 F 
ATOM     23  C   UNL     1      -0.904  11.380  18.377  0.00  0.00    +0.000 A 
ATOM     24  C   UNL     1      -1.973  11.303  17.331  0.00  0.00    +0.000 C 
ATOM     25  C   UNL     1      -0.914  12.434  19.299  0.00  0.00    +0.000 A 
ENDBRANCH  13  18
BRANCH  10  26
ATOM     26  C   UNL     1       4.825  15.501  18.452  0.00  0.00    +0.000 C 
ATOM     27  O   UNL     1       4.651  14.653  17.580  0.00  0.00    +0.000 OA
ATOM     28  N   UNL     1       6.055  15.716  19.031  0.00  0.00    +0.000 N 
ATOM     29  H   UNL     1       6.205  16.591  19.516  0.00  0.00    +0.000 HD
BRANCH  28  30
ATOM     30  C   UNL     1       7.216  14.973  18.583  0.00  0.00    +0.000 C 
ATOM     31  C   UNL     1       8.285  15.856  17.944  0.00  0.00    +0.000 C 
ATOM     32  C   UNL     1       9.534  14.984  17.977  0.00  0.00    +0.000 C 
ATOM     33  C   UNL     1       9.373  14.070  19.192  0.00  0.00    +0.000 C 
ATOM     34  C   UNL     1       7.966  14.311  19.732  0.00  0.00    +0.000 C 
ENDBRANCH  28  30
ENDBRANCH  10  26
TORSDOF 3
ENDMDL
MODEL 2
REMARK VINA RESULT:      -6.7      5.192      6.458
REMARK  Name = 
REMARK  6 active torsions:
REMARK  status: ('A' for Active; 'I' for Inactive)
REMARK    1  A    between atoms: C_1  and  C_2
REMARK    2  A    between atoms: C_10  and  C_11
REMARK    3  A    between atoms: N_13  and  C_14
REMARK    4  A    between atoms: N_21  and  C_22
REMARK    5  A    between atoms: C_27  and  C_28
REMARK    6  A    between atoms: C_32  and  C_33
REMARK                            x       y       z     vdW  Elec       q    Type
REMARK                         _______ _______ _______ _____ _____    ______ ____
ROOT
ATOM      1  C   UNL     1      -4.441  16.858  24.473  0.00  0.00    +0.000 C 
ATOM      2  C   UNL     1      -3.978  15.790  23.520  0.00  0.00    +0.000 A 
ATOM      3  C   UNL     1      -3.208  14.707  24.008  0.00  0.00    +0.000 A 
ATOM      4  C   UNL     1      -2.758  13.707  23.124  0.00  0.00    +0.000 A 
ATOM      5  N   UNL     1      -2.033  12.567  23.371  0.00  0.00    +0.000 NA
ATOM      6  C   UNL     1      -1.822  11.992  22.200  0.00  0.00    +0.000 A 
ATOM      7  N   UNL     1      -0.991  10.924  21.988  0.00  0.00    +0.000 N 
ATOM      8  C   UNL     1      -0.877   9.873  23.000  0.00  0.00    +0.000 C 
ATOM      9  C   UNL     1       0.592   9.544  23.287  0.00  0.00    +0.000 C 
ATOM     10  C   UNL     1       1.413   9.294  22.013  0.00  0.00    +0.000 C 
ATOM     11  C   UNL     1       1.231  10.468  21.051  0.00  0.00    +0.000 C 
ATOM     12  C   UNL     1      -0.241  10.728  20.751  0.00  0.00    +0.000 C 
ATOM     13  N   UNL     1      -2.511  12.689  21.190  0.00  0.00    +0.000 N 
ATOM     14  C   UNL     1      -3.072  13.815  21.779  0.00  0.00    +0.000 A 
ATOM     15  C   UNL     1      -3.880  14.851  21.281  0.00  0.00    +0.000 A 
ATOM     16  C   UNL     1      -4.321  15.851  22.158  0.00  0.00    +0.000 A 
ATOM     17  C   UNL     1      -5.171  16.961  21.595  0.00  0.00    +0.000 C 
ENDROOT
BRANCH  13  18
ATOM     18  C   UNL     1      -2.718  12.320  19.832  0.00  0.00    +0.000 A 
ATOM     19  C   UNL     1      -1.641  12.329  18.934  0.00  0.00    +0.000 A 
ATOM     20  C   UNL     1      -1.842  11.955  17.606  0.00  0.00    +0.000 A 
ATOM     21  C   UNL     1      -3.110  11.555  17.190  0.00  0.00    +0.000 A 
ATOM     22  F   UNL     1      -3.274  11.175  15.915  0.00  0.00    +0.000 F 
ATOM     23  C   UNL     1      -4.193  11.532  18.073  0.00  0.00    +0.000 A 
ATOM     24  C   UNL     1      -5.543  11.048  17.644  0.00  0.00    +0.000 C 
ATOM     25  C   UNL     1      -3.991  11.933  19.400  0.00  0.00    +0.000 A 
ENDBRANCH  13  18
BRANCH  10  26
ATOM     26  C   UNL     1       1.081   7.968  21.323  0.00  0.00    +0.000 C 
ATOM     27  O   UNL     1      -0.035   7.454  21.355  0.00  0.00    +0.000 OA
ATOM     28  N   UNL     1       2.127   7.405  20.627  0.00  0.00    +0.000 N 
ATOM     29  H   UNL     1       2.916   7.995  20.397  0.00  0.00    +0.000 HD
BRANCH  28  30
ATOM     30  C   UNL     1       1.925   6.196  19.852  0.00  0.00    +0.000 C 
ATOM     31  C   UNL     1       2.717   6.181  18.547  0.00  0.00    +0.000 C 
ATOM     32  C   UNL     1       2.723   4.709  18.152  0.00  0.00    +0.000 C 
ATOM     33  C   UNL     1       2.648   3.925  19.462  0.00  0.00    +0.000 C 
ATOM     34  C   UNL     1       2.429   4.952  20.570  0.00  0.00    +0.000 C 
ENDBRANCH  28  30
ENDBRANCH  10  26
TORSDOF 3
ENDMDL
MODEL 3
REMARK VINA RESULT:      -6.6      2.814      8.627
REMARK  Name = 
REMARK  6 active torsions:
REMARK  status: ('A' for Active; 'I' for Inactive)
REMARK    1  A    between atoms: C_1  and  C_2
REMARK    2  A    between atoms: C_10  and  C_11
REMARK    3  A    between atoms: N_13  and  C_14
REMARK    4  A    between atoms: N_21  and  C_22
REMARK    5  A    between atoms: C_27  and  C_28
REMARK    6  A    between atoms: C_32  and  C_33
REMARK                            x       y       z     vdW  Elec       q    Type
REMARK                         _______ _______ _______ _____ _____    ______ ____
ROOT
ATOM      1  C   UNL     1       5.684  16.919  18.975  0.00  0.00    +0.000 C 
ATOM      2  C   UNL     1       4.382  16.198  19.201  0.00  0.00    +0.000 A 
ATOM      3  C   UNL     1       3.346  16.840  19.920  0.00  0.00    +0.000 A 
ATOM      4  C   UNL     1       2.128  16.171  20.150  0.00  0.00    +0.000 A 
ATOM      5  N   UNL     1       0.989  16.598  20.787  0.00  0.00    +0.000 NA
ATOM      6  C   UNL     1       0.149  15.578  20.784  0.00  0.00    +0.000 A 
ATOM      7  N   UNL     1      -1.035  15.534  21.472  0.00  0.00    +0.000 N 
ATOM      8  C   UNL     1      -1.844  16.744  21.617  0.00  0.00    +0.000 C 
ATOM      9  C   UNL     1      -2.282  16.941  23.072  0.00  0.00    +0.000 C 
ATOM     10  C   UNL     1      -2.906  15.680  23.688  0.00  0.00    +0.000 C 
ATOM     11  C   UNL     1      -1.960  14.496  23.494  0.00  0.00    +0.000 C 
ATOM     12  C   UNL     1      -1.590  14.303  22.028  0.00  0.00    +0.000 C 
ATOM     13  N   UNL     1       0.687  14.513  20.037  0.00  0.00    +0.000 N 
ATOM     14  C   UNL     1       1.976  14.879  19.672  0.00  0.00    +0.000 A 
ATOM     15  C   UNL     1       2.970  14.243  18.908  0.00  0.00    +0.000 A 
ATOM     16  C   UNL     1       4.184  14.904  18.687  0.00  0.00    +0.000 A 
ATOM     17  C   UNL     1       5.240  14.193  17.882  0.00  0.00    +0.000 C 
ENDROOT
BRANCH  13  18
ATOM     18  C   UNL     1       0.057  13.309  19.617  0.00  0.00    +0.000 A 
ATOM     19  C   UNL     1      -0.768  13.311  18.483  0.00  0.00    +0.000 A 
ATOM     20  C   UNL     1      -1.375  12.129  18.064  0.00  0.00    +0.000 A 
ATOM     21  C   UNL     1      -1.139  10.950  18.767  0.00  0.00    +0.000 A 
ATOM     22  F   UNL     1      -1.714   9.819  18.333  0.00  0.00    +0.000 F 
ATOM     23  C   UNL     1      -0.315  10.927  19.896  0.00  0.00    +0.000 A 
ATOM     24  C   UNL     1      -0.012   9.652  20.620  0.00  0.00    +0.000 C 
ATOM     25  C   UNL     1       0.273  12.123  20.327  0.00  0.00    +0.000 A 
ENDBRANCH  13  18
BRANCH  10  26
ATOM     26  C   UNL     1      -4.299  15.358  23.140  0.00  0.00    +0.000 C 
ATOM     27  O   UNL     1      -4.906  16.099  22.370  0.00  0.00    +0.000 OA
ATOM     28  N   UNL     1      -4.814  14.149  23.552  0.00  0.00    +0.000 N 
ATOM     29  H   UNL     1      -4.173  13.469  23.940  0.00  0.00    +0.000 HD
BRANCH  28  30
ATOM     30  C   UNL     1      -6.085  13.680  23.037  0.00  0.00    +0.000 C 
ATOM     31  C   UNL     1      -5.942  12.804  21.795  0.00  0.00    +0.000 C 
ATOM     32  C   UNL     1      -7.281  12.082  21.712  0.00  0.00    +0.000 C 
ATOM     33  C   UNL     1      -7.780  11.963  23.153  0.00  0.00    +0.000 C 
ATOM     34  C   UNL     1      -6.809  12.765  24.015  0.00  0.00    +0.000 C 
ENDBRANCH  28  30
ENDBRANCH  10  26
TORSDOF 3
ENDMDL
MODEL 4
REMARK VINA RESULT:      -6.5      0.501      1.268
REMARK  Name = 
REMARK  6 active torsions:
REMARK  status: ('A' for Active; 'I' for Inactive)
REMARK    1  A    between atoms: C_1  and  C_2
REMARK    2  A    between atoms: C_10  and  C_11
REMARK    3  A    between atoms: N_13  and  C_14
REMARK    4  A    between atoms: N_21  and  C_22
REMARK    5  A    between atoms: C_27  and  C_28
REMARK    6  A    between atoms: C_32  and  C_33
REMARK                            x       y       z     vdW  Elec       q    Type
REMARK                         _______ _______ _______ _____ _____    ______ ____
ROOT
ATOM      1  C   UNL     1      -3.386  14.773  25.642  0.00  0.00    +0.000 C 
ATOM      2  C   UNL     1      -2.520  14.316  24.499  0.00  0.00    +0.000 A 
ATOM      3  C   UNL     1      -1.292  14.973  24.250  0.00  0.00    +0.000 A 
ATOM      4  C   UNL     1      -0.478  14.563  23.176  0.00  0.00    +0.000 A 
ATOM      5  N   UNL     1       0.748  15.026  22.766  0.00  0.00    +0.000 NA
ATOM      6  C   UNL     1       1.064  14.348  21.677  0.00  0.00    +0.000 A 
ATOM      7  N   UNL     1       2.128  14.626  20.860  0.00  0.00    +0.000 N 
ATOM      8  C   UNL     1       3.384  15.110  21.432  0.00  0.00    +0.000 C 
ATOM      9  C   UNL     1       3.898  16.335  20.668  0.00  0.00    +0.000 C 
ATOM     10  C   UNL     1       3.930  16.127  19.147  0.00  0.00    +0.000 C 
ATOM     11  C   UNL     1       2.559  15.647  18.670  0.00  0.00    +0.000 C 
ATOM     12  C   UNL     1       2.109  14.397  19.417  0.00  0.00    +0.000 C 
ATOM     13  N   UNL     1       0.100  13.351  21.434  0.00  0.00    +0.000 N 
ATOM     14  C   UNL     1      -0.912  13.522  22.370  0.00  0.00    +0.000 A 
ATOM     15  C   UNL     1      -2.100  12.820  22.631  0.00  0.00    +0.000 A 
ATOM     16  C   UNL     1      -2.914  13.232  23.694  0.00  0.00    +0.000 A 
ATOM     17  C   UNL     1      -4.193  12.475  23.941  0.00  0.00    +0.000 C 
ENDROOT
BRANCH  13  18
ATOM     18  C   UNL     1       0.137  12.283  20.494  0.00  0.00    +0.000 A 
ATOM     19  C   UNL     1      -0.388  12.466  19.208  0.00  0.00    +0.000 A 
ATOM     20  C   UNL     1      -0.341  11.424  18.284  0.00  0.00    +0.000 A 
ATOM     21  C   UNL     1       0.250  10.215  18.644  0.00  0.00    +0.000 A 
ATOM     22  F   UNL     1       0.308   9.234  17.731  0.00  0.00    +0.000 F 
ATOM     23  C   UNL     1       0.785  10.016  19.919  0.00  0.00    +0.000 A 
ATOM     24  C   UNL     1       1.472   8.739  20.291  0.00  0.00    +0.000 C 
ATOM     25  C   UNL     1       0.712  11.059  20.852  0.00  0.00    +0.000 A 
ENDBRANCH  13  18
BRANCH  10  26
ATOM     26  C   UNL     1       5.033  15.172  18.684  0.00  0.00    +0.000 C 
ATOM     27  O   UNL     1       4.847  14.280  17.860  0.00  0.00    +0.000 OA
ATOM     28  N   UNL     1       6.270  15.409  19.241  0.00  0.00    +0.000 N 
ATOM     29  H   UNL     1       6.429  16.308  19.677  0.00  0.00    +0.000 HD
BRANCH  28  30
ATOM     30  C   UNL     1       7.423  14.637  18.822  0.00  0.00    +0.000 C 
ATOM     31  C   UNL     1       8.312  15.377  17.827  0.00  0.00    +0.000 C 
ATOM     32  C   UNL     1       9.628  14.611  17.887  0.00  0.00    +0.000 C 
ATOM     33  C   UNL     1       9.713  14.039  19.302  0.00  0.00    +0.000 C 
ATOM     34  C   UNL     1       8.375  14.339  19.972  0.00  0.00    +0.000 C 
ENDBRANCH  28  30
ENDBRANCH  10  26
TORSDOF 3
ENDMDL
MODEL 5
REMARK VINA RESULT:      -6.4      3.158      8.439
REMARK  Name = 
REMARK  6 active torsions:
REMARK  status: ('A' for Active; 'I' for Inactive)
REMARK    1  A    between atoms: C_1  and  C_2
REMARK    2  A    between atoms: C_10  and  C_11
REMARK    3  A    between atoms: N_13  and  C_14
REMARK    4  A    between atoms: N_21  and  C_22
REMARK    5  A    between atoms: C_27  and  C_28
REMARK    6  A    between atoms: C_32  and  C_33
REMARK                            x       y       z     vdW  Elec       q    Type
REMARK                         _______ _______ _______ _____ _____    ______ ____
ROOT
ATOM      1  C   UNL     1       4.844  16.602  20.015  0.00  0.00    +0.000 C 
ATOM      2  C   UNL     1       3.637  15.705  19.963  0.00  0.00    +0.000 A 
ATOM      3  C   UNL     1       2.546  15.953  20.828  0.00  0.00    +0.000 A 
ATOM      4  C   UNL     1       1.416  15.113  20.798  0.00  0.00    +0.000 A 
ATOM      5  N   UNL     1       0.246  15.176  21.514  0.00  0.00    +0.000 NA
ATOM      6  C   UNL     1      -0.473  14.125  21.157  0.00  0.00    +0.000 A 
ATOM      7  N   UNL     1      -1.632  13.724  21.765  0.00  0.00    +0.000 N 
ATOM      8  C   UNL     1      -2.572  14.720  22.280  0.00  0.00    +0.000 C 
ATOM      9  C   UNL     1      -3.007  14.377  23.709  0.00  0.00    +0.000 C 
ATOM     10  C   UNL     1      -3.474  12.921  23.863  0.00  0.00    +0.000 C 
ATOM     11  C   UNL     1      -2.401  11.982  23.313  0.00  0.00    +0.000 C 
ATOM     12  C   UNL     1      -2.035  12.324  21.874  0.00  0.00    +0.000 C 
ATOM     13  N   UNL     1       0.172  13.432  20.115  0.00  0.00    +0.000 N 
ATOM     14  C   UNL     1       1.405  14.041  19.919  0.00  0.00    +0.000 A 
ATOM     15  C   UNL     1       2.453  13.808  19.012  0.00  0.00    +0.000 A 
ATOM     16  C   UNL     1       3.580  14.638  19.048  0.00  0.00    +0.000 A 
ATOM     17  C   UNL     1       4.698  14.354  18.078  0.00  0.00    +0.000 C 
ENDROOT
BRANCH  13  18
ATOM     18  C   UNL     1      -0.323  12.370  19.308  0.00  0.00    +0.000 A 
ATOM     19  C   UNL     1       0.404  11.176  19.201  0.00  0.00    +0.000 A 
ATOM     20  C   UNL     1      -0.088  10.131  18.421  0.00  0.00    +0.000 A 
ATOM     21  C   UNL     1      -1.311  10.278  17.771  0.00  0.00    +0.000 A 
ATOM     22  F   UNL     1      -1.777   9.251  17.046  0.00  0.00    +0.000 F 
ATOM     23  C   UNL     1      -2.053  11.458  17.871  0.00  0.00    +0.000 A 
ATOM     24  C   UNL     1      -3.395  11.598  17.222  0.00  0.00    +0.000 C 
ATOM     25  C   UNL     1      -1.542  12.514  18.636  0.00  0.00    +0.000 A 
ENDBRANCH  13  18
BRANCH  10  26
ATOM     26  C   UNL     1      -4.829  12.642  23.208  0.00  0.00    +0.000 C 
ATOM     27  O   UNL     1      -5.778  12.146  23.811  0.00  0.00    +0.000 OA
ATOM     28  N   UNL     1      -4.919  13.023  21.888  0.00  0.00    +0.000 N 
ATOM     29  H   UNL     1      -4.227  13.672  21.534  0.00  0.00    +0.000 HD
BRANCH  28  30
ATOM     30  C   UNL     1      -6.174  12.900  21.173  0.00  0.00    +0.000 C 
ATOM     31  C   UNL     1      -6.454  14.079  20.245  0.00  0.00    +0.000 C 
ATOM     32  C   UNL     1      -7.524  13.543  19.302  0.00  0.00    +0.000 C 
ATOM     33  C   UNL     1      -7.281  12.036  19.208  0.00  0.00    +0.000 C 
ATOM     34  C   UNL     1      -6.190  11.709  20.224  0.00  0.00    +0.000 C 
ENDBRANCH  28  30
ENDBRANCH  10  26
TORSDOF 3
ENDMDL
MODEL 6
REMARK VINA RESULT:      -6.4      3.672      6.722
REMARK  Name = 
REMARK  6 active torsions:
REMARK  status: ('A' for Active; 'I' for Inactive)
REMARK    1  A    between atoms: C_1  and  C_2
REMARK    2  A    between atoms: C_10  and  C_11
REMARK    3  A    between atoms: N_13  and  C_14
REMARK    4  A    between atoms: N_21  and  C_22
REMARK    5  A    between atoms: C_27  and  C_28
REMARK    6  A    between atoms: C_32  and  C_33
REMARK                            x       y       z     vdW  Elec       q    Type
REMARK                         _______ _______ _______ _____ _____    ______ ____
ROOT
ATOM      1  C   UNL     1      -4.249  16.070  23.904  0.00  0.00    +0.000 C 
ATOM      2  C   UNL     1      -3.108  15.405  23.184  0.00  0.00    +0.000 A 
ATOM      3  C   UNL     1      -3.111  13.999  23.020  0.00  0.00    +0.000 A 
ATOM      4  C   UNL     1      -2.042  13.362  22.360  0.00  0.00    +0.000 A 
ATOM      5  N   UNL     1      -1.847  12.036  22.064  0.00  0.00    +0.000 NA
ATOM      6  C   UNL     1      -0.663  11.948  21.483  0.00  0.00    +0.000 A 
ATOM      7  N   UNL     1      -0.018  10.776  21.190  0.00  0.00    +0.000 N 
ATOM      8  C   UNL     1      -0.784   9.605  20.763  0.00  0.00    +0.000 C 
ATOM      9  C   UNL     1      -0.356   8.356  21.542  0.00  0.00    +0.000 C 
ATOM     10  C   UNL     1       1.165   8.149  21.561  0.00  0.00    +0.000 C 
ATOM     11  C   UNL     1       1.847   9.429  22.046  0.00  0.00    +0.000 C 
ATOM     12  C   UNL     1       1.436  10.637  21.213  0.00  0.00    +0.000 C 
ATOM     13  N   UNL     1      -0.127  13.235  21.286  0.00  0.00    +0.000 N 
ATOM     14  C   UNL     1      -0.993  14.137  21.891  0.00  0.00    +0.000 A 
ATOM     15  C   UNL     1      -0.994  15.538  21.993  0.00  0.00    +0.000 A 
ATOM     16  C   UNL     1      -2.052  16.171  22.657  0.00  0.00    +0.000 A 
ATOM     17  C   UNL     1      -2.019  17.673  22.770  0.00  0.00    +0.000 C 
ENDROOT
BRANCH  13  18
ATOM     18  C   UNL     1       1.020  13.618  20.537  0.00  0.00    +0.000 A 
ATOM     19  C   UNL     1       0.984  13.585  19.136  0.00  0.00    +0.000 A 
ATOM     20  C   UNL     1       2.104  13.972  18.403  0.00  0.00    +0.000 A 
ATOM     21  C   UNL     1       3.244  14.410  19.073  0.00  0.00    +0.000 A 
ATOM     22  F   UNL     1       4.302  14.802  18.348  0.00  0.00    +0.000 F 
ATOM     23  C   UNL     1       3.296  14.457  20.469  0.00  0.00    +0.000 A 
ATOM     24  C   UNL     1       4.498  14.982  21.191  0.00  0.00    +0.000 C 
ATOM     25  C   UNL     1       2.177  14.043  21.201  0.00  0.00    +0.000 A 
ENDBRANCH  13  18
BRANCH  10  26
ATOM     26  C   UNL     1       1.738   7.705  20.213  0.00  0.00    +0.000 C 
ATOM     27  O   UNL     1       1.786   8.438  19.228  0.00  0.00    +0.000 OA
ATOM     28  N   UNL     1       2.232   6.419  20.194  0.00  0.00    +0.000 N 
ATOM     29  H   UNL     1       2.427   5.973  21.081  0.00  0.00    +0.000 HD
BRANCH  28  30
ATOM     30  C   UNL     1       2.885   5.902  19.007  0.00  0.00    +0.000 C 
ATOM     31  C   UNL     1       4.189   5.170  19.311  0.00  0.00    +0.000 C 
ATOM     32  C   UNL     1       4.442   4.354  18.049  0.00  0.00    +0.000 C 
ATOM     33  C   UNL     1       3.061   4.052  17.465  0.00  0.00    +0.000 C 
ATOM     34  C   UNL     1       2.055   4.839  18.301  0.00  0.00    +0.000 C 
ENDBRANCH  28  30
ENDBRANCH  10  26
TORSDOF 3
ENDMDL
MODEL 7
REMARK VINA RESULT:      -6.4      2.025      2.795
REMARK  Name = 
REMARK  6 active torsions:
REMARK  status: ('A' for Active; 'I' for Inactive)
REMARK    1  A    between atoms: C_1  and  C_2
REMARK    2  A    between atoms: C_10  and  C_11
REMARK    3  A    between atoms: N_13  and  C_14
REMARK    4  A    between atoms: N_21  and  C_22
REMARK    5  A    between atoms: C_27  and  C_28
REMARK    6  A    between atoms: C_32  and  C_33
REMARK                            x       y       z     vdW  Elec       q    Type
REMARK                         _______ _______ _______ _____ _____    ______ ____
ROOT
ATOM      1  C   UNL     1      -7.196  14.479  22.870  0.00  0.00    +0.000 C 
ATOM      2  C   UNL     1      -5.873  14.128  22.245  0.00  0.00    +0.000 A 
ATOM      3  C   UNL     1      -4.759  14.976  22.448  0.00  0.00    +0.000 A 
ATOM      4  C   UNL     1      -3.518  14.666  21.857  0.00  0.00    +0.000 A 
ATOM      5  N   UNL     1      -2.312  15.316  21.938  0.00  0.00    +0.000 NA
ATOM      6  C   UNL     1      -1.473  14.654  21.159  0.00  0.00    +0.000 A 
ATOM      7  N   UNL     1      -0.214  15.076  20.825  0.00  0.00    +0.000 N 
ATOM      8  C   UNL     1       0.601  15.797  21.803  0.00  0.00    +0.000 C 
ATOM      9  C   UNL     1       1.215  17.057  21.183  0.00  0.00    +0.000 C 
ATOM     10  C   UNL     1       1.917  16.789  19.844  0.00  0.00    +0.000 C 
ATOM     11  C   UNL     1       0.959  16.056  18.905  0.00  0.00    +0.000 C 
ATOM     12  C   UNL     1       0.413  14.782  19.538  0.00  0.00    +0.000 C 
ATOM     13  N   UNL     1      -2.095  13.495  20.658  0.00  0.00    +0.000 N 
ATOM     14  C   UNL     1      -3.421  13.530  21.069  0.00  0.00    +0.000 A 
ATOM     15  C   UNL     1      -4.498  12.644  20.898  0.00  0.00    +0.000 A 
ATOM     16  C   UNL     1      -5.734  12.957  21.478  0.00  0.00    +0.000 A 
ATOM     17  C   UNL     1      -6.878  12.000  21.263  0.00  0.00    +0.000 C 
ENDROOT
BRANCH  13  18
ATOM     18  C   UNL     1      -1.515  12.408  19.945  0.00  0.00    +0.000 A 
ATOM     19  C   UNL     1      -1.735  12.281  18.567  0.00  0.00    +0.000 A 
ATOM     20  C   UNL     1      -1.157  11.223  17.867  0.00  0.00    +0.000 A 
ATOM     21  C   UNL     1      -0.347  10.313  18.544  0.00  0.00    +0.000 A 
ATOM     22  F   UNL     1       0.219   9.318  17.847  0.00  0.00    +0.000 F 
ATOM     23  C   UNL     1      -0.111  10.429  19.917  0.00  0.00    +0.000 A 
ATOM     24  C   UNL     1       0.804   9.488  20.637  0.00  0.00    +0.000 C 
ATOM     25  C   UNL     1      -0.715  11.479  20.620  0.00  0.00    +0.000 A 
ENDBRANCH  13  18
BRANCH  10  26
ATOM     26  C   UNL     1       3.233  16.020  19.987  0.00  0.00    +0.000 C 
ATOM     27  O   UNL     1       3.440  15.202  20.881  0.00  0.00    +0.000 OA
ATOM     28  N   UNL     1       4.166  16.289  19.011  0.00  0.00    +0.000 N 
ATOM     29  H   UNL     1       3.847  16.736  18.161  0.00  0.00    +0.000 HD
BRANCH  28  30
ATOM     30  C   UNL     1       5.420  15.563  18.975  0.00  0.00    +0.000 C 
ATOM     31  C   UNL     1       5.523  14.602  17.794  0.00  0.00    +0.000 C 
ATOM     32  C   UNL     1       7.017  14.317  17.696  0.00  0.00    +0.000 C 
ATOM     33  C   UNL     1       7.716  15.571  18.224  0.00  0.00    +0.000 C 
ATOM     34  C   UNL     1       6.619  16.480  18.772  0.00  0.00    +0.000 C 
ENDBRANCH  28  30
ENDBRANCH  10  26
TORSDOF 3
ENDMDL
MODEL 8
REMARK VINA RESULT:      -6.4      2.310      3.221
REMARK  Name = 
REMARK  6 active torsions:
REMARK  status: ('A' for Active; 'I' for Inactive)
REMARK    1  A    between atoms: C_1  and  C_2
REMARK    2  A    between atoms: C_10  and  C_11
REMARK    3  A    between atoms: N_13  and  C_14
REMARK    4  A    between atoms: N_21  and  C_22
REMARK    5  A    between atoms: C_27  and  C_28
REMARK    6  A    between atoms: C_32  and  C_33
REMARK                            x       y       z     vdW  Elec       q    Type
REMARK                         _______ _______ _______ _____ _____    ______ ____
ROOT
ATOM      1  C   UNL     1      -7.826  14.239  23.961  0.00  0.00    +0.000 C 
ATOM      2  C   UNL     1      -6.529  13.995  23.237  0.00  0.00    +0.000 A 
ATOM      3  C   UNL     1      -5.442  14.878  23.439  0.00  0.00    +0.000 A 
ATOM      4  C   UNL     1      -4.227  14.669  22.758  0.00  0.00    +0.000 A 
ATOM      5  N   UNL     1      -3.047  15.368  22.817  0.00  0.00    +0.000 NA
ATOM      6  C   UNL     1      -2.229  14.802  21.946  0.00  0.00    +0.000 A 
ATOM      7  N   UNL     1      -1.011  15.305  21.573  0.00  0.00    +0.000 N 
ATOM      8  C   UNL     1      -0.170  15.993  22.553  0.00  0.00    +0.000 C 
ATOM      9  C   UNL     1       0.351  17.321  21.993  0.00  0.00    +0.000 C 
ATOM     10  C   UNL     1       0.983  17.180  20.600  0.00  0.00    +0.000 C 
ATOM     11  C   UNL     1       0.002  16.471  19.665  0.00  0.00    +0.000 C 
ATOM     12  C   UNL     1      -0.451  15.132  20.234  0.00  0.00    +0.000 C 
ATOM     13  N   UNL     1      -2.829  13.653  21.397  0.00  0.00    +0.000 N 
ATOM     14  C   UNL     1      -4.128  13.597  21.885  0.00  0.00    +0.000 A 
ATOM     15  C   UNL     1      -5.175  12.676  21.711  0.00  0.00    +0.000 A 
ATOM     16  C   UNL     1      -6.387  12.888  22.381  0.00  0.00    +0.000 A 
ATOM     17  C   UNL     1      -7.500  11.897  22.162  0.00  0.00    +0.000 C 
ENDROOT
BRANCH  13  18
ATOM     18  C   UNL     1      -2.247  12.647  20.576  0.00  0.00    +0.000 A 
ATOM     19  C   UNL     1      -1.252  11.809  21.097  0.00  0.00    +0.000 A 
ATOM     20  C   UNL     1      -0.691  10.816  20.296  0.00  0.00    +0.000 A 
ATOM     21  C   UNL     1      -1.142  10.654  18.988  0.00  0.00    +0.000 A 
ATOM     22  F   UNL     1      -0.607   9.677  18.243  0.00  0.00    +0.000 F 
ATOM     23  C   UNL     1      -2.139  11.476  18.454  0.00  0.00    +0.000 A 
ATOM     24  C   UNL     1      -2.667  11.268  17.068  0.00  0.00    +0.000 C 
ATOM     25  C   UNL     1      -2.681  12.488  19.255  0.00  0.00    +0.000 A 
ENDBRANCH  13  18
BRANCH  10  26
ATOM     26  C   UNL     1       2.336  16.466  20.612  0.00  0.00    +0.000 C 
ATOM     27  O   UNL     1       2.792  15.907  21.607  0.00  0.00    +0.000 OA
ATOM     28  N   UNL     1       2.997  16.465  19.404  0.00  0.00    +0.000 N 
ATOM     29  H   UNL     1       2.464  16.679  18.572  0.00  0.00    +0.000 HD
BRANCH  28  30
ATOM     30  C   UNL     1       4.247  15.746  19.252  0.00  0.00    +0.000 C 
ATOM     31  C   UNL     1       4.327  14.949  17.953  0.00  0.00    +0.000 C 
ATOM     32  C   UNL     1       5.817  14.675  17.795  0.00  0.00    +0.000 C 
ATOM     33  C   UNL     1       6.531  15.845  18.473  0.00  0.00    +0.000 C 
ATOM     34  C   UNL     1       5.448  16.677  19.154  0.00  0.00    +0.000 C 
ENDBRANCH  28  30
ENDBRANCH  10  26
TORSDOF 3
ENDMDL
MODEL 9
REMARK VINA RESULT:      -6.4      3.090      8.481
REMARK  Name = 
REMARK  6 active torsions:
REMARK  status: ('A' for Active; 'I' for Inactive)
REMARK    1  A    between atoms: C_1  and  C_2
REMARK    2  A    between atoms: C_10  and  C_11
REMARK    3  A    between atoms: N_13  and  C_14
REMARK    4  A    between atoms: N_21  and  C_22
REMARK    5  A    between atoms: C_27  and  C_28
REMARK    6  A    between atoms: C_32  and  C_33
REMARK                            x       y       z     vdW  Elec       q    Type
REMARK                         _______ _______ _______ _____ _____    ______ ____
ROOT
ATOM      1  C   UNL     1       4.780  17.112  19.654  0.00  0.00    +0.000 C 
ATOM      2  C   UNL     1       3.623  16.150  19.670  0.00  0.00    +0.000 A 
ATOM      3  C   UNL     1       2.534  16.383  20.544  0.00  0.00    +0.000 A 
ATOM      4  C   UNL     1       1.451  15.483  20.578  0.00  0.00    +0.000 A 
ATOM      5  N   UNL     1       0.292  15.519  21.312  0.00  0.00    +0.000 NA
ATOM      6  C   UNL     1      -0.374  14.414  21.022  0.00  0.00    +0.000 A 
ATOM      7  N   UNL     1      -1.500  13.983  21.672  0.00  0.00    +0.000 N 
ATOM      8  C   UNL     1      -2.484  14.953  22.155  0.00  0.00    +0.000 C 
ATOM      9  C   UNL     1      -2.875  14.659  23.607  0.00  0.00    +0.000 C 
ATOM     10  C   UNL     1      -3.259  13.191  23.843  0.00  0.00    +0.000 C 
ATOM     11  C   UNL     1      -2.146  12.283  23.319  0.00  0.00    +0.000 C 
ATOM     12  C   UNL     1      -1.824  12.571  21.858  0.00  0.00    +0.000 C 
ATOM     13  N   UNL     1       0.290  13.706  20.003  0.00  0.00    +0.000 N 
ATOM     14  C   UNL     1       1.484  14.369  19.753  0.00  0.00    +0.000 A 
ATOM     15  C   UNL     1       2.528  14.146  18.839  0.00  0.00    +0.000 A 
ATOM     16  C   UNL     1       3.609  15.036  18.811  0.00  0.00    +0.000 A 
ATOM     17  C   UNL     1       4.724  14.764  17.835  0.00  0.00    +0.000 C 
ENDROOT
BRANCH  13  18
ATOM     18  C   UNL     1      -0.160  12.579  19.260  0.00  0.00    +0.000 A 
ATOM     19  C   UNL     1      -1.356  12.654  18.532  0.00  0.00    +0.000 A 
ATOM     20  C   UNL     1      -1.790  11.554  17.795  0.00  0.00    +0.000 A 
ATOM     21  C   UNL     1      -1.018  10.395  17.773  0.00  0.00    +0.000 A 
ATOM     22  F   UNL     1      -1.442   9.358  17.037  0.00  0.00    +0.000 F 
ATOM     23  C   UNL     1       0.180  10.304  18.486  0.00  0.00    +0.000 A 
ATOM     24  C   UNL     1       1.042   9.081  18.419  0.00  0.00    +0.000 C 
ATOM     25  C   UNL     1       0.599  11.404  19.246  0.00  0.00    +0.000 A 
ENDBRANCH  13  18
BRANCH  10  26
ATOM     26  C   UNL     1      -4.608  12.807  23.229  0.00  0.00    +0.000 C 
ATOM     27  O   UNL     1      -5.449  12.134  23.821  0.00  0.00    +0.000 OA
ATOM     28  N   UNL     1      -4.827  13.305  21.964  0.00  0.00    +0.000 N 
ATOM     29  H   UNL     1      -4.244  14.069  21.648  0.00  0.00    +0.000 HD
BRANCH  28  30
ATOM     30  C   UNL     1      -6.099  13.093  21.302  0.00  0.00    +0.000 C 
ATOM     31  C   UNL     1      -6.575  14.310  20.514  0.00  0.00    +0.000 C 
ATOM     32  C   UNL     1      -7.630  13.736  19.576  0.00  0.00    +0.000 C 
ATOM     33  C   UNL     1      -7.213  12.288  19.316  0.00  0.00    +0.000 C 
ATOM     34  C   UNL     1      -6.030  12.006  20.239  0.00  0.00    +0.000 C 
ENDBRANCH  28  30
ENDBRANCH  10  26
TORSDOF 3
ENDMDL
