MODEL 1
REMARK VINA RESULT:      -8.3      0.000      0.000
REMARK  Name = 
REMARK  2 active torsions:
REMARK  status: ('A' for Active; 'I' for Inactive)
REMARK    1  A    between atoms: N_10  and  C_11
REMARK    2  A    between atoms: C_11  and  C_12
REMARK                            x       y       z     vdW  Elec       q    Type
REMARK                         _______ _______ _______ _____ _____    ______ ____
ROOT
ATOM      1  O   UNL     1       3.600   1.393  17.847  0.00  0.00    +0.000 OA
ATOM      2  C   UNL     1       3.350   2.462  18.393  0.00  0.00    +0.000 C 
ATOM      3  N   UNL     1       3.981   2.833  19.554  0.00  0.00    +0.000 N 
ATOM      4  C   UNL     1       3.555   4.022  20.264  0.00  0.00    +0.000 C 
ATOM      5  C   UNL     1       2.383   3.773  21.214  0.00  0.00    +0.000 C 
ATOM      6  C   UNL     1       1.014   3.622  20.420  0.00  0.00    +0.000 C 
ATOM      7  C   UNL     1       1.003   3.212  18.891  0.00  0.00    +0.000 C 
ATOM      8  C   UNL     1       2.236   3.417  17.926  0.00  0.00    +0.000 C 
ATOM      9  C   UNL     1       2.762   4.915  17.611  0.00  0.00    +0.000 C 
ATOM     10  N   UNL     1       3.291   5.952  18.604  0.00  0.00    +0.000 NA
ATOM     11  C   UNL     1       4.152   5.330  19.688  0.00  0.00    +0.000 C 
ATOM     12  H   UNL     1       4.670   2.196  19.937  0.00  0.00    +0.000 HD
ENDROOT
BRANCH  10  13
ATOM     13  C   UNL     1       2.195   6.812  19.143  0.00  0.00    +0.000 C 
BRANCH  13  14
ATOM     14  C   UNL     1       2.105   8.209  18.492  0.00  0.00    +0.000 C 
ATOM     15  O   UNL     1       2.709   8.380  17.417  0.00  0.00    +0.000 OA
ATOM     16  N   UNL     1       1.443   9.270  19.064  0.00  0.00    +0.000 N 
ATOM     17  C   UNL     1       1.508  10.588  18.398  0.00  0.00    +0.000 C 
ATOM     18  C   UNL     1       0.911  11.634  19.338  0.00  0.00    +0.000 C 
ATOM     19  C   UNL     1       0.483  10.794  20.492  0.00  0.00    +0.000 A 
ATOM     20  C   UNL     1      -0.096  11.254  21.668  0.00  0.00    +0.000 A 
ATOM     21  C   UNL     1      -0.447  10.324  22.640  0.00  0.00    +0.000 A 
ATOM     22  C   UNL     1      -0.255   8.957  22.405  0.00  0.00    +0.000 A 
ATOM     23  C   UNL     1       0.329   8.504  21.213  0.00  0.00    +0.000 A 
ATOM     24  C   UNL     1       0.742   9.429  20.272  0.00  0.00    +0.000 A 
ENDBRANCH  13  14
ENDBRANCH  10  13
TORSDOF 2
ENDMDL
MODEL 2
REMARK VINA RESULT:      -8.3      2.602      4.264
REMARK  Name = 
REMARK  2 active torsions:
REMARK  status: ('A' for Active; 'I' for Inactive)
REMARK    1  A    between atoms: N_10  and  C_11
REMARK    2  A    between atoms: C_11  and  C_12
REMARK                            x       y       z     vdW  Elec       q    Type
REMARK                         _______ _______ _______ _____ _____    ______ ____
ROOT
ATOM      1  O   UNL     1       8.492   4.187  17.808  0.00  0.00    +0.000 OA
ATOM      2  C   UNL     1       7.295   4.407  17.652  0.00  0.00    +0.000 C 
ATOM      3  N   UNL     1       6.615   3.905  16.570  0.00  0.00    +0.000 N 
ATOM      4  C   UNL     1       5.245   4.308  16.324  0.00  0.00    +0.000 C 
ATOM      5  C   UNL     1       5.131   5.615  15.538  0.00  0.00    +0.000 C 
ATOM      6  C   UNL     1       5.453   6.873  16.455  0.00  0.00    +0.000 C 
ATOM      7  C   UNL     1       6.315   6.717  17.774  0.00  0.00    +0.000 C 
ATOM      8  C   UNL     1       6.478   5.352  18.551  0.00  0.00    +0.000 C 
ATOM      9  C   UNL     1       5.179   4.650  19.212  0.00  0.00    +0.000 C 
ATOM     10  N   UNL     1       3.912   4.164  18.503  0.00  0.00    +0.000 NA
ATOM     11  C   UNL     1       4.210   3.519  17.162  0.00  0.00    +0.000 C 
ATOM     12  H   UNL     1       7.135   3.337  15.912  0.00  0.00    +0.000 HD
ENDROOT
BRANCH  10  13
ATOM     13  C   UNL     1       2.876   5.236  18.424  0.00  0.00    +0.000 C 
BRANCH  13  14
ATOM     14  C   UNL     1       2.266   5.633  19.785  0.00  0.00    +0.000 C 
ATOM     15  O   UNL     1       2.077   4.724  20.615  0.00  0.00    +0.000 OA
ATOM     16  N   UNL     1       1.877   6.915  20.097  0.00  0.00    +0.000 N 
ATOM     17  C   UNL     1       1.212   7.158  21.394  0.00  0.00    +0.000 C 
ATOM     18  C   UNL     1       0.670   8.586  21.397  0.00  0.00    +0.000 C 
ATOM     19  C   UNL     1       1.131   9.089  20.073  0.00  0.00    +0.000 A 
ATOM     20  C   UNL     1       0.870  10.344  19.538  0.00  0.00    +0.000 A 
ATOM     21  C   UNL     1       1.393  10.652  18.287  0.00  0.00    +0.000 A 
ATOM     22  C   UNL     1       2.198   9.723  17.616  0.00  0.00    +0.000 A 
ATOM     23  C   UNL     1       2.456   8.459  18.166  0.00  0.00    +0.000 A 
ATOM     24  C   UNL     1       1.883   8.123  19.379  0.00  0.00    +0.000 A 
ENDBRANCH  13  14
ENDBRANCH  10  13
TORSDOF 2
ENDMDL
MODEL 3
REMARK VINA RESULT:      -7.6      0.989      1.367
REMARK  Name = 
REMARK  2 active torsions:
REMARK  status: ('A' for Active; 'I' for Inactive)
REMARK    1  A    between atoms: N_10  and  C_11
REMARK    2  A    between atoms: C_11  and  C_12
REMARK                            x       y       z     vdW  Elec       q    Type
REMARK                         _______ _______ _______ _____ _____    ______ ____
ROOT
ATOM      1  O   UNL     1       4.938   2.239  20.018  0.00  0.00    +0.000 OA
ATOM      2  C   UNL     1       4.058   3.083  19.877  0.00  0.00    +0.000 C 
ATOM      3  N   UNL     1       3.085   3.261  20.828  0.00  0.00    +0.000 N 
ATOM      4  C   UNL     1       1.971   4.150  20.568  0.00  0.00    +0.000 C 
ATOM      5  C   UNL     1       0.826   3.479  19.807  0.00  0.00    +0.000 C 
ATOM      6  C   UNL     1       1.182   3.295  18.268  0.00  0.00    +0.000 C 
ATOM      7  C   UNL     1       2.688   3.275  17.780  0.00  0.00    +0.000 C 
ATOM      8  C   UNL     1       3.876   3.918  18.596  0.00  0.00    +0.000 C 
ATOM      9  C   UNL     1       3.891   5.514  18.861  0.00  0.00    +0.000 C 
ATOM     10  N   UNL     1       2.848   6.352  19.604  0.00  0.00    +0.000 NA
ATOM     11  C   UNL     1       2.298   5.641  20.827  0.00  0.00    +0.000 C 
ATOM     12  H   UNL     1       3.125   2.677  21.655  0.00  0.00    +0.000 HD
ENDROOT
BRANCH  10  13
ATOM     13  C   UNL     1       1.783   6.853  18.685  0.00  0.00    +0.000 C 
BRANCH  13  14
ATOM     14  C   UNL     1       1.937   8.335  18.282  0.00  0.00    +0.000 C 
ATOM     15  O   UNL     1       2.615   8.585  17.267  0.00  0.00    +0.000 OA
ATOM     16  N   UNL     1       1.414   9.378  19.011  0.00  0.00    +0.000 N 
ATOM     17  C   UNL     1       1.712  10.761  18.583  0.00  0.00    +0.000 C 
ATOM     18  C   UNL     1       1.231  11.717  19.674  0.00  0.00    +0.000 C 
ATOM     19  C   UNL     1       0.623  10.776  20.655  0.00  0.00    +0.000 A 
ATOM     20  C   UNL     1       0.061  11.119  21.878  0.00  0.00    +0.000 A 
ATOM     21  C   UNL     1      -0.475  10.108  22.667  0.00  0.00    +0.000 A 
ATOM     22  C   UNL     1      -0.480   8.786  22.205  0.00  0.00    +0.000 A 
ATOM     23  C   UNL     1       0.089   8.451  20.968  0.00  0.00    +0.000 A 
ATOM     24  C   UNL     1       0.684   9.442  20.210  0.00  0.00    +0.000 A 
ENDBRANCH  13  14
ENDBRANCH  10  13
TORSDOF 2
ENDMDL
MODEL 4
REMARK VINA RESULT:      -7.4      2.265      3.359
REMARK  Name = 
REMARK  2 active torsions:
REMARK  status: ('A' for Active; 'I' for Inactive)
REMARK    1  A    between atoms: N_10  and  C_11
REMARK    2  A    between atoms: C_11  and  C_12
REMARK                            x       y       z     vdW  Elec       q    Type
REMARK                         _______ _______ _______ _____ _____    ______ ____
ROOT
ATOM      1  O   UNL     1       7.833   4.347  16.266  0.00  0.00    +0.000 OA
ATOM      2  C   UNL     1       6.799   4.554  16.893  0.00  0.00    +0.000 C 
ATOM      3  N   UNL     1       6.725   4.316  18.242  0.00  0.00    +0.000 N 
ATOM      4  C   UNL     1       5.453   4.416  18.929  0.00  0.00    +0.000 C 
ATOM      5  C   UNL     1       4.625   3.132  18.859  0.00  0.00    +0.000 C 
ATOM      6  C   UNL     1       3.963   2.947  17.425  0.00  0.00    +0.000 C 
ATOM      7  C   UNL     1       4.566   3.670  16.152  0.00  0.00    +0.000 C 
ATOM      8  C   UNL     1       5.469   4.963  16.232  0.00  0.00    +0.000 C 
ATOM      9  C   UNL     1       4.849   6.334  16.826  0.00  0.00    +0.000 C 
ATOM     10  N   UNL     1       4.276   6.576  18.224  0.00  0.00    +0.000 NA
ATOM     11  C   UNL     1       5.069   5.868  19.307  0.00  0.00    +0.000 C 
ATOM     12  H   UNL     1       7.560   3.974  18.704  0.00  0.00    +0.000 HD
ENDROOT
BRANCH  10  13
ATOM     13  C   UNL     1       2.812   6.285  18.281  0.00  0.00    +0.000 C 
BRANCH  13  14
ATOM     14  C   UNL     1       2.182   6.464  19.679  0.00  0.00    +0.000 C 
ATOM     15  O   UNL     1       2.100   5.455  20.404  0.00  0.00    +0.000 OA
ATOM     16  N   UNL     1       1.667   7.656  20.131  0.00  0.00    +0.000 N 
ATOM     17  C   UNL     1       0.997   7.685  21.448  0.00  0.00    +0.000 C 
ATOM     18  C   UNL     1       0.309   9.039  21.610  0.00  0.00    +0.000 C 
ATOM     19  C   UNL     1       0.698   9.729  20.349  0.00  0.00    +0.000 A 
ATOM     20  C   UNL     1       0.301  11.001  19.956  0.00  0.00    +0.000 A 
ATOM     21  C   UNL     1       0.772  11.497  18.746  0.00  0.00    +0.000 A 
ATOM     22  C   UNL     1       1.660  10.737  17.975  0.00  0.00    +0.000 A 
ATOM     23  C   UNL     1       2.055   9.455  18.382  0.00  0.00    +0.000 A 
ATOM     24  C   UNL     1       1.537   8.930  19.551  0.00  0.00    +0.000 A 
ENDBRANCH  13  14
ENDBRANCH  10  13
TORSDOF 2
ENDMDL
MODEL 5
REMARK VINA RESULT:      -7.3      1.127      2.189
REMARK  Name = 
REMARK  2 active torsions:
REMARK  status: ('A' for Active; 'I' for Inactive)
REMARK    1  A    between atoms: N_10  and  C_11
REMARK    2  A    between atoms: C_11  and  C_12
REMARK                            x       y       z     vdW  Elec       q    Type
REMARK                         _______ _______ _______ _____ _____    ______ ____
ROOT
ATOM      1  O   UNL     1       3.167   1.025  18.722  0.00  0.00    +0.000 OA
ATOM      2  C   UNL     1       3.161   2.248  18.625  0.00  0.00    +0.000 C 
ATOM      3  N   UNL     1       2.795   2.867  17.456  0.00  0.00    +0.000 N 
ATOM      4  C   UNL     1       2.947   4.301  17.316  0.00  0.00    +0.000 C 
ATOM      5  C   UNL     1       4.348   4.720  16.866  0.00  0.00    +0.000 C 
ATOM      6  C   UNL     1       5.395   4.613  18.058  0.00  0.00    +0.000 C 
ATOM      7  C   UNL     1       5.120   3.670  19.299  0.00  0.00    +0.000 C 
ATOM      8  C   UNL     1       3.677   3.192  19.726  0.00  0.00    +0.000 C 
ATOM      9  C   UNL     1       2.582   4.285  20.202  0.00  0.00    +0.000 C 
ATOM     10  N   UNL     1       2.021   5.461  19.399  0.00  0.00    +0.000 NA
ATOM     11  C   UNL     1       1.785   5.109  17.943  0.00  0.00    +0.000 C 
ATOM     12  H   UNL     1       2.519   2.277  16.679  0.00  0.00    +0.000 HD
ENDROOT
BRANCH  10  13
ATOM     13  C   UNL     1       2.839   6.697  19.581  0.00  0.00    +0.000 C 
BRANCH  13  14
ATOM     14  C   UNL     1       2.438   7.867  18.657  0.00  0.00    +0.000 C 
ATOM     15  O   UNL     1       2.981   7.925  17.538  0.00  0.00    +0.000 OA
ATOM     16  N   UNL     1       1.563   8.861  19.029  0.00  0.00    +0.000 N 
ATOM     17  C   UNL     1       1.331   9.986  18.098  0.00  0.00    +0.000 C 
ATOM     18  C   UNL     1       0.526  11.058  18.829  0.00  0.00    +0.000 C 
ATOM     19  C   UNL     1       0.303  10.418  20.155  0.00  0.00    +0.000 A 
ATOM     20  C   UNL     1      -0.354  10.989  21.239  0.00  0.00    +0.000 A 
ATOM     21  C   UNL     1      -0.483  10.240  22.403  0.00  0.00    +0.000 A 
ATOM     22  C   UNL     1       0.003   8.927  22.450  0.00  0.00    +0.000 A 
ATOM     23  C   UNL     1       0.663   8.361  21.349  0.00  0.00    +0.000 A 
ATOM     24  C   UNL     1       0.854   9.125  20.213  0.00  0.00    +0.000 A 
ENDBRANCH  13  14
ENDBRANCH  10  13
TORSDOF 2
ENDMDL
MODEL 6
REMARK VINA RESULT:      -7.0      1.202      1.438
REMARK  Name = 
REMARK  2 active torsions:
REMARK  status: ('A' for Active; 'I' for Inactive)
REMARK    1  A    between atoms: N_10  and  C_11
REMARK    2  A    between atoms: C_11  and  C_12
REMARK                            x       y       z     vdW  Elec       q    Type
REMARK                         _______ _______ _______ _____ _____    ______ ____
ROOT
ATOM      1  O   UNL     1       0.669   1.341  18.348  0.00  0.00    +0.000 OA
ATOM      2  C   UNL     1       1.420   2.281  18.590  0.00  0.00    +0.000 C 
ATOM      3  N   UNL     1       2.747   2.076  18.875  0.00  0.00    +0.000 N 
ATOM      4  C   UNL     1       3.575   3.182  19.311  0.00  0.00    +0.000 C 
ATOM      5  C   UNL     1       3.496   3.439  20.817  0.00  0.00    +0.000 C 
ATOM      6  C   UNL     1       2.134   4.158  21.212  0.00  0.00    +0.000 C 
ATOM      7  C   UNL     1       0.863   4.061  20.274  0.00  0.00    +0.000 C 
ATOM      8  C   UNL     1       0.943   3.738  18.731  0.00  0.00    +0.000 C 
ATOM      9  C   UNL     1       1.706   4.764  17.739  0.00  0.00    +0.000 C 
ATOM     10  N   UNL     1       3.174   5.197  17.786  0.00  0.00    +0.000 NA
ATOM     11  C   UNL     1       4.104   4.054  18.146  0.00  0.00    +0.000 C 
ATOM     12  H   UNL     1       3.086   1.121  18.867  0.00  0.00    +0.000 HD
ENDROOT
BRANCH  10  13
ATOM     13  C   UNL     1       3.368   6.406  18.640  0.00  0.00    +0.000 C 
BRANCH  13  14
ATOM     14  C   UNL     1       2.971   7.734  17.961  0.00  0.00    +0.000 C 
ATOM     15  O   UNL     1       3.490   7.992  16.859  0.00  0.00    +0.000 OA
ATOM     16  N   UNL     1       2.126   8.656  18.535  0.00  0.00    +0.000 N 
ATOM     17  C   UNL     1       1.897   9.939  17.836  0.00  0.00    +0.000 C 
ATOM     18  C   UNL     1       1.132  10.869  18.776  0.00  0.00    +0.000 C 
ATOM     19  C   UNL     1       0.925   9.996  19.965  0.00  0.00    +0.000 A 
ATOM     20  C   UNL     1       0.306  10.364  21.152  0.00  0.00    +0.000 A 
ATOM     21  C   UNL     1       0.187   9.413  22.159  0.00  0.00    +0.000 A 
ATOM     22  C   UNL     1       0.646   8.107  21.948  0.00  0.00    +0.000 A 
ATOM     23  C   UNL     1       1.268   7.746  20.744  0.00  0.00    +0.000 A 
ATOM     24  C   UNL     1       1.450   8.706  19.766  0.00  0.00    +0.000 A 
ENDBRANCH  13  14
ENDBRANCH  10  13
TORSDOF 2
ENDMDL
MODEL 7
REMARK VINA RESULT:      -6.9      1.923      2.653
REMARK  Name = 
REMARK  2 active torsions:
REMARK  status: ('A' for Active; 'I' for Inactive)
REMARK    1  A    between atoms: N_10  and  C_11
REMARK    2  A    between atoms: C_11  and  C_12
REMARK                            x       y       z     vdW  Elec       q    Type
REMARK                         _______ _______ _______ _____ _____    ______ ____
ROOT
ATOM      1  O   UNL     1       7.990   4.562  17.581  0.00  0.00    +0.000 OA
ATOM      2  C   UNL     1       6.796   4.696  17.829  0.00  0.00    +0.000 C 
ATOM      3  N   UNL     1       6.132   3.806  18.635  0.00  0.00    +0.000 N 
ATOM      4  C   UNL     1       4.694   3.894  18.784  0.00  0.00    +0.000 C 
ATOM      5  C   UNL     1       3.925   3.163  17.682  0.00  0.00    +0.000 C 
ATOM      6  C   UNL     1       3.946   3.983  16.320  0.00  0.00    +0.000 C 
ATOM      7  C   UNL     1       5.073   5.058  16.036  0.00  0.00    +0.000 C 
ATOM      8  C   UNL     1       5.905   5.768  17.174  0.00  0.00    +0.000 C 
ATOM      9  C   UNL     1       5.147   6.717  18.243  0.00  0.00    +0.000 C 
ATOM     10  N   UNL     1       4.032   6.327  19.218  0.00  0.00    +0.000 NA
ATOM     11  C   UNL     1       4.245   4.952  19.822  0.00  0.00    +0.000 C 
ATOM     12  H   UNL     1       6.667   3.040  19.028  0.00  0.00    +0.000 HD
ENDROOT
BRANCH  10  13
ATOM     13  C   UNL     1       2.679   6.501  18.611  0.00  0.00    +0.000 C 
BRANCH  13  14
ATOM     14  C   UNL     1       2.439   7.890  17.981  0.00  0.00    +0.000 C 
ATOM     15  O   UNL     1       2.919   8.098  16.851  0.00  0.00    +0.000 OA
ATOM     16  N   UNL     1       1.776   8.909  18.624  0.00  0.00    +0.000 N 
ATOM     17  C   UNL     1       1.693  10.229  17.963  0.00  0.00    +0.000 C 
ATOM     18  C   UNL     1       1.133  11.236  18.966  0.00  0.00    +0.000 C 
ATOM     19  C   UNL     1       0.877  10.372  20.152  0.00  0.00    +0.000 A 
ATOM     20  C   UNL     1       0.394  10.796  21.384  0.00  0.00    +0.000 A 
ATOM     21  C   UNL     1       0.201   9.847  22.381  0.00  0.00    +0.000 A 
ATOM     22  C   UNL     1       0.450   8.494  22.119  0.00  0.00    +0.000 A 
ATOM     23  C   UNL     1       0.936   8.077  20.871  0.00  0.00    +0.000 A 
ATOM     24  C   UNL     1       1.193   9.025  19.898  0.00  0.00    +0.000 A 
ENDBRANCH  13  14
ENDBRANCH  10  13
TORSDOF 2
ENDMDL
MODEL 8
REMARK VINA RESULT:      -6.6      5.506      9.238
REMARK  Name = 
REMARK  2 active torsions:
REMARK  status: ('A' for Active; 'I' for Inactive)
REMARK    1  A    between atoms: N_10  and  C_11
REMARK    2  A    between atoms: C_11  and  C_12
REMARK                            x       y       z     vdW  Elec       q    Type
REMARK                         _______ _______ _______ _____ _____    ______ ____
ROOT
ATOM      1  O   UNL     1      -4.582  12.697  25.224  0.00  0.00    +0.000 OA
ATOM      2  C   UNL     1      -3.789  13.110  24.383  0.00  0.00    +0.000 C 
ATOM      3  N   UNL     1      -3.350  14.410  24.398  0.00  0.00    +0.000 N 
ATOM      4  C   UNL     1      -2.542  14.915  23.307  0.00  0.00    +0.000 C 
ATOM      5  C   UNL     1      -3.369  15.416  22.122  0.00  0.00    +0.000 C 
ATOM      6  C   UNL     1      -3.957  14.206  21.273  0.00  0.00    +0.000 C 
ATOM      7  C   UNL     1      -4.131  12.771  21.917  0.00  0.00    +0.000 C 
ATOM      8  C   UNL     1      -3.317  12.278  23.177  0.00  0.00    +0.000 C 
ATOM      9  C   UNL     1      -1.708  12.136  23.082  0.00  0.00    +0.000 C 
ATOM     10  N   UNL     1      -0.686  13.235  22.777  0.00  0.00    +0.000 NA
ATOM     11  C   UNL     1      -1.041  14.555  23.434  0.00  0.00    +0.000 C 
ATOM     12  H   UNL     1      -3.697  15.014  25.134  0.00  0.00    +0.000 HD
ENDROOT
BRANCH  10  13
ATOM     13  C   UNL     1      -0.425  13.357  21.312  0.00  0.00    +0.000 C 
BRANCH  13  14
ATOM     14  C   UNL     1       0.518  12.276  20.742  0.00  0.00    +0.000 C 
ATOM     15  O   UNL     1       1.697  12.274  21.144  0.00  0.00    +0.000 OA
ATOM     16  N   UNL     1       0.136  11.365  19.785  0.00  0.00    +0.000 N 
ATOM     17  C   UNL     1       1.153  10.441  19.240  0.00  0.00    +0.000 C 
ATOM     18  C   UNL     1       0.549   9.710  18.042  0.00  0.00    +0.000 C 
ATOM     19  C   UNL     1      -0.839  10.252  18.026  0.00  0.00    +0.000 A 
ATOM     20  C   UNL     1      -1.825   9.947  17.097  0.00  0.00    +0.000 A 
ATOM     21  C   UNL     1      -3.075  10.538  17.241  0.00  0.00    +0.000 A 
ATOM     22  C   UNL     1      -3.331  11.382  18.329  0.00  0.00    +0.000 A 
ATOM     23  C   UNL     1      -2.328  11.682  19.262  0.00  0.00    +0.000 A 
ATOM     24  C   UNL     1      -1.064  11.151  19.085  0.00  0.00    +0.000 A 
ENDBRANCH  13  14
ENDBRANCH  10  13
TORSDOF 2
ENDMDL
MODEL 9
REMARK VINA RESULT:      -6.5      2.050      7.079
REMARK  Name = 
REMARK  2 active torsions:
REMARK  status: ('A' for Active; 'I' for Inactive)
REMARK    1  A    between atoms: N_10  and  C_11
REMARK    2  A    between atoms: C_11  and  C_12
REMARK                            x       y       z     vdW  Elec       q    Type
REMARK                         _______ _______ _______ _____ _____    ______ ____
ROOT
ATOM      1  O   UNL     1      -0.206  13.682  18.764  0.00  0.00    +0.000 OA
ATOM      2  C   UNL     1       0.050  12.485  18.851  0.00  0.00    +0.000 C 
ATOM      3  N   UNL     1      -0.940  11.538  18.775  0.00  0.00    +0.000 N 
ATOM      4  C   UNL     1      -0.635  10.147  19.038  0.00  0.00    +0.000 C 
ATOM      5  C   UNL     1      -0.680   9.788  20.524  0.00  0.00    +0.000 C 
ATOM      6  C   UNL     1       0.603  10.330  21.291  0.00  0.00    +0.000 C 
ATOM      7  C   UNL     1       1.451  11.532  20.706  0.00  0.00    +0.000 C 
ATOM      8  C   UNL     1       1.450  11.936  19.180  0.00  0.00    +0.000 C 
ATOM      9  C   UNL     1       2.008  10.892  18.077  0.00  0.00    +0.000 C 
ATOM     10  N   UNL     1       1.486   9.487  17.767  0.00  0.00    +0.000 NA
ATOM     11  C   UNL     1      -0.029   9.407  17.820  0.00  0.00    +0.000 C 
ATOM     12  H   UNL     1      -1.889  11.863  18.633  0.00  0.00    +0.000 HD
ENDROOT
BRANCH  10  13
ATOM     13  C   UNL     1       2.160   8.448  18.601  0.00  0.00    +0.000 C 
BRANCH  13  14
ATOM     14  C   UNL     1       3.125   7.532  17.818  0.00  0.00    +0.000 C 
ATOM     15  O   UNL     1       3.803   8.054  16.913  0.00  0.00    +0.000 OA
ATOM     16  N   UNL     1       3.228   6.178  18.036  0.00  0.00    +0.000 N 
ATOM     17  C   UNL     1       4.114   5.385  17.157  0.00  0.00    +0.000 C 
ATOM     18  C   UNL     1       3.871   3.903  17.439  0.00  0.00    +0.000 C 
ATOM     19  C   UNL     1       2.867   3.964  18.538  0.00  0.00    +0.000 A 
ATOM     20  C   UNL     1       2.261   2.876  19.153  0.00  0.00    +0.000 A 
ATOM     21  C   UNL     1       1.351   3.118  20.176  0.00  0.00    +0.000 A 
ATOM     22  C   UNL     1       1.098   4.430  20.594  0.00  0.00    +0.000 A 
ATOM     23  C   UNL     1       1.717   5.521  19.967  0.00  0.00    +0.000 A 
ATOM     24  C   UNL     1       2.571   5.290  18.904  0.00  0.00    +0.000 A 
ENDBRANCH  13  14
ENDBRANCH  10  13
TORSDOF 2
ENDMDL
