MODEL 1
REMARK VINA RESULT:      -8.2      0.000      0.000
REMARK  Name = 
REMARK  9 active torsions:
REMARK  status: ('A' for Active; 'I' for Inactive)
REMARK    1  A    between atoms: C_1  and  C_2
REMARK    2  A    between atoms: C_2  and  C_3
REMARK    3  A    between atoms: C_3  and  C_4
REMARK    4  A    between atoms: C_4  and  N_5
REMARK    5  A    between atoms: N_5  and  C_6
REMARK    6  A    between atoms: C_6  and  C_7
REMARK    7  A    between atoms: C_7  and  O_8
REMARK    8  A    between atoms: C_7  and  C_9
REMARK    9  A    between atoms: C_11  and  C_12
REMARK                            x       y       z     vdW  Elec       q    Type
REMARK                         _______ _______ _______ _____ _____    ______ ____
ROOT
ATOM      1  C   UNL     1       3.996   4.500  18.329  0.00  0.00    +0.000 A 
ATOM      2  C   UNL     1       3.214   5.557  18.814  0.00  0.00    +0.000 A 
ATOM      3  C   UNL     1       3.194   6.792  18.178  0.00  0.00    +0.000 A 
ATOM      4  N   UNL     1       3.892   7.007  17.045  0.00  0.00    +0.000 NA
ATOM      5  C   UNL     1       4.651   6.013  16.549  0.00  0.00    +0.000 A 
ATOM      6  C   UNL     1       5.365   6.257  15.383  0.00  0.00    +0.000 A 
ATOM      7  C   UNL     1       6.181   5.287  14.791  0.00  0.00    +0.000 A 
ATOM      8  C   UNL     1       6.292   4.038  15.379  0.00  0.00    +0.000 A 
ATOM      9  C   UNL     1       5.585   3.762  16.549  0.00  0.00    +0.000 A 
ATOM     10  C   UNL     1       4.750   4.733  17.153  0.00  0.00    +0.000 A 
ENDROOT
BRANCH   3  11
ATOM     11  C   UNL     1       2.360   7.895  18.700  0.00  0.00    +0.000 A 
ATOM     12  C   UNL     1       1.914   7.908  20.040  0.00  0.00    +0.000 A 
ATOM     13  C   UNL     1       1.022   8.877  20.506  0.00  0.00    +0.000 A 
ATOM     14  C   UNL     1       0.577   9.875  19.647  0.00  0.00    +0.000 A 
ATOM     15  C   UNL     1       1.039   9.915  18.332  0.00  0.00    +0.000 A 
ATOM     16  C   UNL     1       1.925   8.937  17.867  0.00  0.00    +0.000 A 
ENDBRANCH   3  11
BRANCH   1  17
ATOM     17  C   UNL     1       4.007   3.159  19.058  0.00  0.00    +0.000 C 
BRANCH  17  18
ATOM     18  O   UNL     1       5.362   2.756  19.303  0.00  0.00    +0.000 OA
ATOM     19  H   UNL     1       5.439   2.557  20.252  0.00  0.00    +0.000 HD
ENDBRANCH  17  18
BRANCH  17  20
ATOM     20  C   UNL     1       3.312   2.002  18.288  0.00  0.00    +0.000 C 
BRANCH  20  21
ATOM     21  N   UNL     1       2.119   1.476  18.963  0.00  0.00    +0.000 NA
ATOM     22  H   UNL     1       1.959   0.520  18.632  0.00  0.00    +0.000 HD
BRANCH  21  23
ATOM     23  C   UNL     1       0.968   2.328  18.668  0.00  0.00    +0.000 C 
BRANCH  23  24
ATOM     24  C   UNL     1       0.679   3.245  19.853  0.00  0.00    +0.000 C 
BRANCH  24  26
ATOM     25  C   UNL     1       2.174   3.569  21.846  0.00  0.00    +0.000 C 
ATOM     26  C   UNL     1       1.203   2.632  21.150  0.00  0.00    +0.000 C 
ENDBRANCH  24  26
ENDBRANCH  23  24
ENDBRANCH  21  23
ENDBRANCH  20  21
ENDBRANCH  17  20
ENDBRANCH   1  17
TORSDOF 8
ENDMDL
MODEL 2
REMARK VINA RESULT:      -8.2      1.284      5.187
REMARK  Name = 
REMARK  9 active torsions:
REMARK  status: ('A' for Active; 'I' for Inactive)
REMARK    1  A    between atoms: C_1  and  C_2
REMARK    2  A    between atoms: C_2  and  C_3
REMARK    3  A    between atoms: C_3  and  C_4
REMARK    4  A    between atoms: C_4  and  N_5
REMARK    5  A    between atoms: N_5  and  C_6
REMARK    6  A    between atoms: C_6  and  C_7
REMARK    7  A    between atoms: C_7  and  O_8
REMARK    8  A    between atoms: C_7  and  C_9
REMARK    9  A    between atoms: C_11  and  C_12
REMARK                            x       y       z     vdW  Elec       q    Type
REMARK                         _______ _______ _______ _____ _____    ______ ____
ROOT
ATOM      1  C   UNL     1       4.242   4.159  17.921  0.00  0.00    +0.000 A 
ATOM      2  C   UNL     1       4.947   3.949  16.728  0.00  0.00    +0.000 A 
ATOM      3  C   UNL     1       5.110   4.967  15.797  0.00  0.00    +0.000 A 
ATOM      4  N   UNL     1       4.632   6.208  16.026  0.00  0.00    +0.000 NA
ATOM      5  C   UNL     1       3.953   6.445  17.163  0.00  0.00    +0.000 A 
ATOM      6  C   UNL     1       3.467   7.728  17.377  0.00  0.00    +0.000 A 
ATOM      7  C   UNL     1       2.750   8.072  18.527  0.00  0.00    +0.000 A 
ATOM      8  C   UNL     1       2.506   7.110  19.493  0.00  0.00    +0.000 A 
ATOM      9  C   UNL     1       2.985   5.812  19.307  0.00  0.00    +0.000 A 
ATOM     10  C   UNL     1       3.718   5.454  18.151  0.00  0.00    +0.000 A 
ENDROOT
BRANCH   3  11
ATOM     11  C   UNL     1       5.860   4.732  14.546  0.00  0.00    +0.000 A 
ATOM     12  C   UNL     1       5.384   3.838  13.561  0.00  0.00    +0.000 A 
ATOM     13  C   UNL     1       6.147   3.512  12.437  0.00  0.00    +0.000 A 
ATOM     14  C   UNL     1       7.396   4.096  12.258  0.00  0.00    +0.000 A 
ATOM     15  C   UNL     1       7.869   5.018  13.190  0.00  0.00    +0.000 A 
ATOM     16  C   UNL     1       7.106   5.335  14.319  0.00  0.00    +0.000 A 
ENDBRANCH   3  11
BRANCH   1  17
ATOM     17  C   UNL     1       4.069   3.016  18.918  0.00  0.00    +0.000 C 
BRANCH  17  18
ATOM     18  O   UNL     1       5.351   2.619  19.424  0.00  0.00    +0.000 OA
ATOM     19  H   UNL     1       5.251   2.464  20.379  0.00  0.00    +0.000 HD
ENDBRANCH  17  18
BRANCH  17  20
ATOM     20  C   UNL     1       3.389   1.747  18.331  0.00  0.00    +0.000 C 
BRANCH  20  21
ATOM     21  N   UNL     1       2.078   1.451  18.921  0.00  0.00    +0.000 NA
ATOM     22  H   UNL     1       1.746   0.563  18.536  0.00  0.00    +0.000 HD
BRANCH  21  23
ATOM     23  C   UNL     1       1.143   2.533  18.615  0.00  0.00    +0.000 C 
BRANCH  23  24
ATOM     24  C   UNL     1       0.658   3.185  19.906  0.00  0.00    +0.000 C 
BRANCH  24  26
ATOM     25  C   UNL     1       2.209   3.504  21.857  0.00  0.00    +0.000 C 
ATOM     26  C   UNL     1       1.309   2.527  21.122  0.00  0.00    +0.000 C 
ENDBRANCH  24  26
ENDBRANCH  23  24
ENDBRANCH  21  23
ENDBRANCH  20  21
ENDBRANCH  17  20
ENDBRANCH   1  17
TORSDOF 8
ENDMDL
MODEL 3
REMARK VINA RESULT:      -8.2      1.343      1.632
REMARK  Name = 
REMARK  9 active torsions:
REMARK  status: ('A' for Active; 'I' for Inactive)
REMARK    1  A    between atoms: C_1  and  C_2
REMARK    2  A    between atoms: C_2  and  C_3
REMARK    3  A    between atoms: C_3  and  C_4
REMARK    4  A    between atoms: C_4  and  N_5
REMARK    5  A    between atoms: N_5  and  C_6
REMARK    6  A    between atoms: C_6  and  C_7
REMARK    7  A    between atoms: C_7  and  O_8
REMARK    8  A    between atoms: C_7  and  C_9
REMARK    9  A    between atoms: C_11  and  C_12
REMARK                            x       y       z     vdW  Elec       q    Type
REMARK                         _______ _______ _______ _____ _____    ______ ____
ROOT
ATOM      1  C   UNL     1       3.419   4.088  17.376  0.00  0.00    +0.000 A 
ATOM      2  C   UNL     1       2.729   5.123  18.022  0.00  0.00    +0.000 A 
ATOM      3  C   UNL     1       3.182   6.435  17.972  0.00  0.00    +0.000 A 
ATOM      4  N   UNL     1       4.280   6.769  17.263  0.00  0.00    +0.000 NA
ATOM      5  C   UNL     1       4.965   5.801  16.628  0.00  0.00    +0.000 A 
ATOM      6  C   UNL     1       6.095   6.168  15.908  0.00  0.00    +0.000 A 
ATOM      7  C   UNL     1       6.872   5.235  15.215  0.00  0.00    +0.000 A 
ATOM      8  C   UNL     1       6.517   3.896  15.241  0.00  0.00    +0.000 A 
ATOM      9  C   UNL     1       5.386   3.498  15.954  0.00  0.00    +0.000 A 
ATOM     10  C   UNL     1       4.587   4.434  16.653  0.00  0.00    +0.000 A 
ENDROOT
BRANCH   3  11
ATOM     11  C   UNL     1       2.440   7.515  18.655  0.00  0.00    +0.000 A 
ATOM     12  C   UNL     1       2.109   7.427  20.025  0.00  0.00    +0.000 A 
ATOM     13  C   UNL     1       1.298   8.381  20.646  0.00  0.00    +0.000 A 
ATOM     14  C   UNL     1       0.823   9.463  19.915  0.00  0.00    +0.000 A 
ATOM     15  C   UNL     1       1.174   9.601  18.573  0.00  0.00    +0.000 A 
ATOM     16  C   UNL     1       1.978   8.639  17.952  0.00  0.00    +0.000 A 
ENDBRANCH   3  11
BRANCH   1  17
ATOM     17  C   UNL     1       2.904   2.654  17.461  0.00  0.00    +0.000 C 
BRANCH  17  18
ATOM     18  O   UNL     1       1.478   2.663  17.620  0.00  0.00    +0.000 OA
ATOM     19  H   UNL     1       1.207   3.588  17.753  0.00  0.00    +0.000 HD
ENDBRANCH  17  18
BRANCH  17  20
ATOM     20  C   UNL     1       3.495   1.826  18.637  0.00  0.00    +0.000 C 
BRANCH  20  21
ATOM     21  N   UNL     1       4.675   2.440  19.257  0.00  0.00    +0.000 NA
ATOM     22  H   UNL     1       5.423   1.742  19.284  0.00  0.00    +0.000 HD
BRANCH  21  23
ATOM     23  C   UNL     1       4.343   2.898  20.606  0.00  0.00    +0.000 C 
BRANCH  23  24
ATOM     24  C   UNL     1       2.950   2.414  20.994  0.00  0.00    +0.000 C 
BRANCH  24  26
ATOM     25  C   UNL     1       0.995   3.963  20.689  0.00  0.00    +0.000 C 
ATOM     26  C   UNL     1       2.134   3.551  21.605  0.00  0.00    +0.000 C 
ENDBRANCH  24  26
ENDBRANCH  23  24
ENDBRANCH  21  23
ENDBRANCH  20  21
ENDBRANCH  17  20
ENDBRANCH   1  17
TORSDOF 8
ENDMDL
MODEL 4
REMARK VINA RESULT:      -8.1      1.371      5.237
REMARK  Name = 
REMARK  9 active torsions:
REMARK  status: ('A' for Active; 'I' for Inactive)
REMARK    1  A    between atoms: C_1  and  C_2
REMARK    2  A    between atoms: C_2  and  C_3
REMARK    3  A    between atoms: C_3  and  C_4
REMARK    4  A    between atoms: C_4  and  N_5
REMARK    5  A    between atoms: N_5  and  C_6
REMARK    6  A    between atoms: C_6  and  C_7
REMARK    7  A    between atoms: C_7  and  O_8
REMARK    8  A    between atoms: C_7  and  C_9
REMARK    9  A    between atoms: C_11  and  C_12
REMARK                            x       y       z     vdW  Elec       q    Type
REMARK                         _______ _______ _______ _____ _____    ______ ____
ROOT
ATOM      1  C   UNL     1       4.334   4.143  17.840  0.00  0.00    +0.000 A 
ATOM      2  C   UNL     1       5.073   3.901  16.673  0.00  0.00    +0.000 A 
ATOM      3  C   UNL     1       5.272   4.897  15.725  0.00  0.00    +0.000 A 
ATOM      4  N   UNL     1       4.799   6.146  15.912  0.00  0.00    +0.000 NA
ATOM      5  C   UNL     1       4.088   6.413  17.022  0.00  0.00    +0.000 A 
ATOM      6  C   UNL     1       3.607   7.705  17.193  0.00  0.00    +0.000 A 
ATOM      7  C   UNL     1       2.858   8.081  18.313  0.00  0.00    +0.000 A 
ATOM      8  C   UNL     1       2.577   7.142  19.292  0.00  0.00    +0.000 A 
ATOM      9  C   UNL     1       3.050   5.837  19.150  0.00  0.00    +0.000 A 
ATOM     10  C   UNL     1       3.815   5.447  18.025  0.00  0.00    +0.000 A 
ENDROOT
BRANCH   3  11
ATOM     11  C   UNL     1       6.057   4.627  14.502  0.00  0.00    +0.000 A 
ATOM     12  C   UNL     1       7.245   5.337  14.220  0.00  0.00    +0.000 A 
ATOM     13  C   UNL     1       7.922   5.180  13.008  0.00  0.00    +0.000 A 
ATOM     14  C   UNL     1       7.440   4.285  12.059  0.00  0.00    +0.000 A 
ATOM     15  C   UNL     1       6.297   3.536  12.332  0.00  0.00    +0.000 A 
ATOM     16  C   UNL     1       5.616   3.703  13.543  0.00  0.00    +0.000 A 
ENDBRANCH   3  11
BRANCH   1  17
ATOM     17  C   UNL     1       4.121   3.024  18.856  0.00  0.00    +0.000 C 
BRANCH  17  18
ATOM     18  O   UNL     1       5.382   2.644  19.426  0.00  0.00    +0.000 OA
ATOM     19  H   UNL     1       5.552   3.239  20.176  0.00  0.00    +0.000 HD
ENDBRANCH  17  18
BRANCH  17  20
ATOM     20  C   UNL     1       3.471   1.739  18.271  0.00  0.00    +0.000 C 
BRANCH  20  21
ATOM     21  N   UNL     1       2.093   1.933  17.805  0.00  0.00    +0.000 NA
ATOM     22  H   UNL     1       2.021   2.869  17.399  0.00  0.00    +0.000 HD
BRANCH  21  23
ATOM     23  C   UNL     1       1.166   1.779  18.926  0.00  0.00    +0.000 C 
BRANCH  23  24
ATOM     24  C   UNL     1       0.899   3.135  19.573  0.00  0.00    +0.000 C 
BRANCH  24  26
ATOM     25  C   UNL     1       2.351   2.919  21.612  0.00  0.00    +0.000 C 
ATOM     26  C   UNL     1       0.926   3.021  21.096  0.00  0.00    +0.000 C 
ENDBRANCH  24  26
ENDBRANCH  23  24
ENDBRANCH  21  23
ENDBRANCH  20  21
ENDBRANCH  17  20
ENDBRANCH   1  17
TORSDOF 8
ENDMDL
MODEL 5
REMARK VINA RESULT:      -8.1      3.736      6.518
REMARK  Name = 
REMARK  9 active torsions:
REMARK  status: ('A' for Active; 'I' for Inactive)
REMARK    1  A    between atoms: C_1  and  C_2
REMARK    2  A    between atoms: C_2  and  C_3
REMARK    3  A    between atoms: C_3  and  C_4
REMARK    4  A    between atoms: C_4  and  N_5
REMARK    5  A    between atoms: N_5  and  C_6
REMARK    6  A    between atoms: C_6  and  C_7
REMARK    7  A    between atoms: C_7  and  O_8
REMARK    8  A    between atoms: C_7  and  C_9
REMARK    9  A    between atoms: C_11  and  C_12
REMARK                            x       y       z     vdW  Elec       q    Type
REMARK                         _______ _______ _______ _____ _____    ______ ____
ROOT
ATOM      1  C   UNL     1       6.488   5.076  17.977  0.00  0.00    +0.000 A 
ATOM      2  C   UNL     1       5.458   4.680  18.842  0.00  0.00    +0.000 A 
ATOM      3  C   UNL     1       4.333   4.016  18.368  0.00  0.00    +0.000 A 
ATOM      4  N   UNL     1       4.211   3.689  17.065  0.00  0.00    +0.000 NA
ATOM      5  C   UNL     1       5.182   4.052  16.208  0.00  0.00    +0.000 A 
ATOM      6  C   UNL     1       5.033   3.708  14.871  0.00  0.00    +0.000 A 
ATOM      7  C   UNL     1       5.988   4.040  13.905  0.00  0.00    +0.000 A 
ATOM      8  C   UNL     1       7.125   4.737  14.280  0.00  0.00    +0.000 A 
ATOM      9  C   UNL     1       7.304   5.093  15.617  0.00  0.00    +0.000 A 
ATOM     10  C   UNL     1       6.348   4.756  16.605  0.00  0.00    +0.000 A 
ENDROOT
BRANCH   3  11
ATOM     11  C   UNL     1       3.258   3.601  19.293  0.00  0.00    +0.000 A 
ATOM     12  C   UNL     1       1.934   4.065  19.135  0.00  0.00    +0.000 A 
ATOM     13  C   UNL     1       0.941   3.783  20.078  0.00  0.00    +0.000 A 
ATOM     14  C   UNL     1       1.246   3.002  21.187  0.00  0.00    +0.000 A 
ATOM     15  C   UNL     1       2.533   2.491  21.342  0.00  0.00    +0.000 A 
ATOM     16  C   UNL     1       3.526   2.784  20.402  0.00  0.00    +0.000 A 
ENDBRANCH   3  11
BRANCH   1  17
ATOM     17  C   UNL     1       7.705   5.817  18.526  0.00  0.00    +0.000 C 
BRANCH  17  18
ATOM     18  O   UNL     1       7.703   5.752  19.959  0.00  0.00    +0.000 OA
ATOM     19  H   UNL     1       6.815   6.012  20.260  0.00  0.00    +0.000 HD
ENDBRANCH  17  18
BRANCH  17  20
ATOM     20  C   UNL     1       7.777   7.318  18.130  0.00  0.00    +0.000 C 
BRANCH  20  21
ATOM     21  N   UNL     1       8.686   8.108  18.969  0.00  0.00    +0.000 NA
ATOM     22  H   UNL     1       8.372   8.031  19.941  0.00  0.00    +0.000 HD
BRANCH  21  23
ATOM     23  C   UNL     1       8.678   9.503  18.530  0.00  0.00    +0.000 C 
BRANCH  23  24
ATOM     24  C   UNL     1       9.516  10.355  19.478  0.00  0.00    +0.000 C 
BRANCH  24  26
ATOM     25  C   UNL     1      11.063  12.331  19.601  0.00  0.00    +0.000 C 
ATOM     26  C   UNL     1      10.447  11.279  18.696  0.00  0.00    +0.000 C 
ENDBRANCH  24  26
ENDBRANCH  23  24
ENDBRANCH  21  23
ENDBRANCH  20  21
ENDBRANCH  17  20
ENDBRANCH   1  17
TORSDOF 8
ENDMDL
MODEL 6
REMARK VINA RESULT:      -8.1      1.923      5.059
REMARK  Name = 
REMARK  9 active torsions:
REMARK  status: ('A' for Active; 'I' for Inactive)
REMARK    1  A    between atoms: C_1  and  C_2
REMARK    2  A    between atoms: C_2  and  C_3
REMARK    3  A    between atoms: C_3  and  C_4
REMARK    4  A    between atoms: C_4  and  N_5
REMARK    5  A    between atoms: N_5  and  C_6
REMARK    6  A    between atoms: C_6  and  C_7
REMARK    7  A    between atoms: C_7  and  O_8
REMARK    8  A    between atoms: C_7  and  C_9
REMARK    9  A    between atoms: C_11  and  C_12
REMARK                            x       y       z     vdW  Elec       q    Type
REMARK                         _______ _______ _______ _____ _____    ______ ____
ROOT
ATOM      1  C   UNL     1       4.163   4.848  17.503  0.00  0.00    +0.000 A 
ATOM      2  C   UNL     1       3.754   6.169  17.734  0.00  0.00    +0.000 A 
ATOM      3  C   UNL     1       2.616   6.453  18.478  0.00  0.00    +0.000 A 
ATOM      4  N   UNL     1       1.885   5.470  19.042  0.00  0.00    +0.000 NA
ATOM      5  C   UNL     1       2.250   4.191  18.843  0.00  0.00    +0.000 A 
ATOM      6  C   UNL     1       1.481   3.194  19.429  0.00  0.00    +0.000 A 
ATOM      7  C   UNL     1       1.780   1.836  19.280  0.00  0.00    +0.000 A 
ATOM      8  C   UNL     1       2.875   1.458  18.522  0.00  0.00    +0.000 A 
ATOM      9  C   UNL     1       3.669   2.436  17.922  0.00  0.00    +0.000 A 
ATOM     10  C   UNL     1       3.381   3.814  18.073  0.00  0.00    +0.000 A 
ENDROOT
BRANCH   3  11
ATOM     11  C   UNL     1       2.202   7.851  18.717  0.00  0.00    +0.000 A 
ATOM     12  C   UNL     1       1.572   8.236  19.922  0.00  0.00    +0.000 A 
ATOM     13  C   UNL     1       1.062   9.524  20.103  0.00  0.00    +0.000 A 
ATOM     14  C   UNL     1       1.197  10.468  19.092  0.00  0.00    +0.000 A 
ATOM     15  C   UNL     1       1.858  10.130  17.912  0.00  0.00    +0.000 A 
ATOM     16  C   UNL     1       2.358   8.837  17.730  0.00  0.00    +0.000 A 
ENDBRANCH   3  11
BRANCH   1  17
ATOM     17  C   UNL     1       5.410   4.568  16.669  0.00  0.00    +0.000 C 
BRANCH  17  18
ATOM     18  O   UNL     1       6.525   4.321  17.538  0.00  0.00    +0.000 OA
ATOM     19  H   UNL     1       6.673   5.130  18.058  0.00  0.00    +0.000 HD
ENDBRANCH  17  18
BRANCH  17  20
ATOM     20  C   UNL     1       5.817   5.722  15.711  0.00  0.00    +0.000 C 
BRANCH  20  21
ATOM     21  N   UNL     1       6.546   5.273  14.519  0.00  0.00    +0.000 NA
ATOM     22  H   UNL     1       6.635   6.066  13.879  0.00  0.00    +0.000 HD
BRANCH  21  23
ATOM     23  C   UNL     1       5.823   4.171  13.884  0.00  0.00    +0.000 C 
BRANCH  23  24
ATOM     24  C   UNL     1       6.551   3.729  12.618  0.00  0.00    +0.000 C 
BRANCH  24  26
ATOM     25  C   UNL     1       4.321   3.280  11.549  0.00  0.00    +0.000 C 
ATOM     26  C   UNL     1       5.707   2.727  11.832  0.00  0.00    +0.000 C 
ENDBRANCH  24  26
ENDBRANCH  23  24
ENDBRANCH  21  23
ENDBRANCH  20  21
ENDBRANCH  17  20
ENDBRANCH   1  17
TORSDOF 8
ENDMDL
MODEL 7
REMARK VINA RESULT:      -8.1      1.800      4.659
REMARK  Name = 
REMARK  9 active torsions:
REMARK  status: ('A' for Active; 'I' for Inactive)
REMARK    1  A    between atoms: C_1  and  C_2
REMARK    2  A    between atoms: C_2  and  C_3
REMARK    3  A    between atoms: C_3  and  C_4
REMARK    4  A    between atoms: C_4  and  N_5
REMARK    5  A    between atoms: N_5  and  C_6
REMARK    6  A    between atoms: C_6  and  C_7
REMARK    7  A    between atoms: C_7  and  O_8
REMARK    8  A    between atoms: C_7  and  C_9
REMARK    9  A    between atoms: C_11  and  C_12
REMARK                            x       y       z     vdW  Elec       q    Type
REMARK                         _______ _______ _______ _____ _____    ______ ____
ROOT
ATOM      1  C   UNL     1       4.677   5.027  18.650  0.00  0.00    +0.000 A 
ATOM      2  C   UNL     1       4.129   6.311  18.780  0.00  0.00    +0.000 A 
ATOM      3  C   UNL     1       2.754   6.510  18.801  0.00  0.00    +0.000 A 
ATOM      4  N   UNL     1       1.896   5.472  18.741  0.00  0.00    +0.000 NA
ATOM      5  C   UNL     1       2.388   4.226  18.619  0.00  0.00    +0.000 A 
ATOM      6  C   UNL     1       1.485   3.172  18.555  0.00  0.00    +0.000 A 
ATOM      7  C   UNL     1       1.900   1.842  18.428  0.00  0.00    +0.000 A 
ATOM      8  C   UNL     1       3.252   1.552  18.360  0.00  0.00    +0.000 A 
ATOM      9  C   UNL     1       4.183   2.590  18.425  0.00  0.00    +0.000 A 
ATOM     10  C   UNL     1       3.776   3.938  18.561  0.00  0.00    +0.000 A 
ENDROOT
BRANCH   3  11
ATOM     11  C   UNL     1       2.192   7.869  18.943  0.00  0.00    +0.000 A 
ATOM     12  C   UNL     1       1.555   8.280  20.135  0.00  0.00    +0.000 A 
ATOM     13  C   UNL     1       0.909   9.515  20.232  0.00  0.00    +0.000 A 
ATOM     14  C   UNL     1       0.910  10.382  19.145  0.00  0.00    +0.000 A 
ATOM     15  C   UNL     1       1.574  10.022  17.973  0.00  0.00    +0.000 A 
ATOM     16  C   UNL     1       2.211   8.781  17.876  0.00  0.00    +0.000 A 
ENDBRANCH   3  11
BRANCH   1  17
ATOM     17  C   UNL     1       6.192   4.842  18.616  0.00  0.00    +0.000 C 
BRANCH  17  18
ATOM     18  O   UNL     1       6.762   5.307  19.847  0.00  0.00    +0.000 OA
ATOM     19  H   UNL     1       6.077   5.228  20.533  0.00  0.00    +0.000 HD
ENDBRANCH  17  18
BRANCH  17  20
ATOM     20  C   UNL     1       6.907   5.597  17.460  0.00  0.00    +0.000 C 
BRANCH  20  21
ATOM     21  N   UNL     1       7.663   4.719  16.559  0.00  0.00    +0.000 NA
ATOM     22  H   UNL     1       8.649   4.990  16.601  0.00  0.00    +0.000 HD
BRANCH  21  23
ATOM     23  C   UNL     1       7.148   4.847  15.196  0.00  0.00    +0.000 C 
BRANCH  23  24
ATOM     24  C   UNL     1       6.073   3.794  14.943  0.00  0.00    +0.000 C 
BRANCH  24  26
ATOM     25  C   UNL     1       6.227   3.438  12.460  0.00  0.00    +0.000 C 
ATOM     26  C   UNL     1       5.400   4.024  13.591  0.00  0.00    +0.000 C 
ENDBRANCH  24  26
ENDBRANCH  23  24
ENDBRANCH  21  23
ENDBRANCH  20  21
ENDBRANCH  17  20
ENDBRANCH   1  17
TORSDOF 8
ENDMDL
MODEL 8
REMARK VINA RESULT:      -8.1      0.339      1.042
REMARK  Name = 
REMARK  9 active torsions:
REMARK  status: ('A' for Active; 'I' for Inactive)
REMARK    1  A    between atoms: C_1  and  C_2
REMARK    2  A    between atoms: C_2  and  C_3
REMARK    3  A    between atoms: C_3  and  C_4
REMARK    4  A    between atoms: C_4  and  N_5
REMARK    5  A    between atoms: N_5  and  C_6
REMARK    6  A    between atoms: C_6  and  C_7
REMARK    7  A    between atoms: C_7  and  O_8
REMARK    8  A    between atoms: C_7  and  C_9
REMARK    9  A    between atoms: C_11  and  C_12
REMARK                            x       y       z     vdW  Elec       q    Type
REMARK                         _______ _______ _______ _____ _____    ______ ____
ROOT
ATOM      1  C   UNL     1       4.062   4.477  18.268  0.00  0.00    +0.000 A 
ATOM      2  C   UNL     1       3.253   5.515  18.753  0.00  0.00    +0.000 A 
ATOM      3  C   UNL     1       3.218   6.755  18.128  0.00  0.00    +0.000 A 
ATOM      4  N   UNL     1       3.928   6.994  17.007  0.00  0.00    +0.000 NA
ATOM      5  C   UNL     1       4.713   6.020  16.512  0.00  0.00    +0.000 A 
ATOM      6  C   UNL     1       5.438   6.289  15.359  0.00  0.00    +0.000 A 
ATOM      7  C   UNL     1       6.281   5.341  14.769  0.00  0.00    +0.000 A 
ATOM      8  C   UNL     1       6.408   4.088  15.346  0.00  0.00    +0.000 A 
ATOM      9  C   UNL     1       5.690   3.788  16.504  0.00  0.00    +0.000 A 
ATOM     10  C   UNL     1       4.828   4.736  17.105  0.00  0.00    +0.000 A 
ENDROOT
BRANCH   3  11
ATOM     11  C   UNL     1       2.357   7.837  18.649  0.00  0.00    +0.000 A 
ATOM     12  C   UNL     1       2.048   8.971  17.867  0.00  0.00    +0.000 A 
ATOM     13  C   UNL     1       1.343  10.056  18.395  0.00  0.00    +0.000 A 
ATOM     14  C   UNL     1       0.904  10.018  19.714  0.00  0.00    +0.000 A 
ATOM     15  C   UNL     1       1.154   8.889  20.494  0.00  0.00    +0.000 A 
ATOM     16  C   UNL     1       1.868   7.810  19.964  0.00  0.00    +0.000 A 
ENDBRANCH   3  11
BRANCH   1  17
ATOM     17  C   UNL     1       4.090   3.130  18.984  0.00  0.00    +0.000 C 
BRANCH  17  18
ATOM     18  O   UNL     1       5.439   2.804  19.346  0.00  0.00    +0.000 OA
ATOM     19  H   UNL     1       5.974   2.839  18.535  0.00  0.00    +0.000 HD
ENDBRANCH  17  18
BRANCH  17  20
ATOM     20  C   UNL     1       3.536   1.944  18.146  0.00  0.00    +0.000 C 
BRANCH  20  21
ATOM     21  N   UNL     1       2.228   1.458  18.600  0.00  0.00    +0.000 NA
ATOM     22  H   UNL     1       1.979   0.637  18.042  0.00  0.00    +0.000 HD
BRANCH  21  23
ATOM     23  C   UNL     1       1.227   2.514  18.447  0.00  0.00    +0.000 C 
BRANCH  23  24
ATOM     24  C   UNL     1       0.426   2.666  19.735  0.00  0.00    +0.000 C 
BRANCH  24  26
ATOM     25  C   UNL     1       1.825   2.937  21.805  0.00  0.00    +0.000 C 
ATOM     26  C   UNL     1       1.104   3.657  20.679  0.00  0.00    +0.000 C 
ENDBRANCH  24  26
ENDBRANCH  23  24
ENDBRANCH  21  23
ENDBRANCH  20  21
ENDBRANCH  17  20
ENDBRANCH   1  17
TORSDOF 8
ENDMDL
MODEL 9
REMARK VINA RESULT:      -8.0      1.400      1.556
REMARK  Name = 
REMARK  9 active torsions:
REMARK  status: ('A' for Active; 'I' for Inactive)
REMARK    1  A    between atoms: C_1  and  C_2
REMARK    2  A    between atoms: C_2  and  C_3
REMARK    3  A    between atoms: C_3  and  C_4
REMARK    4  A    between atoms: C_4  and  N_5
REMARK    5  A    between atoms: N_5  and  C_6
REMARK    6  A    between atoms: C_6  and  C_7
REMARK    7  A    between atoms: C_7  and  O_8
REMARK    8  A    between atoms: C_7  and  C_9
REMARK    9  A    between atoms: C_11  and  C_12
REMARK                            x       y       z     vdW  Elec       q    Type
REMARK                         _______ _______ _______ _____ _____    ______ ____
ROOT
ATOM      1  C   UNL     1       3.400   4.774  17.490  0.00  0.00    +0.000 A 
ATOM      2  C   UNL     1       2.558   5.779  17.989  0.00  0.00    +0.000 A 
ATOM      3  C   UNL     1       3.024   7.070  18.202  0.00  0.00    +0.000 A 
ATOM      4  N   UNL     1       4.291   7.417  17.897  0.00  0.00    +0.000 NA
ATOM      5  C   UNL     1       5.125   6.478  17.414  0.00  0.00    +0.000 A 
ATOM      6  C   UNL     1       6.426   6.856  17.110  0.00  0.00    +0.000 A 
ATOM      7  C   UNL     1       7.366   5.953  16.604  0.00  0.00    +0.000 A 
ATOM      8  C   UNL     1       7.001   4.633  16.395  0.00  0.00    +0.000 A 
ATOM      9  C   UNL     1       5.700   4.224  16.688  0.00  0.00    +0.000 A 
ATOM     10  C   UNL     1       4.738   5.131  17.194  0.00  0.00    +0.000 A 
ENDROOT
BRANCH   3  11
ATOM     11  C   UNL     1       2.123   8.119  18.723  0.00  0.00    +0.000 A 
ATOM     12  C   UNL     1       1.751   8.158  20.085  0.00  0.00    +0.000 A 
ATOM     13  C   UNL     1       0.800   9.065  20.560  0.00  0.00    +0.000 A 
ATOM     14  C   UNL     1       0.220   9.977  19.685  0.00  0.00    +0.000 A 
ATOM     15  C   UNL     1       0.605   9.993  18.345  0.00  0.00    +0.000 A 
ATOM     16  C   UNL     1       1.550   9.077  17.872  0.00  0.00    +0.000 A 
ENDBRANCH   3  11
BRANCH   1  17
ATOM     17  C   UNL     1       2.862   3.361  17.280  0.00  0.00    +0.000 C 
BRANCH  17  18
ATOM     18  O   UNL     1       1.428   3.392  17.240  0.00  0.00    +0.000 OA
ATOM     19  H   UNL     1       1.171   3.999  16.525  0.00  0.00    +0.000 HD
ENDBRANCH  17  18
BRANCH  17  20
ATOM     20  C   UNL     1       3.274   2.345  18.382  0.00  0.00    +0.000 C 
BRANCH  20  21
ATOM     21  N   UNL     1       2.163   1.519  18.869  0.00  0.00    +0.000 NA
ATOM     22  H   UNL     1       1.424   1.525  18.161  0.00  0.00    +0.000 HD
BRANCH  21  23
ATOM     23  C   UNL     1       1.670   2.052  20.139  0.00  0.00    +0.000 C 
BRANCH  23  24
ATOM     24  C   UNL     1       2.782   2.814  20.853  0.00  0.00    +0.000 C 
BRANCH  24  26
ATOM     25  C   UNL     1       0.976   4.543  20.599  0.00  0.00    +0.000 C 
ATOM     26  C   UNL     1       2.314   4.216  21.240  0.00  0.00    +0.000 C 
ENDBRANCH  24  26
ENDBRANCH  23  24
ENDBRANCH  21  23
ENDBRANCH  20  21
ENDBRANCH  17  20
ENDBRANCH   1  17
TORSDOF 8
ENDMDL
