MODEL 1
REMARK VINA RESULT:      -8.8      0.000      0.000
REMARK  Name = 
REMARK  9 active torsions:
REMARK  status: ('A' for Active; 'I' for Inactive)
REMARK    1  A    between atoms: C_1  and  C_2
REMARK    2  A    between atoms: C_2  and  O_3
REMARK    3  A    between atoms: O_3  and  C_4
REMARK    4  A    between atoms: C_7  and  N_8
REMARK    5  A    between atoms: C_9  and  S_10
REMARK    6  A    between atoms: S_10  and  C_11
REMARK    7  A    between atoms: C_11  and  C_12
REMARK    8  A    between atoms: C_19  and  C_20
REMARK    9  A    between atoms: C_26  and  C_27
REMARK                            x       y       z     vdW  Elec       q    Type
REMARK                         _______ _______ _______ _____ _____    ______ ____
ROOT
ATOM      1  N   UNL     1      -0.125  10.332  21.197  0.00  0.00    +0.000 N 
ATOM      2  C   UNL     1       0.889   9.347  21.345  0.00  0.00    +0.000 A 
ATOM      3  N   UNL     1       1.179   9.280  22.638  0.00  0.00    +0.000 NA
ATOM      4  N   UNL     1       0.389  10.204  23.336  0.00  0.00    +0.000 NA
ATOM      5  C   UNL     1      -0.388  10.871  22.488  0.00  0.00    +0.000 A 
ENDROOT
BRANCH   1   9
ATOM      6  C   UNL     1      -1.798  11.370  17.476  0.00  0.00    +0.000 A 
ATOM      7  C   UNL     1      -0.922  12.227  18.134  0.00  0.00    +0.000 A 
ATOM      8  C   UNL     1      -0.479  11.933  19.416  0.00  0.00    +0.000 A 
ATOM      9  C   UNL     1      -0.815  10.716  20.015  0.00  0.00    +0.000 A 
ATOM     10  C   UNL     1      -1.700   9.848  19.375  0.00  0.00    +0.000 A 
ATOM     11  C   UNL     1      -2.204  10.192  18.112  0.00  0.00    +0.000 A 
BRANCH   6  12
ATOM     12  O   UNL     1      -2.301  11.594  16.218  0.00  0.00    +0.000 OA
BRANCH  12  14
ATOM     13  C   UNL     1      -3.382  10.147  14.611  0.00  0.00    +0.000 C 
ATOM     14  C   UNL     1      -3.511  10.888  15.923  0.00  0.00    +0.000 C 
ENDBRANCH  12  14
ENDBRANCH   6  12
ENDBRANCH   1   9
BRANCH   5  15
ATOM     15  C   UNL     1      -1.380  11.969  22.868  0.00  0.00    +0.000 A 
ATOM     16  C   UNL     1      -1.006  13.328  22.876  0.00  0.00    +0.000 A 
ATOM     17  C   UNL     1      -1.858  14.314  23.420  0.00  0.00    +0.000 A 
ATOM     18  C   UNL     1      -3.089  13.941  23.913  0.00  0.00    +0.000 A 
ATOM     19  N   UNL     1      -3.533  12.675  23.830  0.00  0.00    +0.000 NA
ATOM     20  C   UNL     1      -2.691  11.735  23.300  0.00  0.00    +0.000 A 
ENDBRANCH   5  15
BRANCH   2  21
ATOM     21  S   UNL     1       1.543   8.367  20.008  0.00  0.00    +0.000 S 
BRANCH  21  22
ATOM     22  C   UNL     1       1.951   6.609  20.468  0.00  0.00    +0.000 C 
BRANCH  22  23
ATOM     23  C   UNL     1       2.458   5.754  19.253  0.00  0.00    +0.000 A 
ATOM     24  C   UNL     1       1.764   4.628  18.985  0.00  0.00    +0.000 A 
ATOM     25  C   UNL     1       2.371   3.646  18.063  0.00  0.00    +0.000 A 
ATOM     26  O   UNL     1       1.758   3.010  17.221  0.00  0.00    +0.000 OA
ATOM     27  O   UNL     1       3.681   3.452  18.441  0.00  0.00    +0.000 OA
ATOM     28  C   UNL     1       4.311   4.645  18.053  0.00  0.00    +0.000 A 
ATOM     29  C   UNL     1       5.408   4.437  17.195  0.00  0.00    +0.000 A 
ATOM     30  C   UNL     1       5.800   5.443  16.335  0.00  0.00    +0.000 A 
ATOM     31  C   UNL     1       6.884   5.129  15.336  0.00  0.00    +0.000 C 
ATOM     32  C   UNL     1       5.052   6.638  16.373  0.00  0.00    +0.000 A 
ATOM     33  C   UNL     1       4.000   6.861  17.362  0.00  0.00    +0.000 A 
ATOM     34  C   UNL     1       3.651   5.880  18.297  0.00  0.00    +0.000 A 
ENDBRANCH  22  23
ENDBRANCH  21  22
ENDBRANCH   2  21
TORSDOF 7
ENDMDL
MODEL 2
REMARK VINA RESULT:      -8.3      0.830      1.331
REMARK  Name = 
REMARK  9 active torsions:
REMARK  status: ('A' for Active; 'I' for Inactive)
REMARK    1  A    between atoms: C_1  and  C_2
REMARK    2  A    between atoms: C_2  and  O_3
REMARK    3  A    between atoms: O_3  and  C_4
REMARK    4  A    between atoms: C_7  and  N_8
REMARK    5  A    between atoms: C_9  and  S_10
REMARK    6  A    between atoms: S_10  and  C_11
REMARK    7  A    between atoms: C_11  and  C_12
REMARK    8  A    between atoms: C_19  and  C_20
REMARK    9  A    between atoms: C_26  and  C_27
REMARK                            x       y       z     vdW  Elec       q    Type
REMARK                         _______ _______ _______ _____ _____    ______ ____
ROOT
ATOM      1  N   UNL     1      -0.104  10.324  21.178  0.00  0.00    +0.000 N 
ATOM      2  C   UNL     1       0.865   9.351  21.549  0.00  0.00    +0.000 A 
ATOM      3  N   UNL     1       0.971   9.395  22.870  0.00  0.00    +0.000 NA
ATOM      4  N   UNL     1       0.108  10.379  23.371  0.00  0.00    +0.000 NA
ATOM      5  C   UNL     1      -0.534  10.973  22.370  0.00  0.00    +0.000 A 
ENDROOT
BRANCH   1   9
ATOM      6  C   UNL     1      -1.993  11.304  17.546  0.00  0.00    +0.000 A 
ATOM      7  C   UNL     1      -2.311  10.133  18.229  0.00  0.00    +0.000 A 
ATOM      8  C   UNL     1      -1.591   9.758  19.355  0.00  0.00    +0.000 A 
ATOM      9  C   UNL     1      -0.617  10.608  19.884  0.00  0.00    +0.000 A 
ATOM     10  C   UNL     1      -0.279  11.781  19.208  0.00  0.00    +0.000 A 
ATOM     11  C   UNL     1      -0.958  12.112  18.026  0.00  0.00    +0.000 A 
BRANCH   6  12
ATOM     12  O   UNL     1      -2.638  11.737  16.414  0.00  0.00    +0.000 OA
BRANCH  12  14
ATOM     13  C   UNL     1      -3.012  10.180  14.603  0.00  0.00    +0.000 C 
ATOM     14  C   UNL     1      -3.572  10.803  15.863  0.00  0.00    +0.000 C 
ENDBRANCH  12  14
ENDBRANCH   6  12
ENDBRANCH   1   9
BRANCH   5  15
ATOM     15  C   UNL     1      -1.550  12.104  22.514  0.00  0.00    +0.000 A 
ATOM     16  C   UNL     1      -2.814  11.888  23.101  0.00  0.00    +0.000 A 
ATOM     17  C   UNL     1      -3.820  12.878  23.048  0.00  0.00    +0.000 A 
ATOM     18  C   UNL     1      -3.543  14.086  22.447  0.00  0.00    +0.000 A 
ATOM     19  N   UNL     1      -2.321  14.378  21.969  0.00  0.00    +0.000 NA
ATOM     20  C   UNL     1      -1.361  13.404  22.030  0.00  0.00    +0.000 A 
ENDBRANCH   5  15
BRANCH   2  21
ATOM     21  S   UNL     1       1.681   8.258  20.403  0.00  0.00    +0.000 S 
BRANCH  21  22
ATOM     22  C   UNL     1       1.465   6.446  20.779  0.00  0.00    +0.000 C 
BRANCH  22  23
ATOM     23  C   UNL     1       2.177   5.510  19.739  0.00  0.00    +0.000 A 
ATOM     24  C   UNL     1       1.683   4.259  19.628  0.00  0.00    +0.000 A 
ATOM     25  C   UNL     1       2.493   3.259  18.902  0.00  0.00    +0.000 A 
ATOM     26  O   UNL     1       2.042   2.412  18.148  0.00  0.00    +0.000 OA
ATOM     27  O   UNL     1       3.789   3.340  19.359  0.00  0.00    +0.000 OA
ATOM     28  C   UNL     1       4.253   4.546  18.811  0.00  0.00    +0.000 A 
ATOM     29  C   UNL     1       5.423   4.391  18.044  0.00  0.00    +0.000 A 
ATOM     30  C   UNL     1       5.712   5.305  17.050  0.00  0.00    +0.000 A 
ATOM     31  C   UNL     1       6.896   5.022  16.160  0.00  0.00    +0.000 C 
ATOM     32  C   UNL     1       4.789   6.354  16.865  0.00  0.00    +0.000 A 
ATOM     33  C   UNL     1       3.652   6.552  17.760  0.00  0.00    +0.000 A 
ATOM     34  C   UNL     1       3.397   5.680  18.826  0.00  0.00    +0.000 A 
ENDBRANCH  22  23
ENDBRANCH  21  22
ENDBRANCH   2  21
TORSDOF 7
ENDMDL
MODEL 3
REMARK VINA RESULT:      -8.0      0.918      1.437
REMARK  Name = 
REMARK  9 active torsions:
REMARK  status: ('A' for Active; 'I' for Inactive)
REMARK    1  A    between atoms: C_1  and  C_2
REMARK    2  A    between atoms: C_2  and  O_3
REMARK    3  A    between atoms: O_3  and  C_4
REMARK    4  A    between atoms: C_7  and  N_8
REMARK    5  A    between atoms: C_9  and  S_10
REMARK    6  A    between atoms: S_10  and  C_11
REMARK    7  A    between atoms: C_11  and  C_12
REMARK    8  A    between atoms: C_19  and  C_20
REMARK    9  A    between atoms: C_26  and  C_27
REMARK                            x       y       z     vdW  Elec       q    Type
REMARK                         _______ _______ _______ _____ _____    ______ ____
ROOT
ATOM      1  N   UNL     1      -0.070  10.331  21.124  0.00  0.00    +0.000 N 
ATOM      2  C   UNL     1       0.937   9.332  21.225  0.00  0.00    +0.000 A 
ATOM      3  N   UNL     1       1.266   9.243  22.508  0.00  0.00    +0.000 NA
ATOM      4  N   UNL     1       0.510  10.164  23.244  0.00  0.00    +0.000 NA
ATOM      5  C   UNL     1      -0.286  10.853  22.431  0.00  0.00    +0.000 A 
ENDROOT
BRANCH   1   9
ATOM      6  C   UNL     1      -2.556  11.327  17.876  0.00  0.00    +0.000 A 
ATOM      7  C   UNL     1      -1.984  10.062  17.983  0.00  0.00    +0.000 A 
ATOM      8  C   UNL     1      -1.066   9.787  18.986  0.00  0.00    +0.000 A 
ATOM      9  C   UNL     1      -0.792  10.740  19.971  0.00  0.00    +0.000 A 
ATOM     10  C   UNL     1      -1.349  12.016  19.876  0.00  0.00    +0.000 A 
ATOM     11  C   UNL     1      -2.215  12.309  18.812  0.00  0.00    +0.000 A 
BRANCH   6  12
ATOM     12  O   UNL     1      -3.455  11.690  16.904  0.00  0.00    +0.000 OA
BRANCH  12  14
ATOM     13  C   UNL     1      -5.671  12.356  17.605  0.00  0.00    +0.000 C 
ATOM     14  C   UNL     1      -4.791  11.224  17.121  0.00  0.00    +0.000 C 
ENDBRANCH  12  14
ENDBRANCH   6  12
ENDBRANCH   1   9
BRANCH   5  15
ATOM     15  C   UNL     1      -1.252  11.956  22.858  0.00  0.00    +0.000 A 
ATOM     16  C   UNL     1      -2.586  11.669  23.213  0.00  0.00    +0.000 A 
ATOM     17  C   UNL     1      -3.526  12.705  23.409  0.00  0.00    +0.000 A 
ATOM     18  C   UNL     1      -3.117  14.015  23.289  0.00  0.00    +0.000 A 
ATOM     19  N   UNL     1      -1.833  14.340  23.058  0.00  0.00    +0.000 NA
ATOM     20  C   UNL     1      -0.939  13.320  22.871  0.00  0.00    +0.000 A 
ENDBRANCH   5  15
BRANCH   2  21
ATOM     21  S   UNL     1       1.537   8.366  19.854  0.00  0.00    +0.000 S 
BRANCH  21  22
ATOM     22  C   UNL     1       2.278   6.725  20.333  0.00  0.00    +0.000 C 
BRANCH  22  23
ATOM     23  C   UNL     1       2.680   5.845  19.097  0.00  0.00    +0.000 A 
ATOM     24  C   UNL     1       1.897   4.773  18.849  0.00  0.00    +0.000 A 
ATOM     25  C   UNL     1       2.400   3.756  17.902  0.00  0.00    +0.000 A 
ATOM     26  O   UNL     1       1.714   3.171  17.080  0.00  0.00    +0.000 OA
ATOM     27  O   UNL     1       3.705   3.466  18.232  0.00  0.00    +0.000 OA
ATOM     28  C   UNL     1       4.405   4.614  17.827  0.00  0.00    +0.000 A 
ATOM     29  C   UNL     1       5.453   4.335  16.930  0.00  0.00    +0.000 A 
ATOM     30  C   UNL     1       5.886   5.317  16.060  0.00  0.00    +0.000 A 
ATOM     31  C   UNL     1       6.909   4.932  15.022  0.00  0.00    +0.000 C 
ATOM     32  C   UNL     1       5.226   6.561  16.130  0.00  0.00    +0.000 A 
ATOM     33  C   UNL     1       4.228   6.852  17.156  0.00  0.00    +0.000 A 
ATOM     34  C   UNL     1       3.844   5.891  18.100  0.00  0.00    +0.000 A 
ENDBRANCH  22  23
ENDBRANCH  21  22
ENDBRANCH   2  21
TORSDOF 7
ENDMDL
MODEL 4
REMARK VINA RESULT:      -7.9      1.289      1.638
REMARK  Name = 
REMARK  9 active torsions:
REMARK  status: ('A' for Active; 'I' for Inactive)
REMARK    1  A    between atoms: C_1  and  C_2
REMARK    2  A    between atoms: C_2  and  O_3
REMARK    3  A    between atoms: O_3  and  C_4
REMARK    4  A    between atoms: C_7  and  N_8
REMARK    5  A    between atoms: C_9  and  S_10
REMARK    6  A    between atoms: S_10  and  C_11
REMARK    7  A    between atoms: C_11  and  C_12
REMARK    8  A    between atoms: C_19  and  C_20
REMARK    9  A    between atoms: C_26  and  C_27
REMARK                            x       y       z     vdW  Elec       q    Type
REMARK                         _______ _______ _______ _____ _____    ______ ____
ROOT
ATOM      1  N   UNL     1      -0.480  10.902  20.665  0.00  0.00    +0.000 N 
ATOM      2  C   UNL     1       0.500  10.040  21.232  0.00  0.00    +0.000 A 
ATOM      3  N   UNL     1       0.567  10.328  22.525  0.00  0.00    +0.000 NA
ATOM      4  N   UNL     1      -0.333  11.362  22.815  0.00  0.00    +0.000 NA
ATOM      5  C   UNL     1      -0.959  11.745  21.707  0.00  0.00    +0.000 A 
ENDROOT
BRANCH   1   9
ATOM      6  C   UNL     1      -2.311  11.054  16.878  0.00  0.00    +0.000 A 
ATOM      7  C   UNL     1      -2.401   9.917  17.675  0.00  0.00    +0.000 A 
ATOM      8  C   UNL     1      -1.688   9.831  18.863  0.00  0.00    +0.000 A 
ATOM      9  C   UNL     1      -0.962  10.929  19.329  0.00  0.00    +0.000 A 
ATOM     10  C   UNL     1      -0.852  12.074  18.539  0.00  0.00    +0.000 A 
ATOM     11  C   UNL     1      -1.513  12.121  17.303  0.00  0.00    +0.000 A 
BRANCH   6  12
ATOM     12  O   UNL     1      -2.964  11.214  15.681  0.00  0.00    +0.000 OA
BRANCH  12  14
ATOM     13  C   UNL     1      -4.017  10.119  13.800  0.00  0.00    +0.000 C 
ATOM     14  C   UNL     1      -2.884  10.086  14.802  0.00  0.00    +0.000 C 
ENDBRANCH  12  14
ENDBRANCH   6  12
ENDBRANCH   1   9
BRANCH   5  15
ATOM     15  C   UNL     1      -2.005  12.854  21.617  0.00  0.00    +0.000 A 
ATOM     16  C   UNL     1      -1.663  14.208  21.815  0.00  0.00    +0.000 A 
ATOM     17  C   UNL     1      -2.660  15.201  21.931  0.00  0.00    +0.000 A 
ATOM     18  C   UNL     1      -3.985  14.841  21.810  0.00  0.00    +0.000 A 
ATOM     19  N   UNL     1      -4.354  13.584  21.514  0.00  0.00    +0.000 NA
ATOM     20  C   UNL     1      -3.372  12.637  21.406  0.00  0.00    +0.000 A 
ENDBRANCH   5  15
BRANCH   2  21
ATOM     21  S   UNL     1       1.374   8.779  20.327  0.00  0.00    +0.000 S 
BRANCH  21  22
ATOM     22  C   UNL     1       1.501   7.144  21.210  0.00  0.00    +0.000 C 
BRANCH  22  23
ATOM     23  C   UNL     1       1.969   5.972  20.277  0.00  0.00    +0.000 A 
ATOM     24  C   UNL     1       1.311   4.801  20.414  0.00  0.00    +0.000 A 
ATOM     25  C   UNL     1       1.903   3.600  19.791  0.00  0.00    +0.000 A 
ATOM     26  O   UNL     1       1.268   2.723  19.229  0.00  0.00    +0.000 OA
ATOM     27  O   UNL     1       3.242   3.562  20.112  0.00  0.00    +0.000 OA
ATOM     28  C   UNL     1       3.791   4.595  19.336  0.00  0.00    +0.000 A 
ATOM     29  C   UNL     1       4.840   4.163  18.502  0.00  0.00    +0.000 A 
ATOM     30  C   UNL     1       5.130   4.867  17.350  0.00  0.00    +0.000 A 
ATOM     31  C   UNL     1       6.163   4.289  16.416  0.00  0.00    +0.000 C 
ATOM     32  C   UNL     1       4.332   5.998  17.081  0.00  0.00    +0.000 A 
ATOM     33  C   UNL     1       3.336   6.486  18.031  0.00  0.00    +0.000 A 
ATOM     34  C   UNL     1       3.092   5.829  19.242  0.00  0.00    +0.000 A 
ENDBRANCH  22  23
ENDBRANCH  21  22
ENDBRANCH   2  21
TORSDOF 7
ENDMDL
MODEL 5
REMARK VINA RESULT:      -7.9      3.247      5.175
REMARK  Name = 
REMARK  9 active torsions:
REMARK  status: ('A' for Active; 'I' for Inactive)
REMARK    1  A    between atoms: C_1  and  C_2
REMARK    2  A    between atoms: C_2  and  O_3
REMARK    3  A    between atoms: O_3  and  C_4
REMARK    4  A    between atoms: C_7  and  N_8
REMARK    5  A    between atoms: C_9  and  S_10
REMARK    6  A    between atoms: S_10  and  C_11
REMARK    7  A    between atoms: C_11  and  C_12
REMARK    8  A    between atoms: C_19  and  C_20
REMARK    9  A    between atoms: C_26  and  C_27
REMARK                            x       y       z     vdW  Elec       q    Type
REMARK                         _______ _______ _______ _____ _____    ______ ____
ROOT
ATOM      1  N   UNL     1       0.826  12.735  19.272  0.00  0.00    +0.000 N 
ATOM      2  C   UNL     1       1.593  11.672  18.721  0.00  0.00    +0.000 A 
ATOM      3  N   UNL     1       2.579  12.226  18.027  0.00  0.00    +0.000 NA
ATOM      4  N   UNL     1       2.469  13.620  18.101  0.00  0.00    +0.000 NA
ATOM      5  C   UNL     1       1.405  13.956  18.823  0.00  0.00    +0.000 A 
ENDROOT
BRANCH   1   9
ATOM      6  C   UNL     1      -2.463  12.938  21.892  0.00  0.00    +0.000 A 
ATOM      7  C   UNL     1      -1.160  13.070  22.362  0.00  0.00    +0.000 A 
ATOM      8  C   UNL     1      -0.081  12.873  21.512  0.00  0.00    +0.000 A 
ATOM      9  C   UNL     1      -0.290  12.655  20.148  0.00  0.00    +0.000 A 
ATOM     10  C   UNL     1      -1.589  12.510  19.660  0.00  0.00    +0.000 A 
ATOM     11  C   UNL     1      -2.672  12.633  20.543  0.00  0.00    +0.000 A 
BRANCH   6  12
ATOM     12  O   UNL     1      -3.585  13.094  22.668  0.00  0.00    +0.000 OA
BRANCH  12  14
ATOM     13  C   UNL     1      -4.657  12.340  24.699  0.00  0.00    +0.000 C 
ATOM     14  C   UNL     1      -3.383  12.853  24.065  0.00  0.00    +0.000 C 
ENDBRANCH  12  14
ENDBRANCH   6  12
ENDBRANCH   1   9
BRANCH   5  15
ATOM     15  C   UNL     1       0.946  15.382  19.120  0.00  0.00    +0.000 A 
ATOM     16  C   UNL     1      -0.269  15.886  18.612  0.00  0.00    +0.000 A 
ATOM     17  C   UNL     1      -0.588  17.258  18.718  0.00  0.00    +0.000 A 
ATOM     18  C   UNL     1       0.287  18.104  19.362  0.00  0.00    +0.000 A 
ATOM     19  N   UNL     1       1.404  17.653  19.955  0.00  0.00    +0.000 NA
ATOM     20  C   UNL     1       1.696  16.320  19.841  0.00  0.00    +0.000 A 
ENDBRANCH   5  15
BRANCH   2  21
ATOM     21  S   UNL     1       1.276   9.944  19.018  0.00  0.00    +0.000 S 
BRANCH  21  22
ATOM     22  C   UNL     1       1.762   8.819  17.615  0.00  0.00    +0.000 C 
BRANCH  22  23
ATOM     23  C   UNL     1       2.548   7.545  18.089  0.00  0.00    +0.000 A 
ATOM     24  C   UNL     1       3.772   7.364  17.549  0.00  0.00    +0.000 A 
ATOM     25  C   UNL     1       4.414   6.046  17.722  0.00  0.00    +0.000 A 
ATOM     26  O   UNL     1       5.602   5.874  17.941  0.00  0.00    +0.000 OA
ATOM     27  O   UNL     1       3.490   5.071  17.420  0.00  0.00    +0.000 OA
ATOM     28  C   UNL     1       2.606   5.112  18.510  0.00  0.00    +0.000 A 
ATOM     29  C   UNL     1       2.461   3.867  19.151  0.00  0.00    +0.000 A 
ATOM     30  C   UNL     1       2.080   3.823  20.477  0.00  0.00    +0.000 A 
ATOM     31  C   UNL     1       2.076   2.480  21.162  0.00  0.00    +0.000 C 
ATOM     32  C   UNL     1       1.861   5.061  21.115  0.00  0.00    +0.000 A 
ATOM     33  C   UNL     1       1.901   6.326  20.385  0.00  0.00    +0.000 A 
ATOM     34  C   UNL     1       2.202   6.375  19.019  0.00  0.00    +0.000 A 
ENDBRANCH  22  23
ENDBRANCH  21  22
ENDBRANCH   2  21
TORSDOF 7
ENDMDL
MODEL 6
REMARK VINA RESULT:      -7.8      2.522      9.147
REMARK  Name = 
REMARK  9 active torsions:
REMARK  status: ('A' for Active; 'I' for Inactive)
REMARK    1  A    between atoms: C_1  and  C_2
REMARK    2  A    between atoms: C_2  and  O_3
REMARK    3  A    between atoms: O_3  and  C_4
REMARK    4  A    between atoms: C_7  and  N_8
REMARK    5  A    between atoms: C_9  and  S_10
REMARK    6  A    between atoms: S_10  and  C_11
REMARK    7  A    between atoms: C_11  and  C_12
REMARK    8  A    between atoms: C_19  and  C_20
REMARK    9  A    between atoms: C_26  and  C_27
REMARK                            x       y       z     vdW  Elec       q    Type
REMARK                         _______ _______ _______ _____ _____    ______ ____
ROOT
ATOM      1  N   UNL     1       2.571   6.535  18.998  0.00  0.00    +0.000 N 
ATOM      2  C   UNL     1       2.114   7.881  19.058  0.00  0.00    +0.000 A 
ATOM      3  N   UNL     1       1.471   8.020  20.211  0.00  0.00    +0.000 NA
ATOM      4  N   UNL     1       1.486   6.799  20.898  0.00  0.00    +0.000 NA
ATOM      5  C   UNL     1       2.121   5.879  20.178  0.00  0.00    +0.000 A 
ENDROOT
BRANCH   1   9
ATOM      6  C   UNL     1       5.176   4.540  16.361  0.00  0.00    +0.000 A 
ATOM      7  C   UNL     1       5.553   5.726  16.985  0.00  0.00    +0.000 A 
ATOM      8  C   UNL     1       4.642   6.440  17.749  0.00  0.00    +0.000 A 
ATOM      9  C   UNL     1       3.369   5.920  17.997  0.00  0.00    +0.000 A 
ATOM     10  C   UNL     1       2.969   4.738  17.372  0.00  0.00    +0.000 A 
ATOM     11  C   UNL     1       3.873   4.063  16.538  0.00  0.00    +0.000 A 
BRANCH   6  12
ATOM     12  O   UNL     1       6.006   3.783  15.571  0.00  0.00    +0.000 OA
BRANCH  12  14
ATOM     13  C   UNL     1       6.080   3.715  13.156  0.00  0.00    +0.000 C 
ATOM     14  C   UNL     1       6.499   4.455  14.407  0.00  0.00    +0.000 C 
ENDBRANCH  12  14
ENDBRANCH   6  12
ENDBRANCH   1   9
BRANCH   5  15
ATOM     15  C   UNL     1       2.333   4.423  20.587  0.00  0.00    +0.000 A 
ATOM     16  C   UNL     1       1.278   3.640  21.100  0.00  0.00    +0.000 A 
ATOM     17  C   UNL     1       1.522   2.368  21.663  0.00  0.00    +0.000 A 
ATOM     18  C   UNL     1       2.808   1.873  21.673  0.00  0.00    +0.000 A 
ATOM     19  N   UNL     1       3.827   2.534  21.099  0.00  0.00    +0.000 NA
ATOM     20  C   UNL     1       3.569   3.766  20.560  0.00  0.00    +0.000 A 
ENDBRANCH   5  15
BRANCH   2  21
ATOM     21  S   UNL     1       2.450   9.114  17.817  0.00  0.00    +0.000 S 
BRANCH  21  22
ATOM     22  C   UNL     1       1.795  10.810  18.218  0.00  0.00    +0.000 C 
BRANCH  22  23
ATOM     23  C   UNL     1       0.315  10.794  18.740  0.00  0.00    +0.000 A 
ATOM     24  C   UNL     1      -0.608  10.277  17.902  0.00  0.00    +0.000 A 
ATOM     25  C   UNL     1      -2.032  10.515  18.211  0.00  0.00    +0.000 A 
ATOM     26  O   UNL     1      -2.922   9.693  18.067  0.00  0.00    +0.000 OA
ATOM     27  O   UNL     1      -2.193  11.850  18.509  0.00  0.00    +0.000 OA
ATOM     28  C   UNL     1      -1.593  11.975  19.773  0.00  0.00    +0.000 A 
ATOM     29  C   UNL     1      -2.457  12.518  20.743  0.00  0.00    +0.000 A 
ATOM     30  C   UNL     1      -2.242  12.241  22.079  0.00  0.00    +0.000 A 
ATOM     31  C   UNL     1      -3.271  12.724  23.069  0.00  0.00    +0.000 C 
ATOM     32  C   UNL     1      -1.148  11.407  22.385  0.00  0.00    +0.000 A 
ATOM     33  C   UNL     1      -0.202  10.963  21.364  0.00  0.00    +0.000 A 
ATOM     34  C   UNL     1      -0.361  11.310  20.017  0.00  0.00    +0.000 A 
ENDBRANCH  22  23
ENDBRANCH  21  22
ENDBRANCH   2  21
TORSDOF 7
ENDMDL
MODEL 7
REMARK VINA RESULT:      -7.8      2.691      5.249
REMARK  Name = 
REMARK  9 active torsions:
REMARK  status: ('A' for Active; 'I' for Inactive)
REMARK    1  A    between atoms: C_1  and  C_2
REMARK    2  A    between atoms: C_2  and  O_3
REMARK    3  A    between atoms: O_3  and  C_4
REMARK    4  A    between atoms: C_7  and  N_8
REMARK    5  A    between atoms: C_9  and  S_10
REMARK    6  A    between atoms: S_10  and  C_11
REMARK    7  A    between atoms: C_11  and  C_12
REMARK    8  A    between atoms: C_19  and  C_20
REMARK    9  A    between atoms: C_26  and  C_27
REMARK                            x       y       z     vdW  Elec       q    Type
REMARK                         _______ _______ _______ _____ _____    ______ ____
ROOT
ATOM      1  N   UNL     1      -1.529  11.058  18.837  0.00  0.00    +0.000 N 
ATOM      2  C   UNL     1      -0.591  10.150  18.273  0.00  0.00    +0.000 A 
ATOM      3  N   UNL     1      -1.196   9.552  17.255  0.00  0.00    +0.000 NA
ATOM      4  N   UNL     1      -2.507  10.036  17.148  0.00  0.00    +0.000 NA
ATOM      5  C   UNL     1      -2.743  10.927  18.106  0.00  0.00    +0.000 A 
ENDROOT
BRANCH   1   9
ATOM      6  C   UNL     1      -0.535  13.629  22.020  0.00  0.00    +0.000 A 
ATOM      7  C   UNL     1      -0.837  12.289  22.245  0.00  0.00    +0.000 A 
ATOM      8  C   UNL     1      -1.288  11.485  21.207  0.00  0.00    +0.000 A 
ATOM      9  C   UNL     1      -1.333  11.979  19.902  0.00  0.00    +0.000 A 
ATOM     10  C   UNL     1      -1.043  13.322  19.658  0.00  0.00    +0.000 A 
ATOM     11  C   UNL     1      -0.664  14.147  20.727  0.00  0.00    +0.000 A 
BRANCH   6  12
ATOM     12  O   UNL     1      -0.105  14.498  22.991  0.00  0.00    +0.000 OA
BRANCH  12  14
ATOM     13  C   UNL     1      -1.962  15.298  24.317  0.00  0.00    +0.000 C 
ATOM     14  C   UNL     1      -0.971  15.616  23.219  0.00  0.00    +0.000 C 
ENDBRANCH  12  14
ENDBRANCH   6  12
ENDBRANCH   1   9
BRANCH   5  15
ATOM     15  C   UNL     1      -4.061  11.667  18.326  0.00  0.00    +0.000 A 
ATOM     16  C   UNL     1      -4.972  11.876  17.271  0.00  0.00    +0.000 A 
ATOM     17  C   UNL     1      -6.086  12.731  17.430  0.00  0.00    +0.000 A 
ATOM     18  C   UNL     1      -6.301  13.335  18.649  0.00  0.00    +0.000 A 
ATOM     19  N   UNL     1      -5.522  13.081  19.714  0.00  0.00    +0.000 NA
ATOM     20  C   UNL     1      -4.448  12.251  19.538  0.00  0.00    +0.000 A 
ENDBRANCH   5  15
BRANCH   2  21
ATOM     21  S   UNL     1       1.091   9.965  18.831  0.00  0.00    +0.000 S 
BRANCH  21  22
ATOM     22  C   UNL     1       2.233   9.178  17.588  0.00  0.00    +0.000 C 
BRANCH  22  23
ATOM     23  C   UNL     1       2.762   7.771  18.038  0.00  0.00    +0.000 A 
ATOM     24  C   UNL     1       3.941   7.379  17.509  0.00  0.00    +0.000 A 
ATOM     25  C   UNL     1       4.326   5.961  17.657  0.00  0.00    +0.000 A 
ATOM     26  O   UNL     1       5.458   5.567  17.886  0.00  0.00    +0.000 OA
ATOM     27  O   UNL     1       3.243   5.181  17.318  0.00  0.00    +0.000 OA
ATOM     28  C   UNL     1       2.364   5.360  18.398  0.00  0.00    +0.000 A 
ATOM     29  C   UNL     1       1.981   4.149  19.006  0.00  0.00    +0.000 A 
ATOM     30  C   UNL     1       1.576   4.146  20.326  0.00  0.00    +0.000 A 
ATOM     31  C   UNL     1       1.314   2.812  20.976  0.00  0.00    +0.000 C 
ATOM     32  C   UNL     1       1.579   5.389  20.992  0.00  0.00    +0.000 A 
ATOM     33  C   UNL     1       1.864   6.640  20.295  0.00  0.00    +0.000 A 
ATOM     34  C   UNL     1       2.191   6.664  18.934  0.00  0.00    +0.000 A 
ENDBRANCH  22  23
ENDBRANCH  21  22
ENDBRANCH   2  21
TORSDOF 7
ENDMDL
MODEL 8
REMARK VINA RESULT:      -7.7      7.891      9.833
REMARK  Name = 
REMARK  9 active torsions:
REMARK  status: ('A' for Active; 'I' for Inactive)
REMARK    1  A    between atoms: C_1  and  C_2
REMARK    2  A    between atoms: C_2  and  O_3
REMARK    3  A    between atoms: O_3  and  C_4
REMARK    4  A    between atoms: C_7  and  N_8
REMARK    5  A    between atoms: C_9  and  S_10
REMARK    6  A    between atoms: S_10  and  C_11
REMARK    7  A    between atoms: C_11  and  C_12
REMARK    8  A    between atoms: C_19  and  C_20
REMARK    9  A    between atoms: C_26  and  C_27
REMARK                            x       y       z     vdW  Elec       q    Type
REMARK                         _______ _______ _______ _____ _____    ______ ____
ROOT
ATOM      1  N   UNL     1       9.538  12.764  18.202  0.00  0.00    +0.000 N 
ATOM      2  C   UNL     1       9.640  11.349  18.109  0.00  0.00    +0.000 A 
ATOM      3  N   UNL     1      10.918  11.067  17.888  0.00  0.00    +0.000 NA
ATOM      4  N   UNL     1      11.649  12.260  17.823  0.00  0.00    +0.000 NA
ATOM      5  C   UNL     1      10.838  13.301  17.982  0.00  0.00    +0.000 A 
ENDROOT
BRANCH   1   9
ATOM      6  C   UNL     1       6.394  15.438  19.030  0.00  0.00    +0.000 A 
ATOM      7  C   UNL     1       7.365  15.153  19.985  0.00  0.00    +0.000 A 
ATOM      8  C   UNL     1       8.320  14.175  19.747  0.00  0.00    +0.000 A 
ATOM      9  C   UNL     1       8.390  13.547  18.501  0.00  0.00    +0.000 A 
ATOM     10  C   UNL     1       7.419  13.813  17.534  0.00  0.00    +0.000 A 
ATOM     11  C   UNL     1       6.410  14.747  17.814  0.00  0.00    +0.000 A 
BRANCH   6  12
ATOM     12  O   UNL     1       5.401  16.373  19.191  0.00  0.00    +0.000 OA
BRANCH  12  14
ATOM     13  C   UNL     1       4.346  17.822  20.814  0.00  0.00    +0.000 C 
ATOM     14  C   UNL     1       5.650  17.337  20.221  0.00  0.00    +0.000 C 
ENDBRANCH  12  14
ENDBRANCH   6  12
ENDBRANCH   1   9
BRANCH   5  15
ATOM     15  C   UNL     1      11.261  14.769  17.961  0.00  0.00    +0.000 A 
ATOM     16  C   UNL     1      11.916  15.362  19.060  0.00  0.00    +0.000 A 
ATOM     17  C   UNL     1      12.121  16.758  19.117  0.00  0.00    +0.000 A 
ATOM     18  C   UNL     1      11.708  17.542  18.063  0.00  0.00    +0.000 A 
ATOM     19  N   UNL     1      11.177  17.011  16.948  0.00  0.00    +0.000 NA
ATOM     20  C   UNL     1      10.986  15.656  16.914  0.00  0.00    +0.000 A 
ENDBRANCH   5  15
BRANCH   2  21
ATOM     21  S   UNL     1       8.278  10.224  18.338  0.00  0.00    +0.000 S 
BRANCH  21  22
ATOM     22  C   UNL     1       8.306   8.739  17.215  0.00  0.00    +0.000 C 
BRANCH  22  23
ATOM     23  C   UNL     1       7.622   7.474  17.845  0.00  0.00    +0.000 A 
ATOM     24  C   UNL     1       8.259   6.912  18.893  0.00  0.00    +0.000 A 
ATOM     25  C   UNL     1       7.828   5.565  19.320  0.00  0.00    +0.000 A 
ATOM     26  O   UNL     1       7.740   5.197  20.480  0.00  0.00    +0.000 OA
ATOM     27  O   UNL     1       7.725   4.769  18.201  0.00  0.00    +0.000 OA
ATOM     28  C   UNL     1       6.573   5.256  17.562  0.00  0.00    +0.000 A 
ATOM     29  C   UNL     1       5.607   4.259  17.329  0.00  0.00    +0.000 A 
ATOM     30  C   UNL     1       4.278   4.613  17.207  0.00  0.00    +0.000 A 
ATOM     31  C   UNL     1       3.263   3.503  17.102  0.00  0.00    +0.000 C 
ATOM     32  C   UNL     1       3.973   5.984  17.331  0.00  0.00    +0.000 A 
ATOM     33  C   UNL     1       5.015   7.001  17.448  0.00  0.00    +0.000 A 
ATOM     34  C   UNL     1       6.372   6.660  17.486  0.00  0.00    +0.000 A 
ENDBRANCH  22  23
ENDBRANCH  21  22
ENDBRANCH   2  21
TORSDOF 7
ENDMDL
MODEL 9
REMARK VINA RESULT:      -7.7      2.842      5.132
REMARK  Name = 
REMARK  9 active torsions:
REMARK  status: ('A' for Active; 'I' for Inactive)
REMARK    1  A    between atoms: C_1  and  C_2
REMARK    2  A    between atoms: C_2  and  O_3
REMARK    3  A    between atoms: O_3  and  C_4
REMARK    4  A    between atoms: C_7  and  N_8
REMARK    5  A    between atoms: C_9  and  S_10
REMARK    6  A    between atoms: S_10  and  C_11
REMARK    7  A    between atoms: C_11  and  C_12
REMARK    8  A    between atoms: C_19  and  C_20
REMARK    9  A    between atoms: C_26  and  C_27
REMARK                            x       y       z     vdW  Elec       q    Type
REMARK                         _______ _______ _______ _____ _____    ______ ____
ROOT
ATOM      1  N   UNL     1      -1.406  11.152  19.342  0.00  0.00    +0.000 N 
ATOM      2  C   UNL     1      -0.594  10.224  18.633  0.00  0.00    +0.000 A 
ATOM      3  N   UNL     1      -1.318   9.777  17.614  0.00  0.00    +0.000 NA
ATOM      4  N   UNL     1      -2.582  10.379  17.647  0.00  0.00    +0.000 NA
ATOM      5  C   UNL     1      -2.672  11.193  18.694  0.00  0.00    +0.000 A 
ENDROOT
BRANCH   1   9
ATOM      6  C   UNL     1      -0.757  13.722  22.613  0.00  0.00    +0.000 A 
ATOM      7  C   UNL     1      -0.567  14.160  21.305  0.00  0.00    +0.000 A 
ATOM      8  C   UNL     1      -0.659  13.269  20.244  0.00  0.00    +0.000 A 
ATOM      9  C   UNL     1      -1.056  11.949  20.465  0.00  0.00    +0.000 A 
ATOM     10  C   UNL     1      -1.242  11.489  21.770  0.00  0.00    +0.000 A 
ATOM     11  C   UNL     1      -1.070  12.378  22.841  0.00  0.00    +0.000 A 
BRANCH   6  12
ATOM     12  O   UNL     1      -0.664  14.529  23.719  0.00  0.00    +0.000 OA
BRANCH  12  14
ATOM     13  C   UNL     1      -1.856  15.314  25.671  0.00  0.00    +0.000 C 
ATOM     14  C   UNL     1      -1.913  15.056  24.182  0.00  0.00    +0.000 C 
ENDBRANCH  12  14
ENDBRANCH   6  12
ENDBRANCH   1   9
BRANCH   5  15
ATOM     15  C   UNL     1      -3.900  12.019  19.074  0.00  0.00    +0.000 A 
ATOM     16  C   UNL     1      -4.071  12.527  20.378  0.00  0.00    +0.000 A 
ATOM     17  C   UNL     1      -5.294  13.112  20.776  0.00  0.00    +0.000 A 
ATOM     18  C   UNL     1      -6.317  13.219  19.861  0.00  0.00    +0.000 A 
ATOM     19  N   UNL     1      -6.165  12.848  18.578  0.00  0.00    +0.000 NA
ATOM     20  C   UNL     1      -4.972  12.283  18.213  0.00  0.00    +0.000 A 
ENDBRANCH   5  15
BRANCH   2  21
ATOM     21  S   UNL     1       1.096   9.844  19.047  0.00  0.00    +0.000 S 
BRANCH  21  22
ATOM     22  C   UNL     1       2.062   9.033  17.677  0.00  0.00    +0.000 C 
BRANCH  22  23
ATOM     23  C   UNL     1       2.685   7.653  18.092  0.00  0.00    +0.000 A 
ATOM     24  C   UNL     1       3.877   7.345  17.537  0.00  0.00    +0.000 A 
ATOM     25  C   UNL     1       4.352   5.951  17.652  0.00  0.00    +0.000 A 
ATOM     26  O   UNL     1       5.510   5.625  17.856  0.00  0.00    +0.000 OA
ATOM     27  O   UNL     1       3.313   5.112  17.316  0.00  0.00    +0.000 OA
ATOM     28  C   UNL     1       2.443   5.216  18.413  0.00  0.00    +0.000 A 
ATOM     29  C   UNL     1       2.147   3.973  19.004  0.00  0.00    +0.000 A 
ATOM     30  C   UNL     1       1.765   3.921  20.330  0.00  0.00    +0.000 A 
ATOM     31  C   UNL     1       1.597   2.562  20.959  0.00  0.00    +0.000 C 
ATOM     32  C   UNL     1       1.703   5.150  21.019  0.00  0.00    +0.000 A 
ATOM     33  C   UNL     1       1.897   6.429  20.341  0.00  0.00    +0.000 A 
ATOM     34  C   UNL     1       2.199   6.497  18.976  0.00  0.00    +0.000 A 
ENDBRANCH  22  23
ENDBRANCH  21  22
ENDBRANCH   2  21
TORSDOF 7
ENDMDL
