MODEL 1
REMARK VINA RESULT:      -8.5      0.000      0.000
REMARK  Name = 
REMARK  9 active torsions:
REMARK  status: ('A' for Active; 'I' for Inactive)
REMARK    1  A    between atoms: C_1  and  C_2
REMARK    2  A    between atoms: C_2  and  C_3
REMARK    3  A    between atoms: C_3  and  C_4
REMARK    4  A    between atoms: C_4  and  C_5
REMARK    5  A    between atoms: C_5  and  C_6
REMARK    6  A    between atoms: C_8  and  O_9
REMARK    7  A    between atoms: C_14  and  C_15
REMARK    8  A    between atoms: C_14  and  C_16
REMARK    9  A    between atoms: C_20  and  C_21
REMARK                            x       y       z     vdW  Elec       q    Type
REMARK                         _______ _______ _______ _____ _____    ______ ____
ROOT
ATOM      1  C   UNL     1       5.753   4.872  15.201  0.00  0.00    +0.000 A 
ATOM      2  C   UNL     1       5.351   6.157  15.555  0.00  0.00    +0.000 A 
ATOM      3  C   UNL     1       4.529   6.368  16.675  0.00  0.00    +0.000 A 
ATOM      4  C   UNL     1       4.071   5.308  17.492  0.00  0.00    +0.000 A 
ATOM      5  C   UNL     1       4.495   4.025  17.110  0.00  0.00    +0.000 A 
ATOM      6  C   UNL     1       5.322   3.812  15.995  0.00  0.00    +0.000 A 
ATOM      7  O   UNL     1       4.180   2.872  17.763  0.00  0.00    +0.000 OA
ATOM      8  C   UNL     1       3.263   2.897  18.869  0.00  0.00    +0.000 C 
ATOM      9  C   UNL     1       2.037   2.093  18.399  0.00  0.00    +0.000 C 
ATOM     10  C   UNL     1       3.996   2.123  19.980  0.00  0.00    +0.000 C 
ATOM     11  C   UNL     1       2.818   4.265  19.373  0.00  0.00    +0.000 A 
ATOM     12  C   UNL     1       1.986   4.353  20.514  0.00  0.00    +0.000 A 
ATOM     13  C   UNL     1       1.536   5.580  20.993  0.00  0.00    +0.000 A 
ATOM     14  C   UNL     1       1.907   6.745  20.338  0.00  0.00    +0.000 A 
ATOM     15  C   UNL     1       1.435   8.089  20.806  0.00  0.00    +0.000 C 
ATOM     16  C   UNL     1       2.735   6.657  19.206  0.00  0.00    +0.000 A 
ATOM     17  C   UNL     1       3.208   5.434  18.691  0.00  0.00    +0.000 A 
ENDROOT
BRANCH   3  18
ATOM     18  O   UNL     1       4.192   7.672  16.939  0.00  0.00    +0.000 OA
ATOM     19  H   UNL     1       4.116   8.164  16.106  0.00  0.00    +0.000 HD
ENDBRANCH   3  18
BRANCH   1  20
ATOM     20  C   UNL     1       6.643   4.641  14.008  0.00  0.00    +0.000 C 
BRANCH  20  21
ATOM     21  C   UNL     1       6.157   3.489  13.126  0.00  0.00    +0.000 C 
BRANCH  21  22
ATOM     22  C   UNL     1       5.266   4.003  11.995  0.00  0.00    +0.000 C 
BRANCH  22  24
ATOM     23  C   UNL     1       3.322   3.393  10.520  0.00  0.00    +0.000 C 
ATOM     24  C   UNL     1       4.483   2.864  11.345  0.00  0.00    +0.000 C 
ENDBRANCH  22  24
ENDBRANCH  21  22
ENDBRANCH  20  21
ENDBRANCH   1  20
TORSDOF 5
ENDMDL
MODEL 2
REMARK VINA RESULT:      -8.0      0.939      1.134
REMARK  Name = 
REMARK  9 active torsions:
REMARK  status: ('A' for Active; 'I' for Inactive)
REMARK    1  A    between atoms: C_1  and  C_2
REMARK    2  A    between atoms: C_2  and  C_3
REMARK    3  A    between atoms: C_3  and  C_4
REMARK    4  A    between atoms: C_4  and  C_5
REMARK    5  A    between atoms: C_5  and  C_6
REMARK    6  A    between atoms: C_8  and  O_9
REMARK    7  A    between atoms: C_14  and  C_15
REMARK    8  A    between atoms: C_14  and  C_16
REMARK    9  A    between atoms: C_20  and  C_21
REMARK                            x       y       z     vdW  Elec       q    Type
REMARK                         _______ _______ _______ _____ _____    ______ ____
ROOT
ATOM      1  C   UNL     1       5.471   4.387  15.575  0.00  0.00    +0.000 A 
ATOM      2  C   UNL     1       5.218   5.743  15.761  0.00  0.00    +0.000 A 
ATOM      3  C   UNL     1       4.396   6.182  16.814  0.00  0.00    +0.000 A 
ATOM      4  C   UNL     1       3.790   5.289  17.728  0.00  0.00    +0.000 A 
ATOM      5  C   UNL     1       4.067   3.929  17.515  0.00  0.00    +0.000 A 
ATOM      6  C   UNL     1       4.893   3.488  16.468  0.00  0.00    +0.000 A 
ATOM      7  O   UNL     1       3.596   2.907  18.284  0.00  0.00    +0.000 OA
ATOM      8  C   UNL     1       2.659   3.171  19.339  0.00  0.00    +0.000 C 
ATOM      9  C   UNL     1       1.359   2.466  18.915  0.00  0.00    +0.000 C 
ATOM     10  C   UNL     1       3.262   2.456  20.563  0.00  0.00    +0.000 C 
ATOM     11  C   UNL     1       2.369   4.632  19.663  0.00  0.00    +0.000 A 
ATOM     12  C   UNL     1       1.522   4.953  20.749  0.00  0.00    +0.000 A 
ATOM     13  C   UNL     1       1.210   6.273  21.064  0.00  0.00    +0.000 A 
ATOM     14  C   UNL     1       1.738   7.299  20.295  0.00  0.00    +0.000 A 
ATOM     15  C   UNL     1       1.419   8.736  20.584  0.00  0.00    +0.000 C 
ATOM     16  C   UNL     1       2.580   6.981  19.217  0.00  0.00    +0.000 A 
ATOM     17  C   UNL     1       2.916   5.658  18.867  0.00  0.00    +0.000 A 
ENDROOT
BRANCH   3  18
ATOM     18  O   UNL     1       4.212   7.539  16.910  0.00  0.00    +0.000 OA
ATOM     19  H   UNL     1       3.477   7.810  16.338  0.00  0.00    +0.000 HD
ENDBRANCH   3  18
BRANCH   1  20
ATOM     20  C   UNL     1       6.360   3.913  14.456  0.00  0.00    +0.000 C 
BRANCH  20  21
ATOM     21  C   UNL     1       5.679   3.999  13.088  0.00  0.00    +0.000 C 
BRANCH  21  22
ATOM     22  C   UNL     1       6.453   3.200  12.040  0.00  0.00    +0.000 C 
BRANCH  22  24
ATOM     23  C   UNL     1       6.507   0.908  11.004  0.00  0.00    +0.000 C 
ATOM     24  C   UNL     1       5.621   2.035  11.505  0.00  0.00    +0.000 C 
ENDBRANCH  22  24
ENDBRANCH  21  22
ENDBRANCH  20  21
ENDBRANCH   1  20
TORSDOF 5
ENDMDL
MODEL 3
REMARK VINA RESULT:      -7.4      1.148      1.561
REMARK  Name = 
REMARK  9 active torsions:
REMARK  status: ('A' for Active; 'I' for Inactive)
REMARK    1  A    between atoms: C_1  and  C_2
REMARK    2  A    between atoms: C_2  and  C_3
REMARK    3  A    between atoms: C_3  and  C_4
REMARK    4  A    between atoms: C_4  and  C_5
REMARK    5  A    between atoms: C_5  and  C_6
REMARK    6  A    between atoms: C_8  and  O_9
REMARK    7  A    between atoms: C_14  and  C_15
REMARK    8  A    between atoms: C_14  and  C_16
REMARK    9  A    between atoms: C_20  and  C_21
REMARK                            x       y       z     vdW  Elec       q    Type
REMARK                         _______ _______ _______ _____ _____    ______ ____
ROOT
ATOM      1  C   UNL     1       5.710   4.644  15.673  0.00  0.00    +0.000 A 
ATOM      2  C   UNL     1       5.420   5.986  15.902  0.00  0.00    +0.000 A 
ATOM      3  C   UNL     1       4.536   6.366  16.926  0.00  0.00    +0.000 A 
ATOM      4  C   UNL     1       3.901   5.423  17.769  0.00  0.00    +0.000 A 
ATOM      5  C   UNL     1       4.216   4.079  17.515  0.00  0.00    +0.000 A 
ATOM      6  C   UNL     1       5.104   3.698  16.496  0.00  0.00    +0.000 A 
ATOM      7  O   UNL     1       3.726   3.017  18.215  0.00  0.00    +0.000 OA
ATOM      8  C   UNL     1       2.730   3.219  19.230  0.00  0.00    +0.000 C 
ATOM      9  C   UNL     1       1.468   2.510  18.707  0.00  0.00    +0.000 C 
ATOM     10  C   UNL     1       3.282   2.463  20.452  0.00  0.00    +0.000 C 
ATOM     11  C   UNL     1       2.394   4.660  19.597  0.00  0.00    +0.000 A 
ATOM     12  C   UNL     1       1.486   4.920  20.650  0.00  0.00    +0.000 A 
ATOM     13  C   UNL     1       1.131   6.218  21.002  0.00  0.00    +0.000 A 
ATOM     14  C   UNL     1       1.678   7.286  20.305  0.00  0.00    +0.000 A 
ATOM     15  C   UNL     1       1.316   8.703  20.636  0.00  0.00    +0.000 C 
ATOM     16  C   UNL     1       2.582   7.029  19.261  0.00  0.00    +0.000 A 
ATOM     17  C   UNL     1       2.962   5.728  18.875  0.00  0.00    +0.000 A 
ENDROOT
BRANCH   3  18
ATOM     18  O   UNL     1       4.320   7.713  17.069  0.00  0.00    +0.000 OA
ATOM     19  H   UNL     1       3.367   7.894  17.058  0.00  0.00    +0.000 HD
ENDBRANCH   3  18
BRANCH   1  20
ATOM     20  C   UNL     1       6.666   4.234  14.583  0.00  0.00    +0.000 C 
BRANCH  20  21
ATOM     21  C   UNL     1       5.947   3.716  13.336  0.00  0.00    +0.000 C 
BRANCH  21  22
ATOM     22  C   UNL     1       6.729   4.064  12.070  0.00  0.00    +0.000 C 
BRANCH  22  24
ATOM     23  C   UNL     1       7.857   6.244  11.522  0.00  0.00    +0.000 C 
ATOM     24  C   UNL     1       7.902   4.992  12.379  0.00  0.00    +0.000 C 
ENDBRANCH  22  24
ENDBRANCH  21  22
ENDBRANCH  20  21
ENDBRANCH   1  20
TORSDOF 5
ENDMDL
MODEL 4
REMARK VINA RESULT:      -7.2      1.731      6.779
REMARK  Name = 
REMARK  9 active torsions:
REMARK  status: ('A' for Active; 'I' for Inactive)
REMARK    1  A    between atoms: C_1  and  C_2
REMARK    2  A    between atoms: C_2  and  C_3
REMARK    3  A    between atoms: C_3  and  C_4
REMARK    4  A    between atoms: C_4  and  C_5
REMARK    5  A    between atoms: C_5  and  C_6
REMARK    6  A    between atoms: C_8  and  O_9
REMARK    7  A    between atoms: C_14  and  C_15
REMARK    8  A    between atoms: C_14  and  C_16
REMARK    9  A    between atoms: C_20  and  C_21
REMARK                            x       y       z     vdW  Elec       q    Type
REMARK                         _______ _______ _______ _____ _____    ______ ____
ROOT
ATOM      1  C   UNL     1       2.241   4.681  19.420  0.00  0.00    +0.000 A 
ATOM      2  C   UNL     1       1.925   4.033  18.229  0.00  0.00    +0.000 A 
ATOM      3  C   UNL     1       2.843   3.998  17.166  0.00  0.00    +0.000 A 
ATOM      4  C   UNL     1       4.117   4.608  17.242  0.00  0.00    +0.000 A 
ATOM      5  C   UNL     1       4.406   5.250  18.456  0.00  0.00    +0.000 A 
ATOM      6  C   UNL     1       3.493   5.281  19.523  0.00  0.00    +0.000 A 
ATOM      7  O   UNL     1       5.577   5.887  18.743  0.00  0.00    +0.000 OA
ATOM      8  C   UNL     1       6.584   6.035  17.730  0.00  0.00    +0.000 C 
ATOM      9  C   UNL     1       6.683   7.549  17.473  0.00  0.00    +0.000 C 
ATOM     10  C   UNL     1       7.874   5.538  18.410  0.00  0.00    +0.000 C 
ATOM     11  C   UNL     1       6.358   5.303  16.412  0.00  0.00    +0.000 A 
ATOM     12  C   UNL     1       7.357   5.341  15.411  0.00  0.00    +0.000 A 
ATOM     13  C   UNL     1       7.181   4.709  14.183  0.00  0.00    +0.000 A 
ATOM     14  C   UNL     1       5.999   4.028  13.931  0.00  0.00    +0.000 A 
ATOM     15  C   UNL     1       5.756   3.344  12.618  0.00  0.00    +0.000 C 
ATOM     16  C   UNL     1       5.008   3.989  14.925  0.00  0.00    +0.000 A 
ATOM     17  C   UNL     1       5.149   4.618  16.178  0.00  0.00    +0.000 A 
ENDROOT
BRANCH   3  18
ATOM     18  O   UNL     1       2.434   3.332  16.038  0.00  0.00    +0.000 OA
ATOM     19  H   UNL     1       1.847   2.600  16.285  0.00  0.00    +0.000 HD
ENDBRANCH   3  18
BRANCH   1  20
ATOM     20  C   UNL     1       1.264   4.712  20.567  0.00  0.00    +0.000 C 
BRANCH  20  21
ATOM     21  C   UNL     1       1.126   3.353  21.258  0.00  0.00    +0.000 C 
BRANCH  21  22
ATOM     22  C   UNL     1       2.485   2.841  21.736  0.00  0.00    +0.000 C 
BRANCH  22  24
ATOM     23  C   UNL     1       4.494   2.001  20.476  0.00  0.00    +0.000 C 
ATOM     24  C   UNL     1       3.030   1.761  20.803  0.00  0.00    +0.000 C 
ENDBRANCH  22  24
ENDBRANCH  21  22
ENDBRANCH  20  21
ENDBRANCH   1  20
TORSDOF 5
ENDMDL
MODEL 5
REMARK VINA RESULT:      -7.1      2.316      7.654
REMARK  Name = 
REMARK  9 active torsions:
REMARK  status: ('A' for Active; 'I' for Inactive)
REMARK    1  A    between atoms: C_1  and  C_2
REMARK    2  A    between atoms: C_2  and  C_3
REMARK    3  A    between atoms: C_3  and  C_4
REMARK    4  A    between atoms: C_4  and  C_5
REMARK    5  A    between atoms: C_5  and  C_6
REMARK    6  A    between atoms: C_8  and  O_9
REMARK    7  A    between atoms: C_14  and  C_15
REMARK    8  A    between atoms: C_14  and  C_16
REMARK    9  A    between atoms: C_20  and  C_21
REMARK                            x       y       z     vdW  Elec       q    Type
REMARK                         _______ _______ _______ _____ _____    ______ ____
ROOT
ATOM      1  C   UNL     1       1.114   8.573  20.552  0.00  0.00    +0.000 A 
ATOM      2  C   UNL     1       1.926   8.806  19.446  0.00  0.00    +0.000 A 
ATOM      3  C   UNL     1       2.541   7.739  18.769  0.00  0.00    +0.000 A 
ATOM      4  C   UNL     1       2.374   6.391  19.165  0.00  0.00    +0.000 A 
ATOM      5  C   UNL     1       1.548   6.189  20.282  0.00  0.00    +0.000 A 
ATOM      6  C   UNL     1       0.927   7.253  20.956  0.00  0.00    +0.000 A 
ATOM      7  O   UNL     1       1.246   4.974  20.819  0.00  0.00    +0.000 OA
ATOM      8  C   UNL     1       1.873   3.785  20.314  0.00  0.00    +0.000 C 
ATOM      9  C   UNL     1       2.735   3.255  21.473  0.00  0.00    +0.000 C 
ATOM     10  C   UNL     1       0.699   2.822  20.058  0.00  0.00    +0.000 C 
ATOM     11  C   UNL     1       2.729   3.930  19.061  0.00  0.00    +0.000 A 
ATOM     12  C   UNL     1       3.300   2.780  18.467  0.00  0.00    +0.000 A 
ATOM     13  C   UNL     1       4.109   2.869  17.338  0.00  0.00    +0.000 A 
ATOM     14  C   UNL     1       4.367   4.113  16.781  0.00  0.00    +0.000 A 
ATOM     15  C   UNL     1       5.244   4.263  15.574  0.00  0.00    +0.000 C 
ATOM     16  C   UNL     1       3.798   5.255  17.369  0.00  0.00    +0.000 A 
ATOM     17  C   UNL     1       2.977   5.204  18.513  0.00  0.00    +0.000 A 
ENDROOT
BRANCH   3  18
ATOM     18  O   UNL     1       3.319   8.077  17.691  0.00  0.00    +0.000 OA
ATOM     19  H   UNL     1       4.216   8.295  17.990  0.00  0.00    +0.000 HD
ENDBRANCH   3  18
BRANCH   1  20
ATOM     20  C   UNL     1       0.443   9.713  21.273  0.00  0.00    +0.000 C 
BRANCH  20  21
ATOM     21  C   UNL     1      -0.216   9.273  22.582  0.00  0.00    +0.000 C 
BRANCH  21  22
ATOM     22  C   UNL     1      -1.005  10.421  23.211  0.00  0.00    +0.000 C 
BRANCH  22  24
ATOM     23  C   UNL     1      -1.092  12.920  22.932  0.00  0.00    +0.000 C 
ATOM     24  C   UNL     1      -1.180  11.578  22.228  0.00  0.00    +0.000 C 
ENDBRANCH  22  24
ENDBRANCH  21  22
ENDBRANCH  20  21
ENDBRANCH   1  20
TORSDOF 5
ENDMDL
MODEL 6
REMARK VINA RESULT:      -7.0      2.100      7.498
REMARK  Name = 
REMARK  9 active torsions:
REMARK  status: ('A' for Active; 'I' for Inactive)
REMARK    1  A    between atoms: C_1  and  C_2
REMARK    2  A    between atoms: C_2  and  C_3
REMARK    3  A    between atoms: C_3  and  C_4
REMARK    4  A    between atoms: C_4  and  C_5
REMARK    5  A    between atoms: C_5  and  C_6
REMARK    6  A    between atoms: C_8  and  O_9
REMARK    7  A    between atoms: C_14  and  C_15
REMARK    8  A    between atoms: C_14  and  C_16
REMARK    9  A    between atoms: C_20  and  C_21
REMARK                            x       y       z     vdW  Elec       q    Type
REMARK                         _______ _______ _______ _____ _____    ______ ____
ROOT
ATOM      1  C   UNL     1       1.130   7.649  20.796  0.00  0.00    +0.000 A 
ATOM      2  C   UNL     1       1.836   8.275  19.772  0.00  0.00    +0.000 A 
ATOM      3  C   UNL     1       2.612   7.525  18.873  0.00  0.00    +0.000 A 
ATOM      4  C   UNL     1       2.721   6.117  18.955  0.00  0.00    +0.000 A 
ATOM      5  C   UNL     1       1.996   5.516  19.996  0.00  0.00    +0.000 A 
ATOM      6  C   UNL     1       1.214   6.263  20.892  0.00  0.00    +0.000 A 
ATOM      7  O   UNL     1       1.952   4.177  20.245  0.00  0.00    +0.000 OA
ATOM      8  C   UNL     1       2.771   3.274  19.485  0.00  0.00    +0.000 C 
ATOM      9  C   UNL     1       3.767   2.678  20.496  0.00  0.00    +0.000 C 
ATOM     10  C   UNL     1       1.791   2.183  19.016  0.00  0.00    +0.000 C 
ATOM     11  C   UNL     1       3.531   3.857  18.298  0.00  0.00    +0.000 A 
ATOM     12  C   UNL     1       4.284   3.000  17.461  0.00  0.00    +0.000 A 
ATOM     13  C   UNL     1       5.013   3.493  16.383  0.00  0.00    +0.000 A 
ATOM     14  C   UNL     1       5.006   4.855  16.122  0.00  0.00    +0.000 A 
ATOM     15  C   UNL     1       5.788   5.436  14.981  0.00  0.00    +0.000 C 
ATOM     16  C   UNL     1       4.257   5.706  16.951  0.00  0.00    +0.000 A 
ATOM     17  C   UNL     1       3.509   5.244  18.053  0.00  0.00    +0.000 A 
ENDROOT
BRANCH   3  18
ATOM     18  O   UNL     1       3.266   8.238  17.900  0.00  0.00    +0.000 OA
ATOM     19  H   UNL     1       3.273   7.731  17.073  0.00  0.00    +0.000 HD
ENDBRANCH   3  18
BRANCH   1  20
ATOM     20  C   UNL     1       0.286   8.448  21.755  0.00  0.00    +0.000 C 
BRANCH  20  21
ATOM     21  C   UNL     1       0.723   9.912  21.843  0.00  0.00    +0.000 C 
BRANCH  21  22
ATOM     22  C   UNL     1      -0.476  10.850  21.714  0.00  0.00    +0.000 C 
BRANCH  22  24
ATOM     23  C   UNL     1      -2.240  12.132  22.968  0.00  0.00    +0.000 C 
ATOM     24  C   UNL     1      -1.149  11.081  23.066  0.00  0.00    +0.000 C 
ENDBRANCH  22  24
ENDBRANCH  21  22
ENDBRANCH  20  21
ENDBRANCH   1  20
TORSDOF 5
ENDMDL
MODEL 7
REMARK VINA RESULT:      -6.9      2.063      6.778
REMARK  Name = 
REMARK  9 active torsions:
REMARK  status: ('A' for Active; 'I' for Inactive)
REMARK    1  A    between atoms: C_1  and  C_2
REMARK    2  A    between atoms: C_2  and  C_3
REMARK    3  A    between atoms: C_3  and  C_4
REMARK    4  A    between atoms: C_4  and  C_5
REMARK    5  A    between atoms: C_5  and  C_6
REMARK    6  A    between atoms: C_8  and  O_9
REMARK    7  A    between atoms: C_14  and  C_15
REMARK    8  A    between atoms: C_14  and  C_16
REMARK    9  A    between atoms: C_20  and  C_21
REMARK                            x       y       z     vdW  Elec       q    Type
REMARK                         _______ _______ _______ _____ _____    ______ ____
ROOT
ATOM      1  C   UNL     1       1.171   7.807  20.783  0.00  0.00    +0.000 A 
ATOM      2  C   UNL     1       1.898   8.362  19.734  0.00  0.00    +0.000 A 
ATOM      3  C   UNL     1       2.634   7.545  18.858  0.00  0.00    +0.000 A 
ATOM      4  C   UNL     1       2.677   6.138  18.990  0.00  0.00    +0.000 A 
ATOM      5  C   UNL     1       1.933   5.608  20.055  0.00  0.00    +0.000 A 
ATOM      6  C   UNL     1       1.192   6.422  20.928  0.00  0.00    +0.000 A 
ATOM      7  O   UNL     1       1.829   4.282  20.352  0.00  0.00    +0.000 OA
ATOM      8  C   UNL     1       2.600   3.316  19.620  0.00  0.00    +0.000 C 
ATOM      9  C   UNL     1       3.574   2.711  20.646  0.00  0.00    +0.000 C 
ATOM     10  C   UNL     1       1.568   2.256  19.196  0.00  0.00    +0.000 C 
ATOM     11  C   UNL     1       3.378   3.821  18.410  0.00  0.00    +0.000 A 
ATOM     12  C   UNL     1       4.085   2.901  17.600  0.00  0.00    +0.000 A 
ATOM     13  C   UNL     1       4.828   3.321  16.501  0.00  0.00    +0.000 A 
ATOM     14  C   UNL     1       4.882   4.672  16.191  0.00  0.00    +0.000 A 
ATOM     15  C   UNL     1       5.682   5.175  15.026  0.00  0.00    +0.000 C 
ATOM     16  C   UNL     1       4.179   5.585  16.994  0.00  0.00    +0.000 A 
ATOM     17  C   UNL     1       3.418   5.198  18.115  0.00  0.00    +0.000 A 
ENDROOT
BRANCH   3  18
ATOM     18  O   UNL     1       3.313   8.192  17.857  0.00  0.00    +0.000 OA
ATOM     19  H   UNL     1       4.265   8.176  18.045  0.00  0.00    +0.000 HD
ENDBRANCH   3  18
BRANCH   1  20
ATOM     20  C   UNL     1       0.373   8.677  21.718  0.00  0.00    +0.000 C 
BRANCH  20  21
ATOM     21  C   UNL     1       0.532  10.168  21.412  0.00  0.00    +0.000 C 
BRANCH  21  22
ATOM     22  C   UNL     1      -0.696  10.712  20.681  0.00  0.00    +0.000 C 
BRANCH  22  24
ATOM     23  C   UNL     1      -1.088  10.350  18.223  0.00  0.00    +0.000 C 
ATOM     24  C   UNL     1      -0.343  11.165  19.266  0.00  0.00    +0.000 C 
ENDBRANCH  22  24
ENDBRANCH  21  22
ENDBRANCH  20  21
ENDBRANCH   1  20
TORSDOF 5
ENDMDL
MODEL 8
REMARK VINA RESULT:      -6.7      2.347      6.738
REMARK  Name = 
REMARK  9 active torsions:
REMARK  status: ('A' for Active; 'I' for Inactive)
REMARK    1  A    between atoms: C_1  and  C_2
REMARK    2  A    between atoms: C_2  and  C_3
REMARK    3  A    between atoms: C_3  and  C_4
REMARK    4  A    between atoms: C_4  and  C_5
REMARK    5  A    between atoms: C_5  and  C_6
REMARK    6  A    between atoms: C_8  and  O_9
REMARK    7  A    between atoms: C_14  and  C_15
REMARK    8  A    between atoms: C_14  and  C_16
REMARK    9  A    between atoms: C_20  and  C_21
REMARK                            x       y       z     vdW  Elec       q    Type
REMARK                         _______ _______ _______ _____ _____    ______ ____
ROOT
ATOM      1  C   UNL     1       1.183   8.823  20.250  0.00  0.00    +0.000 A 
ATOM      2  C   UNL     1       2.007   8.959  19.136  0.00  0.00    +0.000 A 
ATOM      3  C   UNL     1       2.603   7.834  18.542  0.00  0.00    +0.000 A 
ATOM      4  C   UNL     1       2.406   6.522  19.033  0.00  0.00    +0.000 A 
ATOM      5  C   UNL     1       1.570   6.417  20.156  0.00  0.00    +0.000 A 
ATOM      6  C   UNL     1       0.967   7.540  20.747  0.00  0.00    +0.000 A 
ATOM      7  O   UNL     1       1.239   5.250  20.776  0.00  0.00    +0.000 OA
ATOM      8  C   UNL     1       1.845   4.016  20.362  0.00  0.00    +0.000 C 
ATOM      9  C   UNL     1       2.689   3.553  21.563  0.00  0.00    +0.000 C 
ATOM     10  C   UNL     1       0.652   3.061  20.167  0.00  0.00    +0.000 C 
ATOM     11  C   UNL     1       2.711   4.053  19.108  0.00  0.00    +0.000 A 
ATOM     12  C   UNL     1       3.262   2.852  18.603  0.00  0.00    +0.000 A 
ATOM     13  C   UNL     1       4.079   2.843  17.477  0.00  0.00    +0.000 A 
ATOM     14  C   UNL     1       4.365   4.038  16.833  0.00  0.00    +0.000 A 
ATOM     15  C   UNL     1       5.253   4.083  15.625  0.00  0.00    +0.000 C 
ATOM     16  C   UNL     1       3.817   5.231  17.334  0.00  0.00    +0.000 A 
ATOM     17  C   UNL     1       2.988   5.279  18.472  0.00  0.00    +0.000 A 
ENDROOT
BRANCH   3  18
ATOM     18  O   UNL     1       3.395   8.077  17.448  0.00  0.00    +0.000 OA
ATOM     19  H   UNL     1       3.287   8.999  17.165  0.00  0.00    +0.000 HD
ENDBRANCH   3  18
BRANCH   1  20
ATOM     20  C   UNL     1       0.532  10.025  20.883  0.00  0.00    +0.000 C 
BRANCH  20  21
ATOM     21  C   UNL     1      -0.800  10.387  20.223  0.00  0.00    +0.000 C 
BRANCH  21  22
ATOM     22  C   UNL     1      -0.627  11.546  19.241  0.00  0.00    +0.000 C 
BRANCH  22  24
ATOM     23  C   UNL     1      -1.579  10.078  17.434  0.00  0.00    +0.000 C 
ATOM     24  C   UNL     1      -1.623  11.448  18.087  0.00  0.00    +0.000 C 
ENDBRANCH  22  24
ENDBRANCH  21  22
ENDBRANCH  20  21
ENDBRANCH   1  20
TORSDOF 5
ENDMDL
MODEL 9
REMARK VINA RESULT:      -6.7      1.764      7.089
REMARK  Name = 
REMARK  9 active torsions:
REMARK  status: ('A' for Active; 'I' for Inactive)
REMARK    1  A    between atoms: C_1  and  C_2
REMARK    2  A    between atoms: C_2  and  C_3
REMARK    3  A    between atoms: C_3  and  C_4
REMARK    4  A    between atoms: C_4  and  C_5
REMARK    5  A    between atoms: C_5  and  C_6
REMARK    6  A    between atoms: C_8  and  O_9
REMARK    7  A    between atoms: C_14  and  C_15
REMARK    8  A    between atoms: C_14  and  C_16
REMARK    9  A    between atoms: C_20  and  C_21
REMARK                            x       y       z     vdW  Elec       q    Type
REMARK                         _______ _______ _______ _____ _____    ______ ____
ROOT
ATOM      1  C   UNL     1       2.577   4.841  19.697  0.00  0.00    +0.000 A 
ATOM      2  C   UNL     1       2.121   4.279  18.508  0.00  0.00    +0.000 A 
ATOM      3  C   UNL     1       2.967   4.178  17.391  0.00  0.00    +0.000 A 
ATOM      4  C   UNL     1       4.306   4.633  17.409  0.00  0.00    +0.000 A 
ATOM      5  C   UNL     1       4.737   5.193  18.622  0.00  0.00    +0.000 A 
ATOM      6  C   UNL     1       3.895   5.289  19.742  0.00  0.00    +0.000 A 
ATOM      7  O   UNL     1       5.988   5.680  18.857  0.00  0.00    +0.000 OA
ATOM      8  C   UNL     1       6.947   5.748  17.791  0.00  0.00    +0.000 C 
ATOM      9  C   UNL     1       7.208   7.249  17.574  0.00  0.00    +0.000 C 
ATOM     10  C   UNL     1       8.206   5.082  18.377  0.00  0.00    +0.000 C 
ATOM     11  C   UNL     1       6.563   5.097  16.467  0.00  0.00    +0.000 A 
ATOM     12  C   UNL     1       7.502   5.056  15.410  0.00  0.00    +0.000 A 
ATOM     13  C   UNL     1       7.185   4.495  14.176  0.00  0.00    +0.000 A 
ATOM     14  C   UNL     1       5.919   3.964  13.975  0.00  0.00    +0.000 A 
ATOM     15  C   UNL     1       5.525   3.362  12.659  0.00  0.00    +0.000 C 
ATOM     16  C   UNL     1       4.988   4.003  15.025  0.00  0.00    +0.000 A 
ATOM     17  C   UNL     1       5.272   4.565  16.286  0.00  0.00    +0.000 A 
ENDROOT
BRANCH   3  18
ATOM     18  O   UNL     1       2.421   3.606  16.270  0.00  0.00    +0.000 OA
ATOM     19  H   UNL     1       3.061   2.997  15.869  0.00  0.00    +0.000 HD
ENDBRANCH   3  18
BRANCH   1  20
ATOM     20  C   UNL     1       1.677   4.941  20.901  0.00  0.00    +0.000 C 
BRANCH  20  21
ATOM     21  C   UNL     1       0.878   6.246  20.930  0.00  0.00    +0.000 C 
BRANCH  21  22
ATOM     22  C   UNL     1       1.778   7.446  20.635  0.00  0.00    +0.000 C 
BRANCH  22  24
ATOM     23  C   UNL     1      -0.199   8.659  21.610  0.00  0.00    +0.000 C 
ATOM     24  C   UNL     1       0.988   8.753  20.667  0.00  0.00    +0.000 C 
ENDBRANCH  22  24
ENDBRANCH  21  22
ENDBRANCH  20  21
ENDBRANCH   1  20
TORSDOF 5
ENDMDL
