MODEL 1
REMARK VINA RESULT:      -8.2      0.000      0.000
REMARK  Name = 
REMARK  8 active torsions:
REMARK  status: ('A' for Active; 'I' for Inactive)
REMARK    1  A    between atoms: C_1  and  C_2
REMARK    2  A    between atoms: C_2  and  O_3
REMARK    3  A    between atoms: O_3  and  C_4
REMARK    4  A    between atoms: C_4  and  C_6
REMARK    5  A    between atoms: C_9  and  C_10
REMARK    6  A    between atoms: C_13  and  C_14
REMARK    7  A    between atoms: C_21  and  O_22
REMARK    8  A    between atoms: O_22  and  C_23
REMARK                            x       y       z     vdW  Elec       q    Type
REMARK                         _______ _______ _______ _____ _____    ______ ____
ROOT
ATOM      1  C   UNL     1       2.560   7.546  18.714  0.00  0.00    +0.000 A 
ATOM      2  C   UNL     1       2.146   7.274  20.008  0.00  0.00    +0.000 A 
ATOM      3  C   UNL     1       1.238   8.244  20.575  0.00  0.00    +0.000 A 
ATOM      4  C   UNL     1       0.879   9.317  19.746  0.00  0.00    +0.000 A 
ATOM      5  S   UNL     1       1.766   9.067  18.235  0.00  0.00    +0.000 S 
ENDROOT
BRANCH   4   6
ATOM      6  C   UNL     1      -0.253  10.278  19.978  0.00  0.00    +0.000 A 
ATOM      7  C   UNL     1      -1.075  10.348  18.902  0.00  0.00    +0.000 A 
ATOM      8  C   UNL     1      -2.106  11.402  18.857  0.00  0.00    +0.000 A 
ATOM      9  O   UNL     1      -3.254  11.240  18.499  0.00  0.00    +0.000 OA
ATOM     10  O   UNL     1      -1.503  12.603  19.146  0.00  0.00    +0.000 OA
ATOM     11  C   UNL     1      -1.280  12.493  20.515  0.00  0.00    +0.000 A 
ATOM     12  C   UNL     1      -1.890  13.522  21.256  0.00  0.00    +0.000 A 
ATOM     13  C   UNL     1      -2.177  13.382  22.601  0.00  0.00    +0.000 A 
ATOM     14  C   UNL     1      -1.825  12.159  23.178  0.00  0.00    +0.000 A 
ATOM     15  C   UNL     1      -1.092  11.137  22.415  0.00  0.00    +0.000 A 
ATOM     16  C   UNL     1      -0.742  11.292  21.055  0.00  0.00    +0.000 A 
BRANCH  13  17
ATOM     17  O   UNL     1      -2.793  14.497  23.070  0.00  0.00    +0.000 OA
ATOM     18  C   UNL     1      -4.115  14.608  23.550  0.00  0.00    +0.000 C 
ENDBRANCH  13  17
ENDBRANCH   4   6
BRANCH   1  22
ATOM     19  C   UNL     1       5.350   5.177  16.093  0.00  0.00    +0.000 A 
ATOM     20  C   UNL     1       5.355   6.576  16.113  0.00  0.00    +0.000 A 
ATOM     21  C   UNL     1       4.473   7.322  16.963  0.00  0.00    +0.000 A 
ATOM     22  C   UNL     1       3.526   6.714  17.832  0.00  0.00    +0.000 A 
ATOM     23  C   UNL     1       3.577   5.308  17.820  0.00  0.00    +0.000 A 
ATOM     24  C   UNL     1       4.462   4.553  16.970  0.00  0.00    +0.000 A 
BRANCH  19  25
ATOM     25  C   UNL     1       6.309   4.433  15.154  0.00  0.00    +0.000 C 
ATOM     26  O   UNL     1       7.528   4.568  15.217  0.00  0.00    +0.000 OA
BRANCH  25  27
ATOM     27  O   UNL     1       5.655   3.649  14.267  0.00  0.00    +0.000 OA
BRANCH  27  29
ATOM     28  C   UNL     1       5.132   3.199  11.878  0.00  0.00    +0.000 C 
ATOM     29  C   UNL     1       6.191   3.588  12.901  0.00  0.00    +0.000 C 
ENDBRANCH  27  29
ENDBRANCH  25  27
ENDBRANCH  19  25
ENDBRANCH   1  22
TORSDOF 6
ENDMDL
MODEL 2
REMARK VINA RESULT:      -7.9      0.729      1.096
REMARK  Name = 
REMARK  8 active torsions:
REMARK  status: ('A' for Active; 'I' for Inactive)
REMARK    1  A    between atoms: C_1  and  C_2
REMARK    2  A    between atoms: C_2  and  O_3
REMARK    3  A    between atoms: O_3  and  C_4
REMARK    4  A    between atoms: C_4  and  C_6
REMARK    5  A    between atoms: C_9  and  C_10
REMARK    6  A    between atoms: C_13  and  C_14
REMARK    7  A    between atoms: C_21  and  O_22
REMARK    8  A    between atoms: O_22  and  C_23
REMARK                            x       y       z     vdW  Elec       q    Type
REMARK                         _______ _______ _______ _____ _____    ______ ____
ROOT
ATOM      1  C   UNL     1       2.516   7.664  19.007  0.00  0.00    +0.000 A 
ATOM      2  C   UNL     1       1.993   7.398  20.263  0.00  0.00    +0.000 A 
ATOM      3  C   UNL     1       1.042   8.371  20.745  0.00  0.00    +0.000 A 
ATOM      4  C   UNL     1       0.755   9.440  19.884  0.00  0.00    +0.000 A 
ATOM      5  S   UNL     1       1.767   9.182  18.455  0.00  0.00    +0.000 S 
ENDROOT
BRANCH   4   6
ATOM      6  C   UNL     1      -0.391  10.402  20.014  0.00  0.00    +0.000 A 
ATOM      7  C   UNL     1      -1.184  10.385  18.914  0.00  0.00    +0.000 A 
ATOM      8  C   UNL     1      -2.223  11.421  18.765  0.00  0.00    +0.000 A 
ATOM      9  O   UNL     1      -3.360  11.220  18.389  0.00  0.00    +0.000 OA
ATOM     10  O   UNL     1      -1.640  12.647  18.980  0.00  0.00    +0.000 OA
ATOM     11  C   UNL     1      -1.453  12.640  20.359  0.00  0.00    +0.000 A 
ATOM     12  C   UNL     1      -2.093  13.713  21.006  0.00  0.00    +0.000 A 
ATOM     13  C   UNL     1      -2.415  13.669  22.349  0.00  0.00    +0.000 A 
ATOM     14  C   UNL     1      -2.068  12.495  23.024  0.00  0.00    +0.000 A 
ATOM     15  C   UNL     1      -1.305  11.428  22.358  0.00  0.00    +0.000 A 
ATOM     16  C   UNL     1      -0.919  11.487  21.000  0.00  0.00    +0.000 A 
BRANCH  13  17
ATOM     17  O   UNL     1      -3.054  14.808  22.718  0.00  0.00    +0.000 OA
ATOM     18  C   UNL     1      -2.496  16.096  22.864  0.00  0.00    +0.000 C 
ENDBRANCH  13  17
ENDBRANCH   4   6
BRANCH   1  22
ATOM     19  C   UNL     1       5.568   5.222  16.773  0.00  0.00    +0.000 A 
ATOM     20  C   UNL     1       5.059   4.823  18.014  0.00  0.00    +0.000 A 
ATOM     21  C   UNL     1       4.075   5.600  18.711  0.00  0.00    +0.000 A 
ATOM     22  C   UNL     1       3.553   6.826  18.215  0.00  0.00    +0.000 A 
ATOM     23  C   UNL     1       4.053   7.175  16.946  0.00  0.00    +0.000 A 
ATOM     24  C   UNL     1       5.040   6.398  16.241  0.00  0.00    +0.000 A 
BRANCH  19  25
ATOM     25  C   UNL     1       6.629   4.355  16.081  0.00  0.00    +0.000 C 
ATOM     26  O   UNL     1       7.793   4.306  16.467  0.00  0.00    +0.000 OA
BRANCH  25  27
ATOM     27  O   UNL     1       6.130   3.686  15.016  0.00  0.00    +0.000 OA
BRANCH  27  29
ATOM     28  C   UNL     1       5.803   3.414  12.566  0.00  0.00    +0.000 C 
ATOM     29  C   UNL     1       6.524   4.158  13.682  0.00  0.00    +0.000 C 
ENDBRANCH  27  29
ENDBRANCH  25  27
ENDBRANCH  19  25
ENDBRANCH   1  22
TORSDOF 6
ENDMDL
MODEL 3
REMARK VINA RESULT:      -7.9      1.819      2.775
REMARK  Name = 
REMARK  8 active torsions:
REMARK  status: ('A' for Active; 'I' for Inactive)
REMARK    1  A    between atoms: C_1  and  C_2
REMARK    2  A    between atoms: C_2  and  O_3
REMARK    3  A    between atoms: O_3  and  C_4
REMARK    4  A    between atoms: C_4  and  C_6
REMARK    5  A    between atoms: C_9  and  C_10
REMARK    6  A    between atoms: C_13  and  C_14
REMARK    7  A    between atoms: C_21  and  O_22
REMARK    8  A    between atoms: O_22  and  C_23
REMARK                            x       y       z     vdW  Elec       q    Type
REMARK                         _______ _______ _______ _____ _____    ______ ____
ROOT
ATOM      1  C   UNL     1       2.498   7.928  18.518  0.00  0.00    +0.000 A 
ATOM      2  C   UNL     1       1.889   7.835  19.759  0.00  0.00    +0.000 A 
ATOM      3  C   UNL     1       0.973   8.906  20.071  0.00  0.00    +0.000 A 
ATOM      4  C   UNL     1       0.802   9.886  19.081  0.00  0.00    +0.000 A 
ATOM      5  S   UNL     1       1.876   9.413  17.756  0.00  0.00    +0.000 S 
ENDROOT
BRANCH   4   6
ATOM      6  C   UNL     1      -0.289  10.917  19.031  0.00  0.00    +0.000 A 
ATOM      7  C   UNL     1       0.175  12.150  19.352  0.00  0.00    +0.000 A 
ATOM      8  C   UNL     1      -0.791  13.241  19.578  0.00  0.00    +0.000 A 
ATOM      9  O   UNL     1      -0.673  14.375  19.160  0.00  0.00    +0.000 OA
ATOM     10  O   UNL     1      -1.751  12.790  20.453  0.00  0.00    +0.000 OA
ATOM     11  C   UNL     1      -2.491  11.928  19.650  0.00  0.00    +0.000 A 
ATOM     12  C   UNL     1      -3.852  12.279  19.575  0.00  0.00    +0.000 A 
ATOM     13  C   UNL     1      -4.657  11.863  18.532  0.00  0.00    +0.000 A 
ATOM     14  C   UNL     1      -4.038  11.075  17.557  0.00  0.00    +0.000 A 
ATOM     15  C   UNL     1      -2.644  10.630  17.707  0.00  0.00    +0.000 A 
ATOM     16  C   UNL     1      -1.827  11.001  18.798  0.00  0.00    +0.000 A 
BRANCH  13  17
ATOM     17  O   UNL     1      -5.911  12.363  18.676  0.00  0.00    +0.000 OA
ATOM     18  C   UNL     1      -6.971  12.299  17.747  0.00  0.00    +0.000 C 
ENDBRANCH  13  17
ENDBRANCH   4   6
BRANCH   1  22
ATOM     19  C   UNL     1       5.483   5.137  16.629  0.00  0.00    +0.000 A 
ATOM     20  C   UNL     1       5.626   6.528  16.574  0.00  0.00    +0.000 A 
ATOM     21  C   UNL     1       4.678   7.409  17.193  0.00  0.00    +0.000 A 
ATOM     22  C   UNL     1       3.526   6.952  17.890  0.00  0.00    +0.000 A 
ATOM     23  C   UNL     1       3.436   5.549  17.964  0.00  0.00    +0.000 A 
ATOM     24  C   UNL     1       4.386   4.659  17.346  0.00  0.00    +0.000 A 
BRANCH  19  25
ATOM     25  C   UNL     1       6.524   4.245  15.938  0.00  0.00    +0.000 C 
ATOM     26  O   UNL     1       7.692   4.187  16.313  0.00  0.00    +0.000 OA
BRANCH  25  27
ATOM     27  O   UNL     1       6.005   3.567  14.890  0.00  0.00    +0.000 OA
BRANCH  27  29
ATOM     28  C   UNL     1       5.579   3.400  12.445  0.00  0.00    +0.000 C 
ATOM     29  C   UNL     1       6.481   3.935  13.550  0.00  0.00    +0.000 C 
ENDBRANCH  27  29
ENDBRANCH  25  27
ENDBRANCH  19  25
ENDBRANCH   1  22
TORSDOF 6
ENDMDL
MODEL 4
REMARK VINA RESULT:      -7.7      2.218      3.672
REMARK  Name = 
REMARK  8 active torsions:
REMARK  status: ('A' for Active; 'I' for Inactive)
REMARK    1  A    between atoms: C_1  and  C_2
REMARK    2  A    between atoms: C_2  and  O_3
REMARK    3  A    between atoms: O_3  and  C_4
REMARK    4  A    between atoms: C_4  and  C_6
REMARK    5  A    between atoms: C_9  and  C_10
REMARK    6  A    between atoms: C_13  and  C_14
REMARK    7  A    between atoms: C_21  and  O_22
REMARK    8  A    between atoms: O_22  and  C_23
REMARK                            x       y       z     vdW  Elec       q    Type
REMARK                         _______ _______ _______ _____ _____    ______ ____
ROOT
ATOM      1  C   UNL     1       1.465   8.638  19.378  0.00  0.00    +0.000 A 
ATOM      2  C   UNL     1       1.001   8.839  20.669  0.00  0.00    +0.000 A 
ATOM      3  C   UNL     1       0.016   9.885  20.807  0.00  0.00    +0.000 A 
ATOM      4  C   UNL     1      -0.357  10.547  19.628  0.00  0.00    +0.000 A 
ATOM      5  S   UNL     1       0.616   9.815  18.345  0.00  0.00    +0.000 S 
ENDROOT
BRANCH   4   6
ATOM      6  C   UNL     1      -1.549  11.445  19.454  0.00  0.00    +0.000 A 
ATOM      7  C   UNL     1      -1.462  12.547  20.239  0.00  0.00    +0.000 A 
ATOM      8  C   UNL     1      -2.639  13.425  20.372  0.00  0.00    +0.000 A 
ATOM      9  O   UNL     1      -2.612  14.639  20.344  0.00  0.00    +0.000 OA
ATOM     10  O   UNL     1      -3.727  12.641  20.676  0.00  0.00    +0.000 OA
ATOM     11  C   UNL     1      -3.983  12.018  19.459  0.00  0.00    +0.000 A 
ATOM     12  C   UNL     1      -5.285  12.258  18.982  0.00  0.00    +0.000 A 
ATOM     13  C   UNL     1      -5.609  12.128  17.644  0.00  0.00    +0.000 A 
ATOM     14  C   UNL     1      -4.565  11.745  16.796  0.00  0.00    +0.000 A 
ATOM     15  C   UNL     1      -3.239  11.394  17.327  0.00  0.00    +0.000 A 
ATOM     16  C   UNL     1      -2.912  11.468  18.700  0.00  0.00    +0.000 A 
BRANCH  13  17
ATOM     17  O   UNL     1      -6.912  12.449  17.441  0.00  0.00    +0.000 OA
ATOM     18  C   UNL     1      -7.489  13.737  17.447  0.00  0.00    +0.000 C 
ENDBRANCH  13  17
ENDBRANCH   4   6
BRANCH   1  22
ATOM     19  C   UNL     1       4.548   5.635  18.057  0.00  0.00    +0.000 A 
ATOM     20  C   UNL     1       3.775   5.451  19.209  0.00  0.00    +0.000 A 
ATOM     21  C   UNL     1       2.784   6.406  19.614  0.00  0.00    +0.000 A 
ATOM     22  C   UNL     1       2.517   7.606  18.898  0.00  0.00    +0.000 A 
ATOM     23  C   UNL     1       3.280   7.738  17.722  0.00  0.00    +0.000 A 
ATOM     24  C   UNL     1       4.275   6.781  17.310  0.00  0.00    +0.000 A 
BRANCH  19  25
ATOM     25  C   UNL     1       5.601   4.584  17.682  0.00  0.00    +0.000 C 
ATOM     26  O   UNL     1       6.538   4.297  18.423  0.00  0.00    +0.000 OA
BRANCH  25  27
ATOM     27  O   UNL     1       5.376   4.043  16.463  0.00  0.00    +0.000 OA
BRANCH  27  29
ATOM     28  C   UNL     1       5.903   4.086  14.033  0.00  0.00    +0.000 C 
ATOM     29  C   UNL     1       6.435   4.192  15.456  0.00  0.00    +0.000 C 
ENDBRANCH  27  29
ENDBRANCH  25  27
ENDBRANCH  19  25
ENDBRANCH   1  22
TORSDOF 6
ENDMDL
MODEL 5
REMARK VINA RESULT:      -7.7      1.860      3.180
REMARK  Name = 
REMARK  8 active torsions:
REMARK  status: ('A' for Active; 'I' for Inactive)
REMARK    1  A    between atoms: C_1  and  C_2
REMARK    2  A    between atoms: C_2  and  O_3
REMARK    3  A    between atoms: O_3  and  C_4
REMARK    4  A    between atoms: C_4  and  C_6
REMARK    5  A    between atoms: C_9  and  C_10
REMARK    6  A    between atoms: C_13  and  C_14
REMARK    7  A    between atoms: C_21  and  O_22
REMARK    8  A    between atoms: O_22  and  C_23
REMARK                            x       y       z     vdW  Elec       q    Type
REMARK                         _______ _______ _______ _____ _____    ______ ____
ROOT
ATOM      1  C   UNL     1       2.455   8.022  18.573  0.00  0.00    +0.000 A 
ATOM      2  C   UNL     1       1.826   7.903  19.803  0.00  0.00    +0.000 A 
ATOM      3  C   UNL     1       0.868   8.941  20.099  0.00  0.00    +0.000 A 
ATOM      4  C   UNL     1       0.682   9.917  19.110  0.00  0.00    +0.000 A 
ATOM      5  S   UNL     1       1.798   9.488  17.805  0.00  0.00    +0.000 S 
ENDROOT
BRANCH   4   6
ATOM      6  C   UNL     1      -0.443  10.911  19.042  0.00  0.00    +0.000 A 
ATOM      7  C   UNL     1      -0.120  12.073  19.661  0.00  0.00    +0.000 A 
ATOM      8  C   UNL     1      -1.175  13.077  19.894  0.00  0.00    +0.000 A 
ATOM      9  O   UNL     1      -1.053  14.272  19.716  0.00  0.00    +0.000 OA
ATOM     10  O   UNL     1      -2.247  12.444  20.476  0.00  0.00    +0.000 OA
ATOM     11  C   UNL     1      -2.777  11.729  19.408  0.00  0.00    +0.000 A 
ATOM     12  C   UNL     1      -4.121  12.052  19.143  0.00  0.00    +0.000 A 
ATOM     13  C   UNL     1      -4.699  11.819  17.909  0.00  0.00    +0.000 A 
ATOM     14  C   UNL     1      -3.868  11.245  16.942  0.00  0.00    +0.000 A 
ATOM     15  C   UNL     1      -2.499  10.816  17.269  0.00  0.00    +0.000 A 
ATOM     16  C   UNL     1      -1.916  10.997  18.543  0.00  0.00    +0.000 A 
BRANCH  13  17
ATOM     17  O   UNL     1      -5.986  12.250  17.902  0.00  0.00    +0.000 OA
ATOM     18  C   UNL     1      -6.610  13.071  16.940  0.00  0.00    +0.000 C 
ENDBRANCH  13  17
ENDBRANCH   4   6
BRANCH   1  22
ATOM     19  C   UNL     1       5.582   5.266  16.871  0.00  0.00    +0.000 A 
ATOM     20  C   UNL     1       4.591   4.815  17.750  0.00  0.00    +0.000 A 
ATOM     21  C   UNL     1       3.590   5.698  18.276  0.00  0.00    +0.000 A 
ATOM     22  C   UNL     1       3.528   7.084  17.962  0.00  0.00    +0.000 A 
ATOM     23  C   UNL     1       4.511   7.494  17.043  0.00  0.00    +0.000 A 
ATOM     24  C   UNL     1       5.519   6.612  16.511  0.00  0.00    +0.000 A 
BRANCH  19  25
ATOM     25  C   UNL     1       6.634   4.277  16.352  0.00  0.00    +0.000 C 
ATOM     26  O   UNL     1       7.798   4.289  16.743  0.00  0.00    +0.000 OA
BRANCH  25  27
ATOM     27  O   UNL     1       6.130   3.429  15.427  0.00  0.00    +0.000 OA
BRANCH  27  29
ATOM     28  C   UNL     1       7.157   4.799  13.623  0.00  0.00    +0.000 C 
ATOM     29  C   UNL     1       5.977   3.940  14.059  0.00  0.00    +0.000 C 
ENDBRANCH  27  29
ENDBRANCH  25  27
ENDBRANCH  19  25
ENDBRANCH   1  22
TORSDOF 6
ENDMDL
MODEL 6
REMARK VINA RESULT:      -7.6      2.568      3.658
REMARK  Name = 
REMARK  8 active torsions:
REMARK  status: ('A' for Active; 'I' for Inactive)
REMARK    1  A    between atoms: C_1  and  C_2
REMARK    2  A    between atoms: C_2  and  O_3
REMARK    3  A    between atoms: O_3  and  C_4
REMARK    4  A    between atoms: C_4  and  C_6
REMARK    5  A    between atoms: C_9  and  C_10
REMARK    6  A    between atoms: C_13  and  C_14
REMARK    7  A    between atoms: C_21  and  O_22
REMARK    8  A    between atoms: O_22  and  C_23
REMARK                            x       y       z     vdW  Elec       q    Type
REMARK                         _______ _______ _______ _____ _____    ______ ____
ROOT
ATOM      1  C   UNL     1       1.264   8.975  19.156  0.00  0.00    +0.000 A 
ATOM      2  C   UNL     1       0.910   9.980  18.269  0.00  0.00    +0.000 A 
ATOM      3  C   UNL     1      -0.047  10.932  18.778  0.00  0.00    +0.000 A 
ATOM      4  C   UNL     1      -0.481  10.734  20.097  0.00  0.00    +0.000 A 
ATOM      5  S   UNL     1       0.347   9.272  20.653  0.00  0.00    +0.000 S 
ENDROOT
BRANCH   4   6
ATOM      6  C   UNL     1      -1.225  11.725  20.946  0.00  0.00    +0.000 A 
ATOM      7  C   UNL     1      -0.448  12.206  21.948  0.00  0.00    +0.000 A 
ATOM      8  C   UNL     1      -1.073  13.012  23.013  0.00  0.00    +0.000 A 
ATOM      9  O   UNL     1      -0.609  14.033  23.480  0.00  0.00    +0.000 OA
ATOM     10  O   UNL     1      -2.176  12.334  23.474  0.00  0.00    +0.000 OA
ATOM     11  C   UNL     1      -3.079  12.507  22.430  0.00  0.00    +0.000 A 
ATOM     12  C   UNL     1      -4.275  13.130  22.835  0.00  0.00    +0.000 A 
ATOM     13  C   UNL     1      -5.097  13.787  21.938  0.00  0.00    +0.000 A 
ATOM     14  C   UNL     1      -4.668  13.795  20.607  0.00  0.00    +0.000 A 
ATOM     15  C   UNL     1      -3.472  13.049  20.185  0.00  0.00    +0.000 A 
ATOM     16  C   UNL     1      -2.656  12.326  21.083  0.00  0.00    +0.000 A 
BRANCH  13  17
ATOM     17  O   UNL     1      -6.161  14.328  22.584  0.00  0.00    +0.000 OA
ATOM     18  C   UNL     1      -6.633  14.011  23.875  0.00  0.00    +0.000 C 
ENDBRANCH  13  17
ENDBRANCH   4   6
BRANCH   1  22
ATOM     19  C   UNL     1       4.120   5.580  18.391  0.00  0.00    +0.000 A 
ATOM     20  C   UNL     1       4.021   6.678  17.529  0.00  0.00    +0.000 A 
ATOM     21  C   UNL     1       3.119   7.763  17.789  0.00  0.00    +0.000 A 
ATOM     22  C   UNL     1       2.255   7.806  18.918  0.00  0.00    +0.000 A 
ATOM     23  C   UNL     1       2.411   6.709  19.786  0.00  0.00    +0.000 A 
ATOM     24  C   UNL     1       3.317   5.618  19.531  0.00  0.00    +0.000 A 
BRANCH  19  25
ATOM     25  C   UNL     1       5.095   4.444  18.053  0.00  0.00    +0.000 C 
ATOM     26  O   UNL     1       4.845   3.593  17.204  0.00  0.00    +0.000 OA
BRANCH  25  27
ATOM     27  O   UNL     1       6.222   4.495  18.799  0.00  0.00    +0.000 OA
BRANCH  27  29
ATOM     28  C   UNL     1       7.844   6.376  18.684  0.00  0.00    +0.000 C 
ATOM     29  C   UNL     1       7.434   5.010  18.151  0.00  0.00    +0.000 C 
ENDBRANCH  27  29
ENDBRANCH  25  27
ENDBRANCH  19  25
ENDBRANCH   1  22
TORSDOF 6
ENDMDL
MODEL 7
REMARK VINA RESULT:      -7.6      1.348      2.205
REMARK  Name = 
REMARK  8 active torsions:
REMARK  status: ('A' for Active; 'I' for Inactive)
REMARK    1  A    between atoms: C_1  and  C_2
REMARK    2  A    between atoms: C_2  and  O_3
REMARK    3  A    between atoms: O_3  and  C_4
REMARK    4  A    between atoms: C_4  and  C_6
REMARK    5  A    between atoms: C_9  and  C_10
REMARK    6  A    between atoms: C_13  and  C_14
REMARK    7  A    between atoms: C_21  and  O_22
REMARK    8  A    between atoms: O_22  and  C_23
REMARK                            x       y       z     vdW  Elec       q    Type
REMARK                         _______ _______ _______ _____ _____    ______ ____
ROOT
ATOM      1  C   UNL     1       2.156   7.827  19.245  0.00  0.00    +0.000 A 
ATOM      2  C   UNL     1       1.649   7.579  20.512  0.00  0.00    +0.000 A 
ATOM      3  C   UNL     1       0.735   8.580  21.008  0.00  0.00    +0.000 A 
ATOM      4  C   UNL     1       0.464   9.656  20.149  0.00  0.00    +0.000 A 
ATOM      5  S   UNL     1       1.441   9.365  18.703  0.00  0.00    +0.000 S 
ENDROOT
BRANCH   4   6
ATOM      6  C   UNL     1      -0.652  10.650  20.297  0.00  0.00    +0.000 A 
ATOM      7  C   UNL     1      -1.375  10.762  19.156  0.00  0.00    +0.000 A 
ATOM      8  C   UNL     1      -2.363  11.850  19.039  0.00  0.00    +0.000 A 
ATOM      9  O   UNL     1      -3.482  11.731  18.580  0.00  0.00    +0.000 OA
ATOM     10  O   UNL     1      -1.750  13.027  19.396  0.00  0.00    +0.000 OA
ATOM     11  C   UNL     1      -1.649  12.893  20.777  0.00  0.00    +0.000 A 
ATOM     12  C   UNL     1      -2.288  13.932  21.479  0.00  0.00    +0.000 A 
ATOM     13  C   UNL     1      -2.694  13.786  22.792  0.00  0.00    +0.000 A 
ATOM     14  C   UNL     1      -2.433  12.544  23.378  0.00  0.00    +0.000 A 
ATOM     15  C   UNL     1      -1.670  11.507  22.666  0.00  0.00    +0.000 A 
ATOM     16  C   UNL     1      -1.199  11.667  21.343  0.00  0.00    +0.000 A 
BRANCH  13  17
ATOM     17  O   UNL     1      -3.312  14.915  23.223  0.00  0.00    +0.000 OA
ATOM     18  C   UNL     1      -2.844  15.835  24.185  0.00  0.00    +0.000 C 
ENDBRANCH  13  17
ENDBRANCH   4   6
BRANCH   1  22
ATOM     19  C   UNL     1       5.082   5.274  16.966  0.00  0.00    +0.000 A 
ATOM     20  C   UNL     1       4.325   4.770  18.029  0.00  0.00    +0.000 A 
ATOM     21  C   UNL     1       3.383   5.587  18.740  0.00  0.00    +0.000 A 
ATOM     22  C   UNL     1       3.154   6.958  18.437  0.00  0.00    +0.000 A 
ATOM     23  C   UNL     1       3.898   7.420  17.336  0.00  0.00    +0.000 A 
ATOM     24  C   UNL     1       4.844   6.604  16.617  0.00  0.00    +0.000 A 
BRANCH  19  25
ATOM     25  C   UNL     1       6.082   4.355  16.251  0.00  0.00    +0.000 C 
ATOM     26  O   UNL     1       5.724   3.424  15.535  0.00  0.00    +0.000 OA
BRANCH  25  27
ATOM     27  O   UNL     1       7.365   4.686  16.518  0.00  0.00    +0.000 OA
BRANCH  27  29
ATOM     28  C   UNL     1       7.860   5.907  18.628  0.00  0.00    +0.000 C 
ATOM     29  C   UNL     1       7.815   4.564  17.911  0.00  0.00    +0.000 C 
ENDBRANCH  27  29
ENDBRANCH  25  27
ENDBRANCH  19  25
ENDBRANCH   1  22
TORSDOF 6
ENDMDL
MODEL 8
REMARK VINA RESULT:      -7.6      2.690      3.624
REMARK  Name = 
REMARK  8 active torsions:
REMARK  status: ('A' for Active; 'I' for Inactive)
REMARK    1  A    between atoms: C_1  and  C_2
REMARK    2  A    between atoms: C_2  and  O_3
REMARK    3  A    between atoms: O_3  and  C_4
REMARK    4  A    between atoms: C_4  and  C_6
REMARK    5  A    between atoms: C_9  and  C_10
REMARK    6  A    between atoms: C_13  and  C_14
REMARK    7  A    between atoms: C_21  and  O_22
REMARK    8  A    between atoms: O_22  and  C_23
REMARK                            x       y       z     vdW  Elec       q    Type
REMARK                         _______ _______ _______ _____ _____    ______ ____
ROOT
ATOM      1  C   UNL     1       1.277   9.033  19.139  0.00  0.00    +0.000 A 
ATOM      2  C   UNL     1       0.883   9.988  18.214  0.00  0.00    +0.000 A 
ATOM      3  C   UNL     1      -0.017  10.996  18.725  0.00  0.00    +0.000 A 
ATOM      4  C   UNL     1      -0.360  10.893  20.081  0.00  0.00    +0.000 A 
ATOM      5  S   UNL     1       0.474   9.449  20.673  0.00  0.00    +0.000 S 
ENDROOT
BRANCH   4   6
ATOM      6  C   UNL     1      -1.021  11.956  20.912  0.00  0.00    +0.000 A 
ATOM      7  C   UNL     1      -0.121  12.627  21.672  0.00  0.00    +0.000 A 
ATOM      8  C   UNL     1      -0.611  13.546  22.716  0.00  0.00    +0.000 A 
ATOM      9  O   UNL     1      -0.159  14.651  22.941  0.00  0.00    +0.000 OA
ATOM     10  O   UNL     1      -1.550  12.881  23.467  0.00  0.00    +0.000 OA
ATOM     11  C   UNL     1      -2.638  12.842  22.601  0.00  0.00    +0.000 A 
ATOM     12  C   UNL     1      -3.790  13.447  23.137  0.00  0.00    +0.000 A 
ATOM     13  C   UNL     1      -4.813  13.912  22.333  0.00  0.00    +0.000 A 
ATOM     14  C   UNL     1      -4.633  13.746  20.956  0.00  0.00    +0.000 A 
ATOM     15  C   UNL     1      -3.474  13.015  20.420  0.00  0.00    +0.000 A 
ATOM     16  C   UNL     1      -2.450  12.485  21.236  0.00  0.00    +0.000 A 
BRANCH  13  17
ATOM     17  O   UNL     1      -5.786  14.481  23.089  0.00  0.00    +0.000 OA
ATOM     18  C   UNL     1      -5.680  15.633  23.898  0.00  0.00    +0.000 C 
ENDBRANCH  13  17
ENDBRANCH   4   6
BRANCH   1  22
ATOM     19  C   UNL     1       4.047   5.533  18.553  0.00  0.00    +0.000 A 
ATOM     20  C   UNL     1       3.186   5.625  19.652  0.00  0.00    +0.000 A 
ATOM     21  C   UNL     1       2.295   6.737  19.822  0.00  0.00    +0.000 A 
ATOM     22  C   UNL     1       2.223   7.827  18.911  0.00  0.00    +0.000 A 
ATOM     23  C   UNL     1       3.070   7.682  17.796  0.00  0.00    +0.000 A 
ATOM     24  C   UNL     1       3.966   6.567  17.619  0.00  0.00    +0.000 A 
BRANCH  19  25
ATOM     25  C   UNL     1       4.986   4.325  18.432  0.00  0.00    +0.000 C 
ATOM     26  O   UNL     1       6.030   4.237  19.071  0.00  0.00    +0.000 OA
BRANCH  25  27
ATOM     27  O   UNL     1       4.532   3.409  17.547  0.00  0.00    +0.000 OA
BRANCH  27  29
ATOM     28  C   UNL     1       2.258   2.439  17.825  0.00  0.00    +0.000 C 
ATOM     29  C   UNL     1       3.752   2.286  18.083  0.00  0.00    +0.000 C 
ENDBRANCH  27  29
ENDBRANCH  25  27
ENDBRANCH  19  25
ENDBRANCH   1  22
TORSDOF 6
ENDMDL
MODEL 9
REMARK VINA RESULT:      -7.5      1.762     11.381
REMARK  Name = 
REMARK  8 active torsions:
REMARK  status: ('A' for Active; 'I' for Inactive)
REMARK    1  A    between atoms: C_1  and  C_2
REMARK    2  A    between atoms: C_2  and  O_3
REMARK    3  A    between atoms: O_3  and  C_4
REMARK    4  A    between atoms: C_4  and  C_6
REMARK    5  A    between atoms: C_9  and  C_10
REMARK    6  A    between atoms: C_13  and  C_14
REMARK    7  A    between atoms: C_21  and  O_22
REMARK    8  A    between atoms: O_22  and  C_23
REMARK                            x       y       z     vdW  Elec       q    Type
REMARK                         _______ _______ _______ _____ _____    ______ ____
ROOT
ATOM      1  C   UNL     1       2.268   7.378  19.637  0.00  0.00    +0.000 A 
ATOM      2  C   UNL     1       2.515   6.118  20.159  0.00  0.00    +0.000 A 
ATOM      3  C   UNL     1       3.377   5.285  19.355  0.00  0.00    +0.000 A 
ATOM      4  C   UNL     1       3.866   5.855  18.171  0.00  0.00    +0.000 A 
ATOM      5  S   UNL     1       3.159   7.476  18.099  0.00  0.00    +0.000 S 
ENDROOT
BRANCH   4   6
ATOM      6  C   UNL     1       4.991   5.325  17.328  0.00  0.00    +0.000 A 
ATOM      7  C   UNL     1       6.140   5.220  18.039  0.00  0.00    +0.000 A 
ATOM      8  C   UNL     1       7.399   4.935  17.326  0.00  0.00    +0.000 A 
ATOM      9  O   UNL     1       8.247   4.147  17.693  0.00  0.00    +0.000 OA
ATOM     10  O   UNL     1       7.504   5.814  16.274  0.00  0.00    +0.000 OA
ATOM     11  C   UNL     1       6.562   5.311  15.382  0.00  0.00    +0.000 A 
ATOM     12  C   UNL     1       7.112   4.978  14.131  0.00  0.00    +0.000 A 
ATOM     13  C   UNL     1       6.497   4.083  13.276  0.00  0.00    +0.000 A 
ATOM     14  C   UNL     1       5.297   3.529  13.732  0.00  0.00    +0.000 A 
ATOM     15  C   UNL     1       4.682   3.968  14.994  0.00  0.00    +0.000 A 
ATOM     16  C   UNL     1       5.274   4.926  15.849  0.00  0.00    +0.000 A 
BRANCH  13  17
ATOM     17  O   UNL     1       7.244   3.910  12.157  0.00  0.00    +0.000 OA
ATOM     18  C   UNL     1       7.312   2.761  11.340  0.00  0.00    +0.000 C 
ENDBRANCH  13  17
ENDBRANCH   4   6
BRANCH   1  22
ATOM     19  C   UNL     1      -0.324  10.583  21.449  0.00  0.00    +0.000 A 
ATOM     20  C   UNL     1       0.248   9.564  22.219  0.00  0.00    +0.000 A 
ATOM     21  C   UNL     1       1.085   8.556  21.635  0.00  0.00    +0.000 A 
ATOM     22  C   UNL     1       1.389   8.501  20.247  0.00  0.00    +0.000 A 
ATOM     23  C   UNL     1       0.835   9.564  19.509  0.00  0.00    +0.000 A 
ATOM     24  C   UNL     1      -0.006  10.580  20.090  0.00  0.00    +0.000 A 
BRANCH  19  25
ATOM     25  C   UNL     1      -1.221  11.627  22.128  0.00  0.00    +0.000 C 
ATOM     26  O   UNL     1      -1.697  11.457  23.247  0.00  0.00    +0.000 OA
BRANCH  25  27
ATOM     27  O   UNL     1      -1.420  12.716  21.351  0.00  0.00    +0.000 OA
BRANCH  27  29
ATOM     28  C   UNL     1       0.621  14.078  21.757  0.00  0.00    +0.000 C 
ATOM     29  C   UNL     1      -0.898  13.997  21.844  0.00  0.00    +0.000 C 
ENDBRANCH  27  29
ENDBRANCH  25  27
ENDBRANCH  19  25
ENDBRANCH   1  22
TORSDOF 6
ENDMDL
