MODEL 1
REMARK VINA RESULT:      -9.1      0.000      0.000
REMARK  Name = 
REMARK  10 active torsions:
REMARK  status: ('A' for Active; 'I' for Inactive)
REMARK    1  A    between atoms: C_1  and  C_2
REMARK    2  A    between atoms: C_7  and  C_8
REMARK    3  A    between atoms: C_8  and  N_9
REMARK    4  A    between atoms: N_9  and  C_10
REMARK    5  A    between atoms: N_9  and  C_18
REMARK    6  A    between atoms: C_10  and  C_11
REMARK    7  A    between atoms: C_18  and  C_19
REMARK    8  A    between atoms: C_22  and  C_23
REMARK    9  A    between atoms: C_23  and  C_24
REMARK   10  A    between atoms: C_23  and  C_25
REMARK                            x       y       z     vdW  Elec       q    Type
REMARK                         _______ _______ _______ _____ _____    ______ ____
ROOT
ATOM      1  N   UNL     1       3.160   6.758  18.748  0.00  0.00    +0.000 NA
ENDROOT
BRANCH   1   2
ATOM      2  C   UNL     1       2.774   8.027  18.096  0.00  0.00    +0.000 C 
BRANCH   2   9
ATOM      3  C   UNL     1      -1.212  12.682  23.223  0.00  0.00    +0.000 C 
ATOM      4  C   UNL     1      -0.704  11.589  22.334  0.00  0.00    +0.000 A 
ATOM      5  C   UNL     1      -0.761  10.249  22.742  0.00  0.00    +0.000 A 
ATOM      6  C   UNL     1      -0.207   9.241  21.949  0.00  0.00    +0.000 A 
ATOM      7  C   UNL     1       0.417   9.567  20.745  0.00  0.00    +0.000 A 
ATOM      8  C   UNL     1       1.153   8.566  19.973  0.00  0.00    +0.000 A 
ATOM      9  C   UNL     1       1.798   8.904  18.843  0.00  0.00    +0.000 A 
ATOM     10  C   UNL     1       1.655  10.290  18.296  0.00  0.00    +0.000 A 
ATOM     11  O   UNL     1       2.107  10.606  17.198  0.00  0.00    +0.000 OA
ATOM     12  N   UNL     1       1.022  11.211  19.089  0.00  0.00    +0.000 N 
ATOM     13  C   UNL     1       0.428  10.898  20.314  0.00  0.00    +0.000 A 
ATOM     14  C   UNL     1      -0.126  11.906  21.099  0.00  0.00    +0.000 A 
ATOM     15  H   UNL     1       0.985  12.153  18.725  0.00  0.00    +0.000 HD
ENDBRANCH   2   9
ENDBRANCH   1   2
BRANCH   1  16
ATOM     16  C   UNL     1       2.299   5.622  18.370  0.00  0.00    +0.000 C 
BRANCH  16  17
ATOM     17  C   UNL     1       1.990   4.592  19.441  0.00  0.00    +0.000 A 
ATOM     18  C   UNL     1       1.202   3.468  19.149  0.00  0.00    +0.000 A 
ATOM     19  C   UNL     1       0.934   2.515  20.133  0.00  0.00    +0.000 A 
ATOM     20  C   UNL     1       1.450   2.685  21.412  0.00  0.00    +0.000 A 
ATOM     21  F   UNL     1       1.193   1.767  22.354  0.00  0.00    +0.000 F 
ATOM     22  C   UNL     1       2.231   3.790  21.727  0.00  0.00    +0.000 A 
ATOM     23  C   UNL     1       2.503   4.741  20.741  0.00  0.00    +0.000 A 
ENDBRANCH  16  17
ENDBRANCH   1  16
BRANCH   1  24
ATOM     24  C   UNL     1       4.591   6.457  18.545  0.00  0.00    +0.000 C 
BRANCH  24  25
ATOM     25  C   UNL     1       4.864   5.763  17.224  0.00  0.00    +0.000 A 
ATOM     26  C   UNL     1       5.037   4.373  17.165  0.00  0.00    +0.000 A 
ATOM     27  C   UNL     1       5.445   3.759  15.978  0.00  0.00    +0.000 A 
ATOM     28  C   UNL     1       5.686   4.518  14.823  0.00  0.00    +0.000 A 
ATOM     29  C   UNL     1       5.453   5.900  14.871  0.00  0.00    +0.000 A 
ATOM     30  C   UNL     1       5.043   6.515  16.056  0.00  0.00    +0.000 A 
BRANCH  28  31
ATOM     31  C   UNL     1       6.238   3.848  13.578  0.00  0.00    +0.000 C 
ATOM     32  C   UNL     1       5.136   3.502  12.573  0.00  0.00    +0.000 C 
ATOM     33  C   UNL     1       7.322   4.709  12.921  0.00  0.00    +0.000 C 
ENDBRANCH  28  31
ENDBRANCH  24  25
ENDBRANCH   1  24
TORSDOF 7
ENDMDL
MODEL 2
REMARK VINA RESULT:      -9.0      1.378      1.641
REMARK  Name = 
REMARK  10 active torsions:
REMARK  status: ('A' for Active; 'I' for Inactive)
REMARK    1  A    between atoms: C_1  and  C_2
REMARK    2  A    between atoms: C_7  and  C_8
REMARK    3  A    between atoms: C_8  and  N_9
REMARK    4  A    between atoms: N_9  and  C_10
REMARK    5  A    between atoms: N_9  and  C_18
REMARK    6  A    between atoms: C_10  and  C_11
REMARK    7  A    between atoms: C_18  and  C_19
REMARK    8  A    between atoms: C_22  and  C_23
REMARK    9  A    between atoms: C_23  and  C_24
REMARK   10  A    between atoms: C_23  and  C_25
REMARK                            x       y       z     vdW  Elec       q    Type
REMARK                         _______ _______ _______ _____ _____    ______ ____
ROOT
ATOM      1  N   UNL     1       4.531   6.377  19.059  0.00  0.00    +0.000 NA
ENDROOT
BRANCH   1   2
ATOM      2  C   UNL     1       3.311   6.677  18.282  0.00  0.00    +0.000 C 
BRANCH   2   9
ATOM      3  C   UNL     1      -0.771  11.912  22.731  0.00  0.00    +0.000 C 
ATOM      4  C   UNL     1      -0.214  10.708  22.034  0.00  0.00    +0.000 A 
ATOM      5  C   UNL     1      -0.094   9.483  22.704  0.00  0.00    +0.000 A 
ATOM      6  C   UNL     1       0.506   8.387  22.079  0.00  0.00    +0.000 A 
ATOM      7  C   UNL     1       1.001   8.511  20.781  0.00  0.00    +0.000 A 
ATOM      8  C   UNL     1       1.783   7.444  20.158  0.00  0.00    +0.000 A 
ATOM      9  C   UNL     1       2.303   7.597  18.928  0.00  0.00    +0.000 A 
ATOM     10  C   UNL     1       1.970   8.821  18.132  0.00  0.00    +0.000 A 
ATOM     11  O   UNL     1       2.303   8.941  16.955  0.00  0.00    +0.000 OA
ATOM     12  N   UNL     1       1.300   9.824  18.781  0.00  0.00    +0.000 N 
ATOM     13  C   UNL     1       0.835   9.719  20.094  0.00  0.00    +0.000 A 
ATOM     14  C   UNL     1       0.234  10.814  20.711  0.00  0.00    +0.000 A 
ATOM     15  H   UNL     1       1.134  10.662  18.242  0.00  0.00    +0.000 HD
ENDBRANCH   2   9
ENDBRANCH   1   2
BRANCH   1  16
ATOM     16  C   UNL     1       4.566   4.998  19.581  0.00  0.00    +0.000 C 
BRANCH  16  17
ATOM     17  C   UNL     1       3.375   4.107  19.282  0.00  0.00    +0.000 A 
ATOM     18  C   UNL     1       3.323   3.351  18.101  0.00  0.00    +0.000 A 
ATOM     19  C   UNL     1       2.233   2.520  17.838  0.00  0.00    +0.000 A 
ATOM     20  C   UNL     1       1.191   2.444  18.755  0.00  0.00    +0.000 A 
ATOM     21  F   UNL     1       0.147   1.644  18.501  0.00  0.00    +0.000 F 
ATOM     22  C   UNL     1       1.217   3.184  19.930  0.00  0.00    +0.000 A 
ATOM     23  C   UNL     1       2.310   4.012  20.195  0.00  0.00    +0.000 A 
ENDBRANCH  16  17
ENDBRANCH   1  16
BRANCH   1  24
ATOM     24  C   UNL     1       5.753   6.713  18.304  0.00  0.00    +0.000 C 
BRANCH  24  25
ATOM     25  C   UNL     1       5.910   5.886  17.042  0.00  0.00    +0.000 A 
ATOM     26  C   UNL     1       6.926   4.927  16.934  0.00  0.00    +0.000 A 
ATOM     27  C   UNL     1       7.167   4.283  15.717  0.00  0.00    +0.000 A 
ATOM     28  C   UNL     1       6.394   4.578  14.584  0.00  0.00    +0.000 A 
ATOM     29  C   UNL     1       5.341   5.493  14.713  0.00  0.00    +0.000 A 
ATOM     30  C   UNL     1       5.097   6.137  15.929  0.00  0.00    +0.000 A 
BRANCH  28  31
ATOM     31  C   UNL     1       6.744   3.953  13.245  0.00  0.00    +0.000 C 
ATOM     32  C   UNL     1       5.503   3.457  12.499  0.00  0.00    +0.000 C 
ATOM     33  C   UNL     1       7.550   4.924  12.375  0.00  0.00    +0.000 C 
ENDBRANCH  28  31
ENDBRANCH  24  25
ENDBRANCH   1  24
TORSDOF 7
ENDMDL
MODEL 3
REMARK VINA RESULT:      -8.8      3.230      6.990
REMARK  Name = 
REMARK  10 active torsions:
REMARK  status: ('A' for Active; 'I' for Inactive)
REMARK    1  A    between atoms: C_1  and  C_2
REMARK    2  A    between atoms: C_7  and  C_8
REMARK    3  A    between atoms: C_8  and  N_9
REMARK    4  A    between atoms: N_9  and  C_10
REMARK    5  A    between atoms: N_9  and  C_18
REMARK    6  A    between atoms: C_10  and  C_11
REMARK    7  A    between atoms: C_18  and  C_19
REMARK    8  A    between atoms: C_22  and  C_23
REMARK    9  A    between atoms: C_23  and  C_24
REMARK   10  A    between atoms: C_23  and  C_25
REMARK                            x       y       z     vdW  Elec       q    Type
REMARK                         _______ _______ _______ _____ _____    ______ ____
ROOT
ATOM      1  N   UNL     1       4.188   5.230  17.310  0.00  0.00    +0.000 NA
ENDROOT
BRANCH   1   2
ATOM      2  C   UNL     1       5.564   5.045  16.803  0.00  0.00    +0.000 C 
BRANCH   2   9
ATOM      3  C   UNL     1       9.740  11.073  19.977  0.00  0.00    +0.000 C 
ATOM      4  C   UNL     1       9.021  10.099  19.094  0.00  0.00    +0.000 A 
ATOM      5  C   UNL     1       8.279  10.544  17.992  0.00  0.00    +0.000 A 
ATOM      6  C   UNL     1       7.539   9.642  17.223  0.00  0.00    +0.000 A 
ATOM      7  C   UNL     1       7.528   8.288  17.557  0.00  0.00    +0.000 A 
ATOM      8  C   UNL     1       6.638   7.344  16.884  0.00  0.00    +0.000 A 
ATOM      9  C   UNL     1       6.595   6.052  17.253  0.00  0.00    +0.000 A 
ATOM     10  C   UNL     1       7.564   5.543  18.275  0.00  0.00    +0.000 A 
ATOM     11  O   UNL     1       7.659   4.347  18.542  0.00  0.00    +0.000 OA
ATOM     12  N   UNL     1       8.324   6.474  18.932  0.00  0.00    +0.000 N 
ATOM     13  C   UNL     1       8.311   7.837  18.626  0.00  0.00    +0.000 A 
ATOM     14  C   UNL     1       9.053   8.731  19.394  0.00  0.00    +0.000 A 
ATOM     15  H   UNL     1       8.931   6.115  19.655  0.00  0.00    +0.000 HD
ENDBRANCH   2   9
ENDBRANCH   1   2
BRANCH   1  16
ATOM     16  C   UNL     1       3.397   3.986  17.317  0.00  0.00    +0.000 C 
BRANCH  16  17
ATOM     17  C   UNL     1       2.752   3.574  18.628  0.00  0.00    +0.000 A 
ATOM     18  C   UNL     1       3.526   3.045  19.672  0.00  0.00    +0.000 A 
ATOM     19  C   UNL     1       2.930   2.682  20.882  0.00  0.00    +0.000 A 
ATOM     20  C   UNL     1       1.561   2.846  21.049  0.00  0.00    +0.000 A 
ATOM     21  F   UNL     1       0.993   2.499  22.212  0.00  0.00    +0.000 F 
ATOM     22  C   UNL     1       0.773   3.366  20.030  0.00  0.00    +0.000 A 
ATOM     23  C   UNL     1       1.369   3.732  18.821  0.00  0.00    +0.000 A 
ENDBRANCH  16  17
ENDBRANCH   1  16
BRANCH   1  24
ATOM     24  C   UNL     1       4.180   5.896  18.627  0.00  0.00    +0.000 C 
BRANCH  24  25
ATOM     25  C   UNL     1       3.091   6.945  18.749  0.00  0.00    +0.000 A 
ATOM     26  C   UNL     1       2.859   7.863  17.716  0.00  0.00    +0.000 A 
ATOM     27  C   UNL     1       1.967   8.924  17.897  0.00  0.00    +0.000 A 
ATOM     28  C   UNL     1       1.284   9.088  19.111  0.00  0.00    +0.000 A 
ATOM     29  C   UNL     1       1.473   8.132  20.119  0.00  0.00    +0.000 A 
ATOM     30  C   UNL     1       2.363   7.070  19.939  0.00  0.00    +0.000 A 
BRANCH  28  31
ATOM     31  C   UNL     1       0.407  10.309  19.327  0.00  0.00    +0.000 C 
ATOM     32  C   UNL     1      -0.719  10.399  18.295  0.00  0.00    +0.000 C 
ATOM     33  C   UNL     1      -0.157  10.338  20.752  0.00  0.00    +0.000 C 
ENDBRANCH  28  31
ENDBRANCH  24  25
ENDBRANCH   1  24
TORSDOF 7
ENDMDL
MODEL 4
REMARK VINA RESULT:      -8.6      4.301      8.712
REMARK  Name = 
REMARK  10 active torsions:
REMARK  status: ('A' for Active; 'I' for Inactive)
REMARK    1  A    between atoms: C_1  and  C_2
REMARK    2  A    between atoms: C_7  and  C_8
REMARK    3  A    between atoms: C_8  and  N_9
REMARK    4  A    between atoms: N_9  and  C_10
REMARK    5  A    between atoms: N_9  and  C_18
REMARK    6  A    between atoms: C_10  and  C_11
REMARK    7  A    between atoms: C_18  and  C_19
REMARK    8  A    between atoms: C_22  and  C_23
REMARK    9  A    between atoms: C_23  and  C_24
REMARK   10  A    between atoms: C_23  and  C_25
REMARK                            x       y       z     vdW  Elec       q    Type
REMARK                         _______ _______ _______ _____ _____    ______ ____
ROOT
ATOM      1  N   UNL     1      -0.575  11.703  19.545  0.00  0.00    +0.000 NA
ENDROOT
BRANCH   1   2
ATOM      2  C   UNL     1       0.237  10.995  20.557  0.00  0.00    +0.000 C 
BRANCH   2   9
ATOM      3  C   UNL     1       4.677   4.653  18.578  0.00  0.00    +0.000 C 
ATOM      4  C   UNL     1       3.745   5.825  18.631  0.00  0.00    +0.000 A 
ATOM      5  C   UNL     1       3.645   6.710  17.549  0.00  0.00    +0.000 A 
ATOM      6  C   UNL     1       2.841   7.850  17.636  0.00  0.00    +0.000 A 
ATOM      7  C   UNL     1       2.138   8.118  18.811  0.00  0.00    +0.000 A 
ATOM      8  C   UNL     1       1.425   9.380  19.001  0.00  0.00    +0.000 A 
ATOM      9  C   UNL     1       0.798   9.652  20.159  0.00  0.00    +0.000 A 
ATOM     10  C   UNL     1       0.717   8.598  21.220  0.00  0.00    +0.000 A 
ATOM     11  O   UNL     1       0.038   8.747  22.233  0.00  0.00    +0.000 OA
ATOM     12  N   UNL     1       1.462   7.464  21.030  0.00  0.00    +0.000 N 
ATOM     13  C   UNL     1       2.198   7.207  19.871  0.00  0.00    +0.000 A 
ATOM     14  C   UNL     1       2.995   6.068  19.788  0.00  0.00    +0.000 A 
ATOM     15  H   UNL     1       1.437   6.791  21.783  0.00  0.00    +0.000 HD
ENDBRANCH   2   9
ENDBRANCH   1   2
BRANCH   1  16
ATOM     16  C   UNL     1      -1.964  11.211  19.464  0.00  0.00    +0.000 C 
BRANCH  16  17
ATOM     17  C   UNL     1      -2.521  10.915  18.084  0.00  0.00    +0.000 A 
ATOM     18  C   UNL     1      -3.718  11.507  17.652  0.00  0.00    +0.000 A 
ATOM     19  C   UNL     1      -4.219  11.244  16.376  0.00  0.00    +0.000 A 
ATOM     20  C   UNL     1      -3.525  10.389  15.529  0.00  0.00    +0.000 A 
ATOM     21  F   UNL     1      -4.007  10.140  14.304  0.00  0.00    +0.000 F 
ATOM     22  C   UNL     1      -2.339   9.789  15.933  0.00  0.00    +0.000 A 
ATOM     23  C   UNL     1      -1.836  10.055  17.209  0.00  0.00    +0.000 A 
ENDBRANCH  16  17
ENDBRANCH   1  16
BRANCH   1  24
ATOM     24  C   UNL     1      -0.518  13.165  19.729  0.00  0.00    +0.000 C 
BRANCH  24  25
ATOM     25  C   UNL     1       0.708  13.790  19.092  0.00  0.00    +0.000 A 
ATOM     26  C   UNL     1       1.767  12.993  18.638  0.00  0.00    +0.000 A 
ATOM     27  C   UNL     1       2.959  13.578  18.200  0.00  0.00    +0.000 A 
ATOM     28  C   UNL     1       3.117  14.972  18.202  0.00  0.00    +0.000 A 
ATOM     29  C   UNL     1       2.033  15.767  18.601  0.00  0.00    +0.000 A 
ATOM     30  C   UNL     1       0.841  15.184  19.037  0.00  0.00    +0.000 A 
BRANCH  28  31
ATOM     31  C   UNL     1       4.457  15.582  17.832  0.00  0.00    +0.000 C 
ATOM     32  C   UNL     1       4.816  16.769  18.728  0.00  0.00    +0.000 C 
ATOM     33  C   UNL     1       5.569  14.528  17.852  0.00  0.00    +0.000 C 
ENDBRANCH  28  31
ENDBRANCH  24  25
ENDBRANCH   1  24
TORSDOF 7
ENDMDL
MODEL 5
REMARK VINA RESULT:      -8.6      0.990      1.236
REMARK  Name = 
REMARK  10 active torsions:
REMARK  status: ('A' for Active; 'I' for Inactive)
REMARK    1  A    between atoms: C_1  and  C_2
REMARK    2  A    between atoms: C_7  and  C_8
REMARK    3  A    between atoms: C_8  and  N_9
REMARK    4  A    between atoms: N_9  and  C_10
REMARK    5  A    between atoms: N_9  and  C_18
REMARK    6  A    between atoms: C_10  and  C_11
REMARK    7  A    between atoms: C_18  and  C_19
REMARK    8  A    between atoms: C_22  and  C_23
REMARK    9  A    between atoms: C_23  and  C_24
REMARK   10  A    between atoms: C_23  and  C_25
REMARK                            x       y       z     vdW  Elec       q    Type
REMARK                         _______ _______ _______ _____ _____    ______ ____
ROOT
ATOM      1  N   UNL     1       3.926   6.034  18.650  0.00  0.00    +0.000 NA
ENDROOT
BRANCH   1   2
ATOM      2  C   UNL     1       3.452   7.304  18.062  0.00  0.00    +0.000 C 
BRANCH   2   9
ATOM      3  C   UNL     1      -1.158  11.552  23.016  0.00  0.00    +0.000 C 
ATOM      4  C   UNL     1      -0.468  10.497  22.207  0.00  0.00    +0.000 A 
ATOM      5  C   UNL     1      -0.175   9.245  22.763  0.00  0.00    +0.000 A 
ATOM      6  C   UNL     1       0.546   8.295  22.034  0.00  0.00    +0.000 A 
ATOM      7  C   UNL     1       0.988   8.595  20.746  0.00  0.00    +0.000 A 
ATOM      8  C   UNL     1       1.885   7.698  20.020  0.00  0.00    +0.000 A 
ATOM      9  C   UNL     1       2.350   8.024  18.801  0.00  0.00    +0.000 A 
ATOM     10  C   UNL     1       1.842   9.259  18.122  0.00  0.00    +0.000 A 
ATOM     11  O   UNL     1       2.128   9.523  16.957  0.00  0.00    +0.000 OA
ATOM     12  N   UNL     1       1.065  10.105  18.868  0.00  0.00    +0.000 N 
ATOM     13  C   UNL     1       0.651   9.826  20.172  0.00  0.00    +0.000 A 
ATOM     14  C   UNL     1      -0.071  10.775  20.893  0.00  0.00    +0.000 A 
ATOM     15  H   UNL     1       0.779  10.958  18.408  0.00  0.00    +0.000 HD
ENDBRANCH   2   9
ENDBRANCH   1   2
BRANCH   1  16
ATOM     16  C   UNL     1       3.082   4.877  18.298  0.00  0.00    +0.000 C 
BRANCH  16  17
ATOM     17  C   UNL     1       2.546   4.029  19.438  0.00  0.00    +0.000 A 
ATOM     18  C   UNL     1       3.419   3.310  20.269  0.00  0.00    +0.000 A 
ATOM     19  C   UNL     1       2.923   2.545  21.326  0.00  0.00    +0.000 A 
ATOM     20  C   UNL     1       1.553   2.496  21.553  0.00  0.00    +0.000 A 
ATOM     21  F   UNL     1       1.080   1.762  22.569  0.00  0.00    +0.000 F 
ATOM     22  C   UNL     1       0.668   3.197  20.744  0.00  0.00    +0.000 A 
ATOM     23  C   UNL     1       1.165   3.966  19.689  0.00  0.00    +0.000 A 
ENDBRANCH  16  17
ENDBRANCH   1  16
BRANCH   1  24
ATOM     24  C   UNL     1       5.349   5.792  18.345  0.00  0.00    +0.000 C 
BRANCH  24  25
ATOM     25  C   UNL     1       5.581   5.383  16.903  0.00  0.00    +0.000 A 
ATOM     26  C   UNL     1       4.810   4.374  16.310  0.00  0.00    +0.000 A 
ATOM     27  C   UNL     1       5.130   3.891  15.038  0.00  0.00    +0.000 A 
ATOM     28  C   UNL     1       6.224   4.409  14.328  0.00  0.00    +0.000 A 
ATOM     29  C   UNL     1       6.955   5.459  14.900  0.00  0.00    +0.000 A 
ATOM     30  C   UNL     1       6.635   5.945  16.171  0.00  0.00    +0.000 A 
BRANCH  28  31
ATOM     31  C   UNL     1       6.624   3.794  12.999  0.00  0.00    +0.000 C 
ATOM     32  C   UNL     1       5.413   3.290  12.211  0.00  0.00    +0.000 C 
ATOM     33  C   UNL     1       7.449   4.777  12.161  0.00  0.00    +0.000 C 
ENDBRANCH  28  31
ENDBRANCH  24  25
ENDBRANCH   1  24
TORSDOF 7
ENDMDL
MODEL 6
REMARK VINA RESULT:      -8.5      2.088      8.593
REMARK  Name = 
REMARK  10 active torsions:
REMARK  status: ('A' for Active; 'I' for Inactive)
REMARK    1  A    between atoms: C_1  and  C_2
REMARK    2  A    between atoms: C_7  and  C_8
REMARK    3  A    between atoms: C_8  and  N_9
REMARK    4  A    between atoms: N_9  and  C_10
REMARK    5  A    between atoms: N_9  and  C_18
REMARK    6  A    between atoms: C_10  and  C_11
REMARK    7  A    between atoms: C_18  and  C_19
REMARK    8  A    between atoms: C_22  and  C_23
REMARK    9  A    between atoms: C_23  and  C_24
REMARK   10  A    between atoms: C_23  and  C_25
REMARK                            x       y       z     vdW  Elec       q    Type
REMARK                         _______ _______ _______ _____ _____    ______ ____
ROOT
ATOM      1  N   UNL     1       3.634   6.119  17.702  0.00  0.00    +0.000 NA
ENDROOT
BRANCH   1   2
ATOM      2  C   UNL     1       4.737   6.667  16.886  0.00  0.00    +0.000 C 
BRANCH   2   9
ATOM      3  C   UNL     1       7.645   2.658  10.615  0.00  0.00    +0.000 C 
ATOM      4  C   UNL     1       6.908   3.139  11.828  0.00  0.00    +0.000 A 
ATOM      5  C   UNL     1       5.541   2.876  11.987  0.00  0.00    +0.000 A 
ATOM      6  C   UNL     1       4.839   3.400  13.075  0.00  0.00    +0.000 A 
ATOM      7  C   UNL     1       5.497   4.201  14.008  0.00  0.00    +0.000 A 
ATOM      8  C   UNL     1       4.766   4.903  15.061  0.00  0.00    +0.000 A 
ATOM      9  C   UNL     1       5.404   5.717  15.920  0.00  0.00    +0.000 A 
ATOM     10  C   UNL     1       6.898   5.806  15.883  0.00  0.00    +0.000 A 
ATOM     11  O   UNL     1       7.534   6.423  16.734  0.00  0.00    +0.000 OA
ATOM     12  N   UNL     1       7.533   5.193  14.835  0.00  0.00    +0.000 N 
ATOM     13  C   UNL     1       6.873   4.421  13.876  0.00  0.00    +0.000 A 
ATOM     14  C   UNL     1       7.579   3.897  12.796  0.00  0.00    +0.000 A 
ATOM     15  H   UNL     1       8.536   5.312  14.799  0.00  0.00    +0.000 HD
ENDBRANCH   2   9
ENDBRANCH   1   2
BRANCH   1  16
ATOM     16  C   UNL     1       3.698   4.655  17.862  0.00  0.00    +0.000 C 
BRANCH  16  17
ATOM     17  C   UNL     1       2.930   4.043  19.020  0.00  0.00    +0.000 A 
ATOM     18  C   UNL     1       3.600   3.334  20.029  0.00  0.00    +0.000 A 
ATOM     19  C   UNL     1       2.891   2.787  21.101  0.00  0.00    +0.000 A 
ATOM     20  C   UNL     1       1.512   2.946  21.164  0.00  0.00    +0.000 A 
ATOM     21  F   UNL     1       0.835   2.422  22.195  0.00  0.00    +0.000 F 
ATOM     22  C   UNL     1       0.826   3.641  20.177  0.00  0.00    +0.000 A 
ATOM     23  C   UNL     1       1.536   4.192  19.107  0.00  0.00    +0.000 A 
ENDBRANCH  16  17
ENDBRANCH   1  16
BRANCH   1  24
ATOM     24  C   UNL     1       3.523   6.812  19.001  0.00  0.00    +0.000 C 
BRANCH  24  25
ATOM     25  C   UNL     1       2.367   7.792  19.048  0.00  0.00    +0.000 A 
ATOM     26  C   UNL     1       1.994   8.518  17.909  0.00  0.00    +0.000 A 
ATOM     27  C   UNL     1       1.036   9.532  17.997  0.00  0.00    +0.000 A 
ATOM     28  C   UNL     1       0.427   9.840  19.222  0.00  0.00    +0.000 A 
ATOM     29  C   UNL     1       0.760   9.071  20.346  0.00  0.00    +0.000 A 
ATOM     30  C   UNL     1       1.715   8.055  20.260  0.00  0.00    +0.000 A 
BRANCH  28  31
ATOM     31  C   UNL     1      -0.525  11.019  19.320  0.00  0.00    +0.000 C 
ATOM     32  C   UNL     1      -1.783  10.814  18.473  0.00  0.00    +0.000 C 
ATOM     33  C   UNL     1      -0.892  11.314  20.779  0.00  0.00    +0.000 C 
ENDBRANCH  28  31
ENDBRANCH  24  25
ENDBRANCH   1  24
TORSDOF 7
ENDMDL
MODEL 7
REMARK VINA RESULT:      -8.3      2.037      8.209
REMARK  Name = 
REMARK  10 active torsions:
REMARK  status: ('A' for Active; 'I' for Inactive)
REMARK    1  A    between atoms: C_1  and  C_2
REMARK    2  A    between atoms: C_7  and  C_8
REMARK    3  A    between atoms: C_8  and  N_9
REMARK    4  A    between atoms: N_9  and  C_10
REMARK    5  A    between atoms: N_9  and  C_18
REMARK    6  A    between atoms: C_10  and  C_11
REMARK    7  A    between atoms: C_18  and  C_19
REMARK    8  A    between atoms: C_22  and  C_23
REMARK    9  A    between atoms: C_23  and  C_24
REMARK   10  A    between atoms: C_23  and  C_25
REMARK                            x       y       z     vdW  Elec       q    Type
REMARK                         _______ _______ _______ _____ _____    ______ ____
ROOT
ATOM      1  N   UNL     1       3.297   6.390  18.248  0.00  0.00    +0.000 NA
ENDROOT
BRANCH   1   2
ATOM      2  C   UNL     1       4.773   6.465  18.228  0.00  0.00    +0.000 C 
BRANCH   2   9
ATOM      3  C   UNL     1       7.516   3.922  11.167  0.00  0.00    +0.000 C 
ATOM      4  C   UNL     1       6.872   4.092  12.509  0.00  0.00    +0.000 A 
ATOM      5  C   UNL     1       5.613   3.535  12.775  0.00  0.00    +0.000 A 
ATOM      6  C   UNL     1       4.978   3.770  13.997  0.00  0.00    +0.000 A 
ATOM      7  C   UNL     1       5.592   4.571  14.959  0.00  0.00    +0.000 A 
ATOM      8  C   UNL     1       4.889   4.977  16.175  0.00  0.00    +0.000 A 
ATOM      9  C   UNL     1       5.471   5.796  17.068  0.00  0.00    +0.000 A 
ATOM     10  C   UNL     1       6.902   6.194  16.883  0.00  0.00    +0.000 A 
ATOM     11  O   UNL     1       7.518   6.823  17.740  0.00  0.00    +0.000 OA
ATOM     12  N   UNL     1       7.495   5.855  15.695  0.00  0.00    +0.000 N 
ATOM     13  C   UNL     1       6.870   5.084  14.712  0.00  0.00    +0.000 A 
ATOM     14  C   UNL     1       7.511   4.851  13.497  0.00  0.00    +0.000 A 
ATOM     15  H   UNL     1       8.443   6.182  15.569  0.00  0.00    +0.000 HD
ENDBRANCH   2   9
ENDBRANCH   1   2
BRANCH   1  16
ATOM     16  C   UNL     1       2.778   5.038  17.974  0.00  0.00    +0.000 C 
BRANCH  16  17
ATOM     17  C   UNL     1       2.413   4.172  19.167  0.00  0.00    +0.000 A 
ATOM     18  C   UNL     1       1.072   3.986  19.533  0.00  0.00    +0.000 A 
ATOM     19  C   UNL     1       0.740   3.177  20.622  0.00  0.00    +0.000 A 
ATOM     20  C   UNL     1       1.749   2.554  21.346  0.00  0.00    +0.000 A 
ATOM     21  F   UNL     1       1.428   1.776  22.388  0.00  0.00    +0.000 F 
ATOM     22  C   UNL     1       3.085   2.724  21.004  0.00  0.00    +0.000 A 
ATOM     23  C   UNL     1       3.416   3.530  19.913  0.00  0.00    +0.000 A 
ENDBRANCH  16  17
ENDBRANCH   1  16
BRANCH   1  24
ATOM     24  C   UNL     1       2.742   6.952  19.494  0.00  0.00    +0.000 C 
BRANCH  24  25
ATOM     25  C   UNL     1       1.880   8.177  19.255  0.00  0.00    +0.000 A 
ATOM     26  C   UNL     1       1.144   8.752  20.299  0.00  0.00    +0.000 A 
ATOM     27  C   UNL     1       0.231   9.779  20.042  0.00  0.00    +0.000 A 
ATOM     28  C   UNL     1       0.037  10.256  18.737  0.00  0.00    +0.000 A 
ATOM     29  C   UNL     1       0.819   9.718  17.706  0.00  0.00    +0.000 A 
ATOM     30  C   UNL     1       1.733   8.693  17.961  0.00  0.00    +0.000 A 
BRANCH  28  31
ATOM     31  C   UNL     1      -1.040  11.290  18.462  0.00  0.00    +0.000 C 
ATOM     32  C   UNL     1      -2.100  10.772  17.487  0.00  0.00    +0.000 C 
ATOM     33  C   UNL     1      -1.688  11.774  19.764  0.00  0.00    +0.000 C 
ENDBRANCH  28  31
ENDBRANCH  24  25
ENDBRANCH   1  24
TORSDOF 7
ENDMDL
MODEL 8
REMARK VINA RESULT:      -8.3      3.778      6.482
REMARK  Name = 
REMARK  10 active torsions:
REMARK  status: ('A' for Active; 'I' for Inactive)
REMARK    1  A    between atoms: C_1  and  C_2
REMARK    2  A    between atoms: C_7  and  C_8
REMARK    3  A    between atoms: C_8  and  N_9
REMARK    4  A    between atoms: N_9  and  C_10
REMARK    5  A    between atoms: N_9  and  C_18
REMARK    6  A    between atoms: C_10  and  C_11
REMARK    7  A    between atoms: C_18  and  C_19
REMARK    8  A    between atoms: C_22  and  C_23
REMARK    9  A    between atoms: C_23  and  C_24
REMARK   10  A    between atoms: C_23  and  C_25
REMARK                            x       y       z     vdW  Elec       q    Type
REMARK                         _______ _______ _______ _____ _____    ______ ____
ROOT
ATOM      1  N   UNL     1       0.816   9.848  19.496  0.00  0.00    +0.000 NA
ENDROOT
BRANCH   1   2
ATOM      2  C   UNL     1       1.267  10.237  20.848  0.00  0.00    +0.000 C 
BRANCH   2   9
ATOM      3  C   UNL     1      -4.746  14.521  23.903  0.00  0.00    +0.000 C 
ATOM      4  C   UNL     1      -3.437  13.988  23.404  0.00  0.00    +0.000 A 
ATOM      5  C   UNL     1      -2.534  14.822  22.731  0.00  0.00    +0.000 A 
ATOM      6  C   UNL     1      -1.356  14.302  22.190  0.00  0.00    +0.000 A 
ATOM      7  C   UNL     1      -1.075  12.941  22.312  0.00  0.00    +0.000 A 
ATOM      8  C   UNL     1       0.058  12.332  21.618  0.00  0.00    +0.000 A 
ATOM      9  C   UNL     1       0.286  11.009  21.696  0.00  0.00    +0.000 A 
ATOM     10  C   UNL     1      -0.552  10.168  22.609  0.00  0.00    +0.000 A 
ATOM     11  O   UNL     1      -0.294   8.986  22.823  0.00  0.00    +0.000 OA
ATOM     12  N   UNL     1      -1.646  10.765  23.178  0.00  0.00    +0.000 N 
ATOM     13  C   UNL     1      -1.952  12.119  23.029  0.00  0.00    +0.000 A 
ATOM     14  C   UNL     1      -3.127  12.633  23.573  0.00  0.00    +0.000 A 
ATOM     15  H   UNL     1      -2.227  10.165  23.746  0.00  0.00    +0.000 HD
ENDBRANCH   2   9
ENDBRANCH   1   2
BRANCH   1  16
ATOM     16  C   UNL     1       0.208  10.961  18.741  0.00  0.00    +0.000 C 
BRANCH  16  17
ATOM     17  C   UNL     1      -1.272  10.863  18.422  0.00  0.00    +0.000 A 
ATOM     18  C   UNL     1      -2.191  11.751  19.003  0.00  0.00    +0.000 A 
ATOM     19  C   UNL     1      -3.550  11.668  18.694  0.00  0.00    +0.000 A 
ATOM     20  C   UNL     1      -3.993  10.696  17.806  0.00  0.00    +0.000 A 
ATOM     21  F   UNL     1      -5.298  10.620  17.509  0.00  0.00    +0.000 F 
ATOM     22  C   UNL     1      -3.105   9.804  17.219  0.00  0.00    +0.000 A 
ATOM     23  C   UNL     1      -1.745   9.890  17.525  0.00  0.00    +0.000 A 
ENDBRANCH  16  17
ENDBRANCH   1  16
BRANCH   1  24
ATOM     24  C   UNL     1       1.892   9.187  18.733  0.00  0.00    +0.000 C 
BRANCH  24  25
ATOM     25  C   UNL     1       2.034   7.716  19.071  0.00  0.00    +0.000 A 
ATOM     26  C   UNL     1       2.383   6.782  18.086  0.00  0.00    +0.000 A 
ATOM     27  C   UNL     1       2.357   5.413  18.365  0.00  0.00    +0.000 A 
ATOM     28  C   UNL     1       1.988   4.946  19.636  0.00  0.00    +0.000 A 
ATOM     29  C   UNL     1       1.699   5.886  20.635  0.00  0.00    +0.000 A 
ATOM     30  C   UNL     1       1.726   7.255  20.358  0.00  0.00    +0.000 A 
BRANCH  28  31
ATOM     31  C   UNL     1       1.856   3.454  19.886  0.00  0.00    +0.000 C 
ATOM     32  C   UNL     1       1.351   3.150  21.298  0.00  0.00    +0.000 C 
ATOM     33  C   UNL     1       0.958   2.795  18.833  0.00  0.00    +0.000 C 
ENDBRANCH  28  31
ENDBRANCH  24  25
ENDBRANCH   1  24
TORSDOF 7
ENDMDL
MODEL 9
REMARK VINA RESULT:      -8.3      3.700      6.390
REMARK  Name = 
REMARK  10 active torsions:
REMARK  status: ('A' for Active; 'I' for Inactive)
REMARK    1  A    between atoms: C_1  and  C_2
REMARK    2  A    between atoms: C_7  and  C_8
REMARK    3  A    between atoms: C_8  and  N_9
REMARK    4  A    between atoms: N_9  and  C_10
REMARK    5  A    between atoms: N_9  and  C_18
REMARK    6  A    between atoms: C_10  and  C_11
REMARK    7  A    between atoms: C_18  and  C_19
REMARK    8  A    between atoms: C_22  and  C_23
REMARK    9  A    between atoms: C_23  and  C_24
REMARK   10  A    between atoms: C_23  and  C_25
REMARK                            x       y       z     vdW  Elec       q    Type
REMARK                         _______ _______ _______ _____ _____    ______ ____
ROOT
ATOM      1  N   UNL     1       0.740   9.874  19.309  0.00  0.00    +0.000 NA
ENDROOT
BRANCH   1   2
ATOM      2  C   UNL     1       1.074  10.323  20.677  0.00  0.00    +0.000 C 
BRANCH   2   9
ATOM      3  C   UNL     1      -3.106  15.383  25.234  0.00  0.00    +0.000 C 
ATOM      4  C   UNL     1      -2.625  14.338  24.275  0.00  0.00    +0.000 A 
ATOM      5  C   UNL     1      -3.310  13.124  24.135  0.00  0.00    +0.000 A 
ATOM      6  C   UNL     1      -2.809  12.117  23.305  0.00  0.00    +0.000 A 
ATOM      7  C   UNL     1      -1.612  12.313  22.617  0.00  0.00    +0.000 A 
ATOM      8  C   UNL     1      -0.972  11.228  21.877  0.00  0.00    +0.000 A 
ATOM      9  C   UNL     1       0.210  11.413  21.264  0.00  0.00    +0.000 A 
ATOM     10  C   UNL     1       0.817  12.782  21.227  0.00  0.00    +0.000 A 
ATOM     11  O   UNL     1       1.819  13.030  20.562  0.00  0.00    +0.000 OA
ATOM     12  N   UNL     1       0.223  13.748  21.995  0.00  0.00    +0.000 N 
ATOM     13  C   UNL     1      -0.956  13.545  22.717  0.00  0.00    +0.000 A 
ATOM     14  C   UNL     1      -1.453  14.554  23.539  0.00  0.00    +0.000 A 
ATOM     15  H   UNL     1       0.680  14.649  21.999  0.00  0.00    +0.000 HD
ENDBRANCH   2   9
ENDBRANCH   1   2
BRANCH   1  16
ATOM     16  C   UNL     1       0.151  10.938  18.474  0.00  0.00    +0.000 C 
BRANCH  16  17
ATOM     17  C   UNL     1      -1.336  10.855  18.182  0.00  0.00    +0.000 A 
ATOM     18  C   UNL     1      -2.228  11.785  18.738  0.00  0.00    +0.000 A 
ATOM     19  C   UNL     1      -3.593  11.714  18.453  0.00  0.00    +0.000 A 
ATOM     20  C   UNL     1      -4.069  10.714  17.614  0.00  0.00    +0.000 A 
ATOM     21  F   UNL     1      -5.379  10.651  17.340  0.00  0.00    +0.000 F 
ATOM     22  C   UNL     1      -3.206   9.781  17.052  0.00  0.00    +0.000 A 
ATOM     23  C   UNL     1      -1.840   9.854  17.334  0.00  0.00    +0.000 A 
ENDBRANCH  16  17
ENDBRANCH   1  16
BRANCH   1  24
ATOM     24  C   UNL     1       1.894   9.232  18.651  0.00  0.00    +0.000 C 
BRANCH  24  25
ATOM     25  C   UNL     1       2.066   7.779  19.052  0.00  0.00    +0.000 A 
ATOM     26  C   UNL     1       2.436   6.812  18.108  0.00  0.00    +0.000 A 
ATOM     27  C   UNL     1       2.438   5.456  18.446  0.00  0.00    +0.000 A 
ATOM     28  C   UNL     1       2.076   5.036  19.734  0.00  0.00    +0.000 A 
ATOM     29  C   UNL     1       1.765   6.012  20.692  0.00  0.00    +0.000 A 
ATOM     30  C   UNL     1       1.765   7.368  20.357  0.00  0.00    +0.000 A 
BRANCH  28  31
ATOM     31  C   UNL     1       1.974   3.554  20.047  0.00  0.00    +0.000 C 
ATOM     32  C   UNL     1       1.934   3.286  21.554  0.00  0.00    +0.000 C 
ATOM     33  C   UNL     1       0.763   2.924  19.350  0.00  0.00    +0.000 C 
ENDBRANCH  28  31
ENDBRANCH  24  25
ENDBRANCH   1  24
TORSDOF 7
ENDMDL
