MODEL 1
REMARK VINA RESULT:      -6.2      0.000      0.000
REMARK  Name = 
REMARK  6 active torsions:
REMARK  status: ('A' for Active; 'I' for Inactive)
REMARK    1  A    between atoms: C_1  and  C_2
REMARK    2  A    between atoms: C_2  and  C_3
REMARK    3  A    between atoms: C_2  and  C_4
REMARK    4  A    between atoms: C_2  and  C_5
REMARK    5  A    between atoms: C_13  and  O_14
REMARK    6  A    between atoms: N_16  and  C_17
REMARK                            x       y       z     vdW  Elec       q    Type
REMARK                         _______ _______ _______ _____ _____    ______ ____
ROOT
ATOM      1  C   UNL     1       1.904   3.879  18.796  0.00  0.00    +0.000 C 
ATOM      2  S   UNL     1       2.088   2.253  17.960  0.00  0.00    +0.000 S 
ATOM      3  C   UNL     1       3.492   1.472  18.783  0.00  0.00    +0.000 C 
ATOM      4  C   UNL     1       4.584   2.315  19.374  0.00  0.00    +0.000 C 
ATOM      5  O   UNL     1       5.215   1.984  20.381  0.00  0.00    +0.000 OA
ATOM      6  N   UNL     1       5.138   3.450  18.730  0.00  0.00    +0.000 N 
ATOM      7  C   UNL     1       4.410   4.554  18.323  0.00  0.00    +0.000 A 
ATOM      8  C   UNL     1       3.045   4.772  18.338  0.00  0.00    +0.000 A 
ATOM      9  C   UNL     1       2.930   6.085  17.812  0.00  0.00    +0.000 A 
ATOM     10  N   UNL     1       4.104   6.677  17.586  0.00  0.00    +0.000 NA
ATOM     11  N   UNL     1       4.993   5.749  17.912  0.00  0.00    +0.000 N 
ATOM     12  H   UNL     1       6.122   3.560  18.880  0.00  0.00    +0.000 HD
ENDROOT
BRANCH  11  13
ATOM     13  C   UNL     1       6.412   6.060  17.891  0.00  0.00    +0.000 C 
ATOM     14  C   UNL     1       6.770   7.503  17.523  0.00  0.00    +0.000 C 
ATOM     15  C   UNL     1       8.235   7.613  17.935  0.00  0.00    +0.000 C 
ATOM     16  C   UNL     1       8.412   6.655  19.114  0.00  0.00    +0.000 C 
ATOM     17  C   UNL     1       7.108   5.868  19.232  0.00  0.00    +0.000 C 
ENDBRANCH  11  13
BRANCH   1  19
ATOM     18  C   UNL     1       2.713   4.395  21.228  0.00  0.00    +0.000 C 
ATOM     19  C   UNL     1       1.551   3.938  20.344  0.00  0.00    +0.000 C 
ATOM     20  C   UNL     1       1.055   2.594  20.936  0.00  0.00    +0.000 C 
ATOM     21  C   UNL     1       0.385   4.924  20.566  0.00  0.00    +0.000 C 
ENDBRANCH   1  19
BRANCH   9  22
ATOM     22  O   UNL     1       1.870   6.836  17.557  0.00  0.00    +0.000 OA
ATOM     23  H   UNL     1       1.158   6.333  17.144  0.00  0.00    +0.000 HD
ENDBRANCH   9  22
TORSDOF 3
ENDMDL
MODEL 2
REMARK VINA RESULT:      -5.9      9.047     11.318
REMARK  Name = 
REMARK  6 active torsions:
REMARK  status: ('A' for Active; 'I' for Inactive)
REMARK    1  A    between atoms: C_1  and  C_2
REMARK    2  A    between atoms: C_2  and  C_3
REMARK    3  A    between atoms: C_2  and  C_4
REMARK    4  A    between atoms: C_2  and  C_5
REMARK    5  A    between atoms: C_13  and  O_14
REMARK    6  A    between atoms: N_16  and  C_17
REMARK                            x       y       z     vdW  Elec       q    Type
REMARK                         _______ _______ _______ _____ _____    ______ ____
ROOT
ATOM      1  C   UNL     1      10.875  14.039  19.663  0.00  0.00    +0.000 C 
ATOM      2  S   UNL     1      12.308  12.891  19.573  0.00  0.00    +0.000 S 
ATOM      3  C   UNL     1      11.579  11.274  19.240  0.00  0.00    +0.000 C 
ATOM      4  C   UNL     1      10.193  10.957  19.723  0.00  0.00    +0.000 C 
ATOM      5  O   UNL     1       9.426  10.210  19.113  0.00  0.00    +0.000 OA
ATOM      6  N   UNL     1       9.710  11.305  21.010  0.00  0.00    +0.000 N 
ATOM      7  C   UNL     1       9.665  12.594  21.509  0.00  0.00    +0.000 A 
ATOM      8  C   UNL     1      10.144  13.773  20.968  0.00  0.00    +0.000 A 
ATOM      9  C   UNL     1       9.780  14.738  21.943  0.00  0.00    +0.000 A 
ATOM     10  N   UNL     1       9.054  14.239  22.945  0.00  0.00    +0.000 NA
ATOM     11  N   UNL     1       8.978  12.946  22.667  0.00  0.00    +0.000 N 
ATOM     12  H   UNL     1       9.100  10.619  21.411  0.00  0.00    +0.000 HD
ENDROOT
BRANCH  11  13
ATOM     13  C   UNL     1       8.168  12.068  23.495  0.00  0.00    +0.000 C 
ATOM     14  C   UNL     1       8.328  12.249  25.008  0.00  0.00    +0.000 C 
ATOM     15  C   UNL     1       7.134  11.489  25.576  0.00  0.00    +0.000 C 
ATOM     16  C   UNL     1       6.031  11.592  24.522  0.00  0.00    +0.000 C 
ATOM     17  C   UNL     1       6.668  12.233  23.289  0.00  0.00    +0.000 C 
ENDBRANCH  11  13
BRANCH   1  19
ATOM     18  C   UNL     1       8.558  13.665  18.512  0.00  0.00    +0.000 C 
ATOM     19  C   UNL     1       9.960  14.263  18.384  0.00  0.00    +0.000 C 
ATOM     20  C   UNL     1      10.555  13.700  17.068  0.00  0.00    +0.000 C 
ATOM     21  C   UNL     1       9.796  15.776  18.130  0.00  0.00    +0.000 C 
ENDBRANCH   1  19
BRANCH   9  22
ATOM     22  O   UNL     1       9.989  16.044  22.003  0.00  0.00    +0.000 OA
ATOM     23  H   UNL     1      10.704  16.270  22.610  0.00  0.00    +0.000 HD
ENDBRANCH   9  22
TORSDOF 3
ENDMDL
MODEL 3
REMARK VINA RESULT:      -5.8      3.030      4.841
REMARK  Name = 
REMARK  6 active torsions:
REMARK  status: ('A' for Active; 'I' for Inactive)
REMARK    1  A    between atoms: C_1  and  C_2
REMARK    2  A    between atoms: C_2  and  C_3
REMARK    3  A    between atoms: C_2  and  C_4
REMARK    4  A    between atoms: C_2  and  C_5
REMARK    5  A    between atoms: C_13  and  O_14
REMARK    6  A    between atoms: N_16  and  C_17
REMARK                            x       y       z     vdW  Elec       q    Type
REMARK                         _______ _______ _______ _____ _____    ______ ____
ROOT
ATOM      1  C   UNL     1       3.936   4.306  18.541  0.00  0.00    +0.000 C 
ATOM      2  S   UNL     1       4.623   3.597  20.091  0.00  0.00    +0.000 S 
ATOM      3  C   UNL     1       3.174   3.107  21.051  0.00  0.00    +0.000 C 
ATOM      4  C   UNL     1       1.877   3.845  20.888  0.00  0.00    +0.000 C 
ATOM      5  O   UNL     1       0.777   3.299  21.005  0.00  0.00    +0.000 OA
ATOM      6  N   UNL     1       1.781   5.256  20.799  0.00  0.00    +0.000 N 
ATOM      7  C   UNL     1       2.419   6.027  19.844  0.00  0.00    +0.000 A 
ATOM      8  C   UNL     1       3.333   5.660  18.873  0.00  0.00    +0.000 A 
ATOM      9  C   UNL     1       3.597   6.887  18.210  0.00  0.00    +0.000 A 
ATOM     10  N   UNL     1       2.851   7.903  18.645  0.00  0.00    +0.000 NA
ATOM     11  N   UNL     1       2.131   7.371  19.623  0.00  0.00    +0.000 N 
ATOM     12  H   UNL     1       0.972   5.636  21.250  0.00  0.00    +0.000 HD
ENDROOT
BRANCH  11  13
ATOM     13  C   UNL     1       1.109   8.159  20.289  0.00  0.00    +0.000 C 
ATOM     14  C   UNL     1       1.424   8.572  21.731  0.00  0.00    +0.000 C 
ATOM     15  C   UNL     1       0.385   9.651  22.017  0.00  0.00    +0.000 C 
ATOM     16  C   UNL     1       0.093  10.320  20.673  0.00  0.00    +0.000 C 
ATOM     17  C   UNL     1       0.813   9.490  19.611  0.00  0.00    +0.000 C 
ENDBRANCH  11  13
BRANCH   1  19
ATOM     18  C   UNL     1       1.623   3.801  17.434  0.00  0.00    +0.000 C 
ATOM     19  C   UNL     1       3.091   3.388  17.558  0.00  0.00    +0.000 C 
ATOM     20  C   UNL     1       3.091   1.884  17.932  0.00  0.00    +0.000 C 
ATOM     21  C   UNL     1       3.709   3.446  16.145  0.00  0.00    +0.000 C 
ENDBRANCH   1  19
BRANCH   9  22
ATOM     22  O   UNL     1       4.412   7.183  17.209  0.00  0.00    +0.000 OA
ATOM     23  H   UNL     1       4.293   8.090  16.900  0.00  0.00    +0.000 HD
ENDBRANCH   9  22
TORSDOF 3
ENDMDL
MODEL 4
REMARK VINA RESULT:      -5.7      2.027      2.443
REMARK  Name = 
REMARK  6 active torsions:
REMARK  status: ('A' for Active; 'I' for Inactive)
REMARK    1  A    between atoms: C_1  and  C_2
REMARK    2  A    between atoms: C_2  and  C_3
REMARK    3  A    between atoms: C_2  and  C_4
REMARK    4  A    between atoms: C_2  and  C_5
REMARK    5  A    between atoms: C_13  and  O_14
REMARK    6  A    between atoms: N_16  and  C_17
REMARK                            x       y       z     vdW  Elec       q    Type
REMARK                         _______ _______ _______ _____ _____    ______ ____
ROOT
ATOM      1  C   UNL     1       1.803   4.294  19.224  0.00  0.00    +0.000 C 
ATOM      2  S   UNL     1       0.726   3.001  18.485  0.00  0.00    +0.000 S 
ATOM      3  C   UNL     1       1.757   1.520  18.434  0.00  0.00    +0.000 C 
ATOM      4  C   UNL     1       3.248   1.644  18.300  0.00  0.00    +0.000 C 
ATOM      5  O   UNL     1       4.034   0.842  18.809  0.00  0.00    +0.000 OA
ATOM      6  N   UNL     1       3.886   2.549  17.416  0.00  0.00    +0.000 N 
ATOM      7  C   UNL     1       3.704   3.921  17.432  0.00  0.00    +0.000 A 
ATOM      8  C   UNL     1       2.836   4.693  18.183  0.00  0.00    +0.000 A 
ATOM      9  C   UNL     1       3.139   6.012  17.757  0.00  0.00    +0.000 A 
ATOM     10  N   UNL     1       4.162   6.078  16.904  0.00  0.00    +0.000 NA
ATOM     11  N   UNL     1       4.507   4.811  16.725  0.00  0.00    +0.000 N 
ATOM     12  H   UNL     1       4.721   2.187  17.000  0.00  0.00    +0.000 HD
ENDROOT
BRANCH  11  13
ATOM     13  C   UNL     1       5.670   4.478  15.920  0.00  0.00    +0.000 C 
ATOM     14  C   UNL     1       5.402   4.254  14.428  0.00  0.00    +0.000 C 
ATOM     15  C   UNL     1       6.799   4.291  13.816  0.00  0.00    +0.000 C 
ATOM     16  C   UNL     1       7.621   5.227  14.704  0.00  0.00    +0.000 C 
ATOM     17  C   UNL     1       6.748   5.553  15.915  0.00  0.00    +0.000 C 
ENDBRANCH  11  13
BRANCH   1  19
ATOM     18  C   UNL     1       3.804   3.685  20.793  0.00  0.00    +0.000 C 
ATOM     19  C   UNL     1       2.339   4.123  20.709  0.00  0.00    +0.000 C 
ATOM     20  C   UNL     1       1.534   3.114  21.566  0.00  0.00    +0.000 C 
ATOM     21  C   UNL     1       2.215   5.467  21.457  0.00  0.00    +0.000 C 
ENDBRANCH   1  19
BRANCH   9  22
ATOM     22  O   UNL     1       2.620   7.182  18.095  0.00  0.00    +0.000 OA
ATOM     23  H   UNL     1       1.703   7.103  18.386  0.00  0.00    +0.000 HD
ENDBRANCH   9  22
TORSDOF 3
ENDMDL
MODEL 5
REMARK VINA RESULT:      -5.7     10.226     12.617
REMARK  Name = 
REMARK  6 active torsions:
REMARK  status: ('A' for Active; 'I' for Inactive)
REMARK    1  A    between atoms: C_1  and  C_2
REMARK    2  A    between atoms: C_2  and  C_3
REMARK    3  A    between atoms: C_2  and  C_4
REMARK    4  A    between atoms: C_2  and  C_5
REMARK    5  A    between atoms: C_13  and  O_14
REMARK    6  A    between atoms: N_16  and  C_17
REMARK                            x       y       z     vdW  Elec       q    Type
REMARK                         _______ _______ _______ _____ _____    ______ ____
ROOT
ATOM      1  C   UNL     1      -5.933  13.327  21.570  0.00  0.00    +0.000 C 
ATOM      2  S   UNL     1      -4.736  12.974  22.919  0.00  0.00    +0.000 S 
ATOM      3  C   UNL     1      -3.219  13.813  22.416  0.00  0.00    +0.000 C 
ATOM      4  C   UNL     1      -2.912  14.006  20.959  0.00  0.00    +0.000 C 
ATOM      5  O   UNL     1      -2.295  14.984  20.529  0.00  0.00    +0.000 OA
ATOM      6  N   UNL     1      -3.105  13.005  19.975  0.00  0.00    +0.000 N 
ATOM      7  C   UNL     1      -4.314  12.389  19.709  0.00  0.00    +0.000 A 
ATOM      8  C   UNL     1      -5.530  12.502  20.359  0.00  0.00    +0.000 A 
ATOM      9  C   UNL     1      -6.370  11.640  19.607  0.00  0.00    +0.000 A 
ATOM     10  N   UNL     1      -5.778  11.118  18.532  0.00  0.00    +0.000 NA
ATOM     11  N   UNL     1      -4.540  11.588  18.594  0.00  0.00    +0.000 N 
ATOM     12  H   UNL     1      -2.403  13.000  19.260  0.00  0.00    +0.000 HD
ENDROOT
BRANCH  11  13
ATOM     13  C   UNL     1      -3.601  11.312  17.520  0.00  0.00    +0.000 C 
ATOM     14  C   UNL     1      -2.851   9.980  17.620  0.00  0.00    +0.000 C 
ATOM     15  C   UNL     1      -2.251   9.815  16.227  0.00  0.00    +0.000 C 
ATOM     16  C   UNL     1      -3.215  10.517  15.269  0.00  0.00    +0.000 C 
ATOM     17  C   UNL     1      -4.241  11.241  16.140  0.00  0.00    +0.000 C 
ENDBRANCH  11  13
BRANCH   1  19
ATOM     18  C   UNL     1      -5.831  15.386  19.962  0.00  0.00    +0.000 C 
ATOM     19  C   UNL     1      -6.376  14.824  21.277  0.00  0.00    +0.000 C 
ATOM     20  C   UNL     1      -5.977  15.835  22.382  0.00  0.00    +0.000 C 
ATOM     21  C   UNL     1      -7.916  14.898  21.208  0.00  0.00    +0.000 C 
ENDBRANCH   1  19
BRANCH   9  22
ATOM     22  O   UNL     1      -7.643  11.309  19.757  0.00  0.00    +0.000 OA
ATOM     23  H   UNL     1      -7.942  11.416  20.669  0.00  0.00    +0.000 HD
ENDBRANCH   9  22
TORSDOF 3
ENDMDL
MODEL 6
REMARK VINA RESULT:      -5.5      2.794      4.026
REMARK  Name = 
REMARK  6 active torsions:
REMARK  status: ('A' for Active; 'I' for Inactive)
REMARK    1  A    between atoms: C_1  and  C_2
REMARK    2  A    between atoms: C_2  and  C_3
REMARK    3  A    between atoms: C_2  and  C_4
REMARK    4  A    between atoms: C_2  and  C_5
REMARK    5  A    between atoms: C_13  and  O_14
REMARK    6  A    between atoms: N_16  and  C_17
REMARK                            x       y       z     vdW  Elec       q    Type
REMARK                         _______ _______ _______ _____ _____    ______ ____
ROOT
ATOM      1  C   UNL     1       4.328   4.217  19.879  0.00  0.00    +0.000 C 
ATOM      2  S   UNL     1       2.949   5.426  19.989  0.00  0.00    +0.000 S 
ATOM      3  C   UNL     1       1.794   4.923  18.695  0.00  0.00    +0.000 C 
ATOM      4  C   UNL     1       2.299   4.234  17.460  0.00  0.00    +0.000 C 
ATOM      5  O   UNL     1       1.643   3.386  16.851  0.00  0.00    +0.000 OA
ATOM      6  N   UNL     1       3.465   4.631  16.759  0.00  0.00    +0.000 N 
ATOM      7  C   UNL     1       4.729   4.707  17.317  0.00  0.00    +0.000 A 
ATOM      8  C   UNL     1       5.131   4.536  18.629  0.00  0.00    +0.000 A 
ATOM      9  C   UNL     1       6.536   4.726  18.555  0.00  0.00    +0.000 A 
ATOM     10  N   UNL     1       6.989   4.895  17.312  0.00  0.00    +0.000 NA
ATOM     11  N   UNL     1       5.891   4.867  16.569  0.00  0.00    +0.000 N 
ATOM     12  H   UNL     1       3.392   4.535  15.765  0.00  0.00    +0.000 HD
ENDROOT
BRANCH  11  13
ATOM     13  C   UNL     1       5.989   4.923  15.120  0.00  0.00    +0.000 C 
ATOM     14  C   UNL     1       7.380   5.238  14.561  0.00  0.00    +0.000 C 
ATOM     15  C   UNL     1       7.250   4.872  13.085  0.00  0.00    +0.000 C 
ATOM     16  C   UNL     1       6.220   3.744  13.021  0.00  0.00    +0.000 C 
ATOM     17  C   UNL     1       5.630   3.616  14.425  0.00  0.00    +0.000 C 
ENDBRANCH  11  13
BRANCH   1  19
ATOM     18  C   UNL     1       5.212   1.957  20.852  0.00  0.00    +0.000 C 
ATOM     19  C   UNL     1       4.054   2.677  20.157  0.00  0.00    +0.000 C 
ATOM     20  C   UNL     1       3.724   1.848  18.890  0.00  0.00    +0.000 C 
ATOM     21  C   UNL     1       2.812   2.533  21.061  0.00  0.00    +0.000 C 
ENDBRANCH   1  19
BRANCH   9  22
ATOM     22  O   UNL     1       7.472   4.713  19.491  0.00  0.00    +0.000 OA
ATOM     23  H   UNL     1       8.362   4.703  19.117  0.00  0.00    +0.000 HD
ENDBRANCH   9  22
TORSDOF 3
ENDMDL
MODEL 7
REMARK VINA RESULT:      -5.5      9.496     11.873
REMARK  Name = 
REMARK  6 active torsions:
REMARK  status: ('A' for Active; 'I' for Inactive)
REMARK    1  A    between atoms: C_1  and  C_2
REMARK    2  A    between atoms: C_2  and  C_3
REMARK    3  A    between atoms: C_2  and  C_4
REMARK    4  A    between atoms: C_2  and  C_5
REMARK    5  A    between atoms: C_13  and  O_14
REMARK    6  A    between atoms: N_16  and  C_17
REMARK                            x       y       z     vdW  Elec       q    Type
REMARK                         _______ _______ _______ _____ _____    ______ ____
ROOT
ATOM      1  C   UNL     1      10.364  13.150  18.186  0.00  0.00    +0.000 C 
ATOM      2  S   UNL     1      11.697  14.337  17.750  0.00  0.00    +0.000 S 
ATOM      3  C   UNL     1      11.981  15.281  19.262  0.00  0.00    +0.000 C 
ATOM      4  C   UNL     1      10.862  15.494  20.240  0.00  0.00    +0.000 C 
ATOM      5  O   UNL     1      11.043  15.580  21.457  0.00  0.00    +0.000 OA
ATOM      6  N   UNL     1       9.538  15.826  19.859  0.00  0.00    +0.000 N 
ATOM      7  C   UNL     1       8.749  15.064  19.015  0.00  0.00    +0.000 A 
ATOM      8  C   UNL     1       9.063  13.927  18.294  0.00  0.00    +0.000 A 
ATOM      9  C   UNL     1       7.839  13.618  17.645  0.00  0.00    +0.000 A 
ATOM     10  N   UNL     1       6.829  14.413  18.000  0.00  0.00    +0.000 NA
ATOM     11  N   UNL     1       7.385  15.276  18.840  0.00  0.00    +0.000 N 
ATOM     12  H   UNL     1       9.084  16.462  20.486  0.00  0.00    +0.000 HD
ENDROOT
BRANCH  11  13
ATOM     13  C   UNL     1       6.564  16.258  19.527  0.00  0.00    +0.000 C 
ATOM     14  C   UNL     1       5.242  16.615  18.840  0.00  0.00    +0.000 C 
ATOM     15  C   UNL     1       4.471  17.348  19.933  0.00  0.00    +0.000 C 
ATOM     16  C   UNL     1       4.948  16.749  21.257  0.00  0.00    +0.000 C 
ATOM     17  C   UNL     1       6.121  15.830  20.919  0.00  0.00    +0.000 C 
ENDBRANCH  11  13
BRANCH   1  19
ATOM     18  C   UNL     1       9.994  12.397  20.662  0.00  0.00    +0.000 C 
ATOM     19  C   UNL     1      10.616  12.053  19.306  0.00  0.00    +0.000 C 
ATOM     20  C   UNL     1      12.112  11.750  19.578  0.00  0.00    +0.000 C 
ATOM     21  C   UNL     1      10.015  10.707  18.851  0.00  0.00    +0.000 C 
ENDBRANCH   1  19
BRANCH   9  22
ATOM     22  O   UNL     1       7.517  12.654  16.796  0.00  0.00    +0.000 OA
ATOM     23  H   UNL     1       7.026  11.942  17.224  0.00  0.00    +0.000 HD
ENDBRANCH   9  22
TORSDOF 3
ENDMDL
MODEL 8
REMARK VINA RESULT:      -5.5      9.661     11.842
REMARK  Name = 
REMARK  6 active torsions:
REMARK  status: ('A' for Active; 'I' for Inactive)
REMARK    1  A    between atoms: C_1  and  C_2
REMARK    2  A    between atoms: C_2  and  C_3
REMARK    3  A    between atoms: C_2  and  C_4
REMARK    4  A    between atoms: C_2  and  C_5
REMARK    5  A    between atoms: C_13  and  O_14
REMARK    6  A    between atoms: N_16  and  C_17
REMARK                            x       y       z     vdW  Elec       q    Type
REMARK                         _______ _______ _______ _____ _____    ______ ____
ROOT
ATOM      1  C   UNL     1      -2.903  14.485  21.970  0.00  0.00    +0.000 C 
ATOM      2  S   UNL     1      -4.421  15.470  21.650  0.00  0.00    +0.000 S 
ATOM      3  C   UNL     1      -5.769  14.272  21.726  0.00  0.00    +0.000 C 
ATOM      4  C   UNL     1      -5.525  12.838  21.356  0.00  0.00    +0.000 C 
ATOM      5  O   UNL     1      -6.123  11.898  21.886  0.00  0.00    +0.000 OA
ATOM      6  N   UNL     1      -4.756  12.434  20.236  0.00  0.00    +0.000 N 
ATOM      7  C   UNL     1      -3.436  12.787  20.022  0.00  0.00    +0.000 A 
ATOM      8  C   UNL     1      -2.620  13.647  20.734  0.00  0.00    +0.000 A 
ATOM      9  C   UNL     1      -1.391  13.571  20.030  0.00  0.00    +0.000 A 
ATOM     10  N   UNL     1      -1.395  12.677  19.040  0.00  0.00    +0.000 NA
ATOM     11  N   UNL     1      -2.631  12.198  19.052  0.00  0.00    +0.000 N 
ATOM     12  H   UNL     1      -5.109  11.617  19.777  0.00  0.00    +0.000 HD
ENDROOT
BRANCH  11  13
ATOM     13  C   UNL     1      -3.000  11.109  18.163  0.00  0.00    +0.000 C 
ATOM     14  C   UNL     1      -3.827  11.506  16.936  0.00  0.00    +0.000 C 
ATOM     15  C   UNL     1      -3.741  10.271  16.046  0.00  0.00    +0.000 C 
ATOM     16  C   UNL     1      -2.389   9.625  16.354  0.00  0.00    +0.000 C 
ATOM     17  C   UNL     1      -1.812  10.380  17.551  0.00  0.00    +0.000 C 
ENDBRANCH  11  13
BRANCH   1  19
ATOM     18  C   UNL     1      -2.699  12.226  23.270  0.00  0.00    +0.000 C 
ATOM     19  C   UNL     1      -2.715  13.753  23.367  0.00  0.00    +0.000 C 
ATOM     20  C   UNL     1      -3.790  14.111  24.424  0.00  0.00    +0.000 C 
ATOM     21  C   UNL     1      -1.377  14.190  23.998  0.00  0.00    +0.000 C 
ENDBRANCH   1  19
BRANCH   9  22
ATOM     22  O   UNL     1      -0.235  14.190  20.216  0.00  0.00    +0.000 OA
ATOM     23  H   UNL     1      -0.092  14.423  21.142  0.00  0.00    +0.000 HD
ENDBRANCH   9  22
TORSDOF 3
ENDMDL
MODEL 9
REMARK VINA RESULT:      -5.4      2.933      4.775
REMARK  Name = 
REMARK  6 active torsions:
REMARK  status: ('A' for Active; 'I' for Inactive)
REMARK    1  A    between atoms: C_1  and  C_2
REMARK    2  A    between atoms: C_2  and  C_3
REMARK    3  A    between atoms: C_2  and  C_4
REMARK    4  A    between atoms: C_2  and  C_5
REMARK    5  A    between atoms: C_13  and  O_14
REMARK    6  A    between atoms: N_16  and  C_17
REMARK                            x       y       z     vdW  Elec       q    Type
REMARK                         _______ _______ _______ _____ _____    ______ ____
ROOT
ATOM      1  C   UNL     1       4.250   4.274  18.486  0.00  0.00    +0.000 C 
ATOM      2  S   UNL     1       4.496   3.747  20.229  0.00  0.00    +0.000 S 
ATOM      3  C   UNL     1       2.829   3.449  20.856  0.00  0.00    +0.000 C 
ATOM      4  C   UNL     1       1.665   4.213  20.296  0.00  0.00    +0.000 C 
ATOM      5  O   UNL     1       0.532   3.735  20.203  0.00  0.00    +0.000 OA
ATOM      6  N   UNL     1       1.696   5.603  20.020  0.00  0.00    +0.000 N 
ATOM      7  C   UNL     1       2.597   6.214  19.166  0.00  0.00    +0.000 A 
ATOM      8  C   UNL     1       3.686   5.684  18.498  0.00  0.00    +0.000 A 
ATOM      9  C   UNL     1       4.188   6.801  17.781  0.00  0.00    +0.000 A 
ATOM     10  N   UNL     1       3.436   7.896  17.898  0.00  0.00    +0.000 NA
ATOM     11  N   UNL     1       2.468   7.528  18.726  0.00  0.00    +0.000 N 
ATOM     12  H   UNL     1       0.833   6.073  20.213  0.00  0.00    +0.000 HD
ENDROOT
BRANCH  11  13
ATOM     13  C   UNL     1       1.377   8.440  19.025  0.00  0.00    +0.000 C 
ATOM     14  C   UNL     1       1.315   8.950  20.468  0.00  0.00    +0.000 C 
ATOM     15  C   UNL     1       0.340  10.119  20.380  0.00  0.00    +0.000 C 
ATOM     16  C   UNL     1       0.496  10.691  18.971  0.00  0.00    +0.000 C 
ATOM     17  C   UNL     1       1.405   9.726  18.210  0.00  0.00    +0.000 C 
ENDBRANCH  11  13
BRANCH   1  19
ATOM     18  C   UNL     1       4.334   3.208  16.100  0.00  0.00    +0.000 C 
ATOM     19  C   UNL     1       3.598   3.271  17.441  0.00  0.00    +0.000 C 
ATOM     20  C   UNL     1       2.114   3.571  17.109  0.00  0.00    +0.000 C 
ATOM     21  C   UNL     1       3.592   1.846  18.032  0.00  0.00    +0.000 C 
ENDBRANCH   1  19
BRANCH   9  22
ATOM     22  O   UNL     1       5.236   6.928  16.981  0.00  0.00    +0.000 OA
ATOM     23  H   UNL     1       6.065   6.727  17.433  0.00  0.00    +0.000 HD
ENDBRANCH   9  22
TORSDOF 3
ENDMDL
