MODEL 1
REMARK VINA RESULT:      -8.2      0.000      0.000
REMARK  Name = 
REMARK  5 active torsions:
REMARK  status: ('A' for Active; 'I' for Inactive)
REMARK    1  A    between atoms: C_1  and  C_2
REMARK    2  A    between atoms: C_2  and  C_3
REMARK    3  A    between atoms: C_8  and  C_9
REMARK    4  A    between atoms: C_18  and  C_19
REMARK    5  A    between atoms: C_18  and  C_20
REMARK                            x       y       z     vdW  Elec       q    Type
REMARK                         _______ _______ _______ _____ _____    ______ ____
ROOT
ATOM      1  C   UNL     1       2.558   4.455  21.646  0.00  0.00    +0.000 C 
ATOM      2  C   UNL     1       2.824   4.753  20.163  0.00  0.00    +0.000 C 
ATOM      3  C   UNL     1       2.178   6.102  19.824  0.00  0.00    +0.000 C 
ATOM      4  N   UNL     1       4.264   4.809  19.980  0.00  0.00    +0.000 N 
ATOM      5  C   UNL     1       4.699   4.747  18.656  0.00  0.00    +0.000 A 
ATOM      6  C   UNL     1       5.980   5.194  18.327  0.00  0.00    +0.000 A 
ATOM      7  C   UNL     1       6.461   5.102  17.018  0.00  0.00    +0.000 A 
ATOM      8  C   UNL     1       5.695   4.514  16.002  0.00  0.00    +0.000 A 
ATOM      9  C   UNL     1       4.426   4.023  16.362  0.00  0.00    +0.000 A 
ATOM     10  C   UNL     1       3.921   4.125  17.676  0.00  0.00    +0.000 A 
ATOM     11  C   UNL     1       2.558   3.565  18.049  0.00  0.00    +0.000 C 
ATOM     12  C   UNL     1       2.515   2.053  17.746  0.00  0.00    +0.000 C 
ATOM     13  C   UNL     1       1.419   4.231  17.257  0.00  0.00    +0.000 C 
ATOM     14  O   UNL     1       2.255   3.664  19.447  0.00  0.00    +0.000 OA
ATOM     15  H   UNL     1       4.712   5.546  20.511  0.00  0.00    +0.000 HD
ENDROOT
BRANCH   8  16
ATOM     16  C   UNL     1       6.200   4.398  14.614  0.00  0.00    +0.000 A 
ATOM     17  C   UNL     1       7.292   5.165  14.165  0.00  0.00    +0.000 A 
ATOM     18  C   UNL     1       7.763   5.069  12.851  0.00  0.00    +0.000 A 
ATOM     19  C   UNL     1       7.159   4.189  11.958  0.00  0.00    +0.000 A 
ATOM     20  C   UNL     1       6.087   3.412  12.383  0.00  0.00    +0.000 A 
ATOM     21 CL   UNL     1       5.345   2.310  11.288  0.00  0.00    +0.000 Cl
ATOM     22  C   UNL     1       5.608   3.517  13.690  0.00  0.00    +0.000 A 
ENDBRANCH   8  16
TORSDOF 1
ENDMDL
MODEL 2
REMARK VINA RESULT:      -8.0      1.249      1.630
REMARK  Name = 
REMARK  5 active torsions:
REMARK  status: ('A' for Active; 'I' for Inactive)
REMARK    1  A    between atoms: C_1  and  C_2
REMARK    2  A    between atoms: C_2  and  C_3
REMARK    3  A    between atoms: C_8  and  C_9
REMARK    4  A    between atoms: C_18  and  C_19
REMARK    5  A    between atoms: C_18  and  C_20
REMARK                            x       y       z     vdW  Elec       q    Type
REMARK                         _______ _______ _______ _____ _____    ______ ____
ROOT
ATOM      1  C   UNL     1       2.369   3.889  21.794  0.00  0.00    +0.000 C 
ATOM      2  C   UNL     1       2.679   4.320  20.354  0.00  0.00    +0.000 C 
ATOM      3  C   UNL     1       2.140   5.742  20.156  0.00  0.00    +0.000 C 
ATOM      4  N   UNL     1       4.122   4.286  20.188  0.00  0.00    +0.000 N 
ATOM      5  C   UNL     1       4.571   4.331  18.868  0.00  0.00    +0.000 A 
ATOM      6  C   UNL     1       5.887   4.713  18.599  0.00  0.00    +0.000 A 
ATOM      7  C   UNL     1       6.380   4.723  17.291  0.00  0.00    +0.000 A 
ATOM      8  C   UNL     1       5.588   4.304  16.212  0.00  0.00    +0.000 A 
ATOM      9  C   UNL     1       4.281   3.876  16.508  0.00  0.00    +0.000 A 
ATOM     10  C   UNL     1       3.765   3.877  17.822  0.00  0.00    +0.000 A 
ATOM     11  C   UNL     1       2.358   3.385  18.123  0.00  0.00    +0.000 C 
ATOM     12  C   UNL     1       2.207   1.922  17.661  0.00  0.00    +0.000 C 
ATOM     13  C   UNL     1       1.284   4.216  17.399  0.00  0.00    +0.000 C 
ATOM     14  O   UNL     1       2.042   3.359  19.522  0.00  0.00    +0.000 OA
ATOM     15  H   UNL     1       4.615   4.927  20.798  0.00  0.00    +0.000 HD
ENDROOT
BRANCH   8  16
ATOM     16  C   UNL     1       6.104   4.299  14.824  0.00  0.00    +0.000 A 
ATOM     17  C   UNL     1       5.510   3.506  13.823  0.00  0.00    +0.000 A 
ATOM     18  C   UNL     1       6.003   3.488  12.514  0.00  0.00    +0.000 A 
ATOM     19  C   UNL     1       7.097   4.277  12.172  0.00  0.00    +0.000 A 
ATOM     20  C   UNL     1       7.693   5.077  13.140  0.00  0.00    +0.000 A 
ATOM     21 CL   UNL     1       9.037   6.067  12.719  0.00  0.00    +0.000 Cl
ATOM     22  C   UNL     1       7.210   5.086  14.450  0.00  0.00    +0.000 A 
ENDBRANCH   8  16
TORSDOF 1
ENDMDL
MODEL 3
REMARK VINA RESULT:      -7.8      1.539      1.918
REMARK  Name = 
REMARK  5 active torsions:
REMARK  status: ('A' for Active; 'I' for Inactive)
REMARK    1  A    between atoms: C_1  and  C_2
REMARK    2  A    between atoms: C_2  and  C_3
REMARK    3  A    between atoms: C_8  and  C_9
REMARK    4  A    between atoms: C_18  and  C_19
REMARK    5  A    between atoms: C_18  and  C_20
REMARK                            x       y       z     vdW  Elec       q    Type
REMARK                         _______ _______ _______ _____ _____    ______ ____
ROOT
ATOM      1  C   UNL     1       2.267   4.018  21.819  0.00  0.00    +0.000 C 
ATOM      2  C   UNL     1       2.445   4.007  20.294  0.00  0.00    +0.000 C 
ATOM      3  C   UNL     1       1.126   4.464  19.657  0.00  0.00    +0.000 C 
ATOM      4  N   UNL     1       3.520   4.928  19.972  0.00  0.00    +0.000 N 
ATOM      5  C   UNL     1       4.039   4.811  18.682  0.00  0.00    +0.000 A 
ATOM      6  C   UNL     1       4.760   5.872  18.128  0.00  0.00    +0.000 A 
ATOM      7  C   UNL     1       5.331   5.767  16.857  0.00  0.00    +0.000 A 
ATOM      8  C   UNL     1       5.243   4.580  16.116  0.00  0.00    +0.000 A 
ATOM      9  C   UNL     1       4.556   3.505  16.711  0.00  0.00    +0.000 A 
ATOM     10  C   UNL     1       3.960   3.603  17.987  0.00  0.00    +0.000 A 
ATOM     11  C   UNL     1       3.245   2.421  18.621  0.00  0.00    +0.000 C 
ATOM     12  C   UNL     1       4.218   1.232  18.752  0.00  0.00    +0.000 C 
ATOM     13  C   UNL     1       2.042   1.950  17.784  0.00  0.00    +0.000 C 
ATOM     14  O   UNL     1       2.794   2.670  19.960  0.00  0.00    +0.000 OA
ATOM     15  H   UNL     1       3.326   5.887  20.237  0.00  0.00    +0.000 HD
ENDROOT
BRANCH   8  16
ATOM     16  C   UNL     1       5.856   4.454  14.773  0.00  0.00    +0.000 A 
ATOM     17  C   UNL     1       5.318   3.591  13.800  0.00  0.00    +0.000 A 
ATOM     18  C   UNL     1       5.902   3.459  12.535  0.00  0.00    +0.000 A 
ATOM     19  C   UNL     1       7.033   4.201  12.210  0.00  0.00    +0.000 A 
ATOM     20  C   UNL     1       7.575   5.069  13.152  0.00  0.00    +0.000 A 
ATOM     21 CL   UNL     1       8.965   6.002  12.751  0.00  0.00    +0.000 Cl
ATOM     22  C   UNL     1       7.001   5.192  14.418  0.00  0.00    +0.000 A 
ENDBRANCH   8  16
TORSDOF 1
ENDMDL
MODEL 4
REMARK VINA RESULT:      -7.7      4.214      6.919
REMARK  Name = 
REMARK  5 active torsions:
REMARK  status: ('A' for Active; 'I' for Inactive)
REMARK    1  A    between atoms: C_1  and  C_2
REMARK    2  A    between atoms: C_2  and  C_3
REMARK    3  A    between atoms: C_8  and  C_9
REMARK    4  A    between atoms: C_18  and  C_19
REMARK    5  A    between atoms: C_18  and  C_20
REMARK                            x       y       z     vdW  Elec       q    Type
REMARK                         _______ _______ _______ _____ _____    ______ ____
ROOT
ATOM      1  C   UNL     1       4.874   1.039  20.226  0.00  0.00    +0.000 C 
ATOM      2  C   UNL     1       4.238   2.263  19.551  0.00  0.00    +0.000 C 
ATOM      3  C   UNL     1       3.417   1.773  18.352  0.00  0.00    +0.000 C 
ATOM      4  N   UNL     1       3.385   2.910  20.532  0.00  0.00    +0.000 N 
ATOM      5  C   UNL     1       2.982   4.206  20.210  0.00  0.00    +0.000 A 
ATOM      6  C   UNL     1       1.866   4.760  20.841  0.00  0.00    +0.000 A 
ATOM      7  C   UNL     1       1.466   6.072  20.573  0.00  0.00    +0.000 A 
ATOM      8  C   UNL     1       2.195   6.891  19.701  0.00  0.00    +0.000 A 
ATOM      9  C   UNL     1       3.345   6.332  19.112  0.00  0.00    +0.000 A 
ATOM     10  C   UNL     1       3.752   5.004  19.360  0.00  0.00    +0.000 A 
ATOM     11  C   UNL     1       5.011   4.428  18.734  0.00  0.00    +0.000 C 
ATOM     12  C   UNL     1       6.232   5.277  19.142  0.00  0.00    +0.000 C 
ATOM     13  C   UNL     1       4.944   4.418  17.196  0.00  0.00    +0.000 C 
ATOM     14  O   UNL     1       5.325   3.102  19.181  0.00  0.00    +0.000 OA
ATOM     15  H   UNL     1       2.622   2.325  20.855  0.00  0.00    +0.000 HD
ENDROOT
BRANCH   8  16
ATOM     16  C   UNL     1       1.787   8.287  19.419  0.00  0.00    +0.000 A 
ATOM     17  C   UNL     1       2.120   8.918  18.206  0.00  0.00    +0.000 A 
ATOM     18  C   UNL     1       1.747  10.241  17.942  0.00  0.00    +0.000 A 
ATOM     19  C   UNL     1       1.019  10.960  18.885  0.00  0.00    +0.000 A 
ATOM     20  C   UNL     1       0.668  10.353  20.086  0.00  0.00    +0.000 A 
ATOM     21 CL   UNL     1      -0.246  11.231  21.250  0.00  0.00    +0.000 Cl
ATOM     22  C   UNL     1       1.050   9.038  20.355  0.00  0.00    +0.000 A 
ENDBRANCH   8  16
TORSDOF 1
ENDMDL
MODEL 5
REMARK VINA RESULT:      -7.7      4.532      8.217
REMARK  Name = 
REMARK  5 active torsions:
REMARK  status: ('A' for Active; 'I' for Inactive)
REMARK    1  A    between atoms: C_1  and  C_2
REMARK    2  A    between atoms: C_2  and  C_3
REMARK    3  A    between atoms: C_8  and  C_9
REMARK    4  A    between atoms: C_18  and  C_19
REMARK    5  A    between atoms: C_18  and  C_20
REMARK                            x       y       z     vdW  Elec       q    Type
REMARK                         _______ _______ _______ _____ _____    ______ ____
ROOT
ATOM      1  C   UNL     1       4.280   3.232  17.147  0.00  0.00    +0.000 C 
ATOM      2  C   UNL     1       3.930   4.213  18.275  0.00  0.00    +0.000 C 
ATOM      3  C   UNL     1       5.198   4.459  19.103  0.00  0.00    +0.000 C 
ATOM      4  N   UNL     1       3.469   5.443  17.657  0.00  0.00    +0.000 N 
ATOM      5  C   UNL     1       2.806   6.326  18.510  0.00  0.00    +0.000 A 
ATOM      6  C   UNL     1       2.687   7.672  18.155  0.00  0.00    +0.000 A 
ATOM      7  C   UNL     1       1.989   8.570  18.966  0.00  0.00    +0.000 A 
ATOM      8  C   UNL     1       1.344   8.145  20.136  0.00  0.00    +0.000 A 
ATOM      9  C   UNL     1       1.433   6.777  20.452  0.00  0.00    +0.000 A 
ATOM     10  C   UNL     1       2.149   5.861  19.651  0.00  0.00    +0.000 A 
ATOM     11  C   UNL     1       2.210   4.382  19.997  0.00  0.00    +0.000 C 
ATOM     12  C   UNL     1       0.783   3.799  20.050  0.00  0.00    +0.000 C 
ATOM     13  C   UNL     1       2.867   4.131  21.366  0.00  0.00    +0.000 C 
ATOM     14  O   UNL     1       2.891   3.587  19.017  0.00  0.00    +0.000 OA
ATOM     15  H   UNL     1       4.170   5.896  17.083  0.00  0.00    +0.000 HD
ENDROOT
BRANCH   8  16
ATOM     16  C   UNL     1       0.591   9.087  20.996  0.00  0.00    +0.000 A 
ATOM     17  C   UNL     1       0.519   8.910  22.391  0.00  0.00    +0.000 A 
ATOM     18  C   UNL     1      -0.203   9.790  23.205  0.00  0.00    +0.000 A 
ATOM     19  C   UNL     1      -0.859  10.879  22.641  0.00  0.00    +0.000 A 
ATOM     20  C   UNL     1      -0.793  11.081  21.266  0.00  0.00    +0.000 A 
ATOM     21 CL   UNL     1      -1.590  12.436  20.564  0.00  0.00    +0.000 Cl
ATOM     22  C   UNL     1      -0.083  10.197  20.452  0.00  0.00    +0.000 A 
ENDBRANCH   8  16
TORSDOF 1
ENDMDL
MODEL 6
REMARK VINA RESULT:      -7.7      4.921      7.306
REMARK  Name = 
REMARK  5 active torsions:
REMARK  status: ('A' for Active; 'I' for Inactive)
REMARK    1  A    between atoms: C_1  and  C_2
REMARK    2  A    between atoms: C_2  and  C_3
REMARK    3  A    between atoms: C_8  and  C_9
REMARK    4  A    between atoms: C_18  and  C_19
REMARK    5  A    between atoms: C_18  and  C_20
REMARK                            x       y       z     vdW  Elec       q    Type
REMARK                         _______ _______ _______ _____ _____    ______ ____
ROOT
ATOM      1  C   UNL     1       4.049   1.008  18.195  0.00  0.00    +0.000 C 
ATOM      2  C   UNL     1       3.770   2.261  19.037  0.00  0.00    +0.000 C 
ATOM      3  C   UNL     1       4.841   2.348  20.132  0.00  0.00    +0.000 C 
ATOM      4  N   UNL     1       3.844   3.409  18.151  0.00  0.00    +0.000 N 
ATOM      5  C   UNL     1       3.305   4.591  18.660  0.00  0.00    +0.000 A 
ATOM      6  C   UNL     1       3.674   5.816  18.100  0.00  0.00    +0.000 A 
ATOM      7  C   UNL     1       3.116   7.013  18.558  0.00  0.00    +0.000 A 
ATOM      8  C   UNL     1       2.134   7.022  19.558  0.00  0.00    +0.000 A 
ATOM      9  C   UNL     1       1.739   5.775  20.076  0.00  0.00    +0.000 A 
ATOM     10  C   UNL     1       2.306   4.559  19.635  0.00  0.00    +0.000 A 
ATOM     11  C   UNL     1       1.846   3.221  20.190  0.00  0.00    +0.000 C 
ATOM     12  C   UNL     1       0.335   3.044  19.938  0.00  0.00    +0.000 C 
ATOM     13  C   UNL     1       2.082   3.107  21.706  0.00  0.00    +0.000 C 
ATOM     14  O   UNL     1       2.456   2.090  19.551  0.00  0.00    +0.000 OA
ATOM     15  H   UNL     1       4.756   3.538  17.728  0.00  0.00    +0.000 HD
ENDROOT
BRANCH   8  16
ATOM     16  C   UNL     1       1.527   8.284  20.042  0.00  0.00    +0.000 A 
ATOM     17  C   UNL     1       1.408   9.409  19.204  0.00  0.00    +0.000 A 
ATOM     18  C   UNL     1       0.847  10.607  19.662  0.00  0.00    +0.000 A 
ATOM     19  C   UNL     1       0.377  10.700  20.968  0.00  0.00    +0.000 A 
ATOM     20  C   UNL     1       0.472   9.598  21.810  0.00  0.00    +0.000 A 
ATOM     21 CL   UNL     1      -0.122   9.702  23.422  0.00  0.00    +0.000 Cl
ATOM     22  C   UNL     1       1.043   8.406  21.358  0.00  0.00    +0.000 A 
ENDBRANCH   8  16
TORSDOF 1
ENDMDL
MODEL 7
REMARK VINA RESULT:      -7.6      4.670      6.723
REMARK  Name = 
REMARK  5 active torsions:
REMARK  status: ('A' for Active; 'I' for Inactive)
REMARK    1  A    between atoms: C_1  and  C_2
REMARK    2  A    between atoms: C_2  and  C_3
REMARK    3  A    between atoms: C_8  and  C_9
REMARK    4  A    between atoms: C_18  and  C_19
REMARK    5  A    between atoms: C_18  and  C_20
REMARK                            x       y       z     vdW  Elec       q    Type
REMARK                         _______ _______ _______ _____ _____    ______ ____
ROOT
ATOM      1  C   UNL     1      -0.260  12.748  19.968  0.00  0.00    +0.000 C 
ATOM      2  C   UNL     1      -0.131  11.223  19.844  0.00  0.00    +0.000 C 
ATOM      3  C   UNL     1      -1.458  10.675  19.304  0.00  0.00    +0.000 C 
ATOM      4  N   UNL     1       0.955  10.949  18.920  0.00  0.00    +0.000 N 
ATOM      5  C   UNL     1       1.430   9.637  18.930  0.00  0.00    +0.000 A 
ATOM      6  C   UNL     1       2.157   9.157  17.839  0.00  0.00    +0.000 A 
ATOM      7  C   UNL     1       2.685   7.863  17.840  0.00  0.00    +0.000 A 
ATOM      8  C   UNL     1       2.546   7.021  18.952  0.00  0.00    +0.000 A 
ATOM      9  C   UNL     1       1.853   7.539  20.062  0.00  0.00    +0.000 A 
ATOM     10  C   UNL     1       1.300   8.838  20.068  0.00  0.00    +0.000 A 
ATOM     11  C   UNL     1       0.577   9.388  21.288  0.00  0.00    +0.000 C 
ATOM     12  C   UNL     1       1.525   9.377  22.504  0.00  0.00    +0.000 C 
ATOM     13  C   UNL     1      -0.662   8.553  21.655  0.00  0.00    +0.000 C 
ATOM     14  O   UNL     1       0.175  10.758  21.152  0.00  0.00    +0.000 OA
ATOM     15  H   UNL     1       0.793  11.306  17.986  0.00  0.00    +0.000 HD
ENDROOT
BRANCH   8  16
ATOM     16  C   UNL     1       3.113   5.653  18.969  0.00  0.00    +0.000 A 
ATOM     17  C   UNL     1       4.497   5.433  19.101  0.00  0.00    +0.000 A 
ATOM     18  C   UNL     1       5.037   4.143  19.104  0.00  0.00    +0.000 A 
ATOM     19  C   UNL     1       4.199   3.038  18.989  0.00  0.00    +0.000 A 
ATOM     20  C   UNL     1       2.827   3.229  18.870  0.00  0.00    +0.000 A 
ATOM     21 CL   UNL     1       1.783   1.866  18.743  0.00  0.00    +0.000 Cl
ATOM     22  C   UNL     1       2.288   4.517  18.854  0.00  0.00    +0.000 A 
ENDBRANCH   8  16
TORSDOF 1
ENDMDL
MODEL 8
REMARK VINA RESULT:      -7.5      4.125      7.461
REMARK  Name = 
REMARK  5 active torsions:
REMARK  status: ('A' for Active; 'I' for Inactive)
REMARK    1  A    between atoms: C_1  and  C_2
REMARK    2  A    between atoms: C_2  and  C_3
REMARK    3  A    between atoms: C_8  and  C_9
REMARK    4  A    between atoms: C_18  and  C_19
REMARK    5  A    between atoms: C_18  and  C_20
REMARK                            x       y       z     vdW  Elec       q    Type
REMARK                         _______ _______ _______ _____ _____    ______ ____
ROOT
ATOM      1  C   UNL     1       5.893   3.654  15.565  0.00  0.00    +0.000 C 
ATOM      2  C   UNL     1       5.341   4.402  16.787  0.00  0.00    +0.000 C 
ATOM      3  C   UNL     1       6.482   4.567  17.799  0.00  0.00    +0.000 C 
ATOM      4  N   UNL     1       4.864   5.695  16.330  0.00  0.00    +0.000 N 
ATOM      5  C   UNL     1       4.042   6.377  17.227  0.00  0.00    +0.000 A 
ATOM      6  C   UNL     1       3.864   7.756  17.091  0.00  0.00    +0.000 A 
ATOM      7  C   UNL     1       3.011   8.459  17.945  0.00  0.00    +0.000 A 
ATOM      8  C   UNL     1       2.269   7.801  18.935  0.00  0.00    +0.000 A 
ATOM      9  C   UNL     1       2.422   6.405  19.027  0.00  0.00    +0.000 A 
ATOM     10  C   UNL     1       3.293   5.684  18.181  0.00  0.00    +0.000 A 
ATOM     11  C   UNL     1       3.424   4.173  18.279  0.00  0.00    +0.000 C 
ATOM     12  C   UNL     1       2.049   3.514  18.051  0.00  0.00    +0.000 C 
ATOM     13  C   UNL     1       3.935   3.721  19.659  0.00  0.00    +0.000 C 
ATOM     14  O   UNL     1       4.273   3.600  17.274  0.00  0.00    +0.000 OA
ATOM     15  H   UNL     1       5.591   6.279  15.934  0.00  0.00    +0.000 HD
ENDROOT
BRANCH   8  16
ATOM     16  C   UNL     1       1.351   8.535  19.838  0.00  0.00    +0.000 A 
ATOM     17  C   UNL     1       1.162   8.136  21.175  0.00  0.00    +0.000 A 
ATOM     18  C   UNL     1       0.287   8.818  22.026  0.00  0.00    +0.000 A 
ATOM     19  C   UNL     1      -0.410   9.930  21.562  0.00  0.00    +0.000 A 
ATOM     20  C   UNL     1      -0.230  10.350  20.249  0.00  0.00    +0.000 A 
ATOM     21 CL   UNL     1      -1.077  11.733  19.673  0.00  0.00    +0.000 Cl
ATOM     22  C   UNL     1       0.634   9.662  19.394  0.00  0.00    +0.000 A 
ENDBRANCH   8  16
TORSDOF 1
ENDMDL
MODEL 9
REMARK VINA RESULT:      -7.4      4.895      7.061
REMARK  Name = 
REMARK  5 active torsions:
REMARK  status: ('A' for Active; 'I' for Inactive)
REMARK    1  A    between atoms: C_1  and  C_2
REMARK    2  A    between atoms: C_2  and  C_3
REMARK    3  A    between atoms: C_8  and  C_9
REMARK    4  A    between atoms: C_18  and  C_19
REMARK    5  A    between atoms: C_18  and  C_20
REMARK                            x       y       z     vdW  Elec       q    Type
REMARK                         _______ _______ _______ _____ _____    ______ ____
ROOT
ATOM      1  C   UNL     1       0.861  12.542  18.926  0.00  0.00    +0.000 C 
ATOM      2  C   UNL     1       0.612  11.044  19.153  0.00  0.00    +0.000 C 
ATOM      3  C   UNL     1      -0.780  10.704  18.605  0.00  0.00    +0.000 C 
ATOM      4  N   UNL     1       1.642  10.315  18.436  0.00  0.00    +0.000 N 
ATOM      5  C   UNL     1       1.774   8.971  18.784  0.00  0.00    +0.000 A 
ATOM      6  C   UNL     1       2.415   8.090  17.910  0.00  0.00    +0.000 A 
ATOM      7  C   UNL     1       2.602   6.747  18.252  0.00  0.00    +0.000 A 
ATOM      8  C   UNL     1       2.199   6.251  19.499  0.00  0.00    +0.000 A 
ATOM      9  C   UNL     1       1.600   7.164  20.386  0.00  0.00    +0.000 A 
ATOM     10  C   UNL     1       1.389   8.519  20.048  0.00  0.00    +0.000 A 
ATOM     11  C   UNL     1       0.763   9.494  21.032  0.00  0.00    +0.000 C 
ATOM     12  C   UNL     1       1.613   9.556  22.317  0.00  0.00    +0.000 C 
ATOM     13  C   UNL     1      -0.663   9.080  21.436  0.00  0.00    +0.000 C 
ATOM     14  O   UNL     1       0.723  10.847  20.557  0.00  0.00    +0.000 OA
ATOM     15  H   UNL     1       1.623  10.466  17.434  0.00  0.00    +0.000 HD
ENDROOT
BRANCH   8  16
ATOM     16  C   UNL     1       2.405   4.833  19.876  0.00  0.00    +0.000 A 
ATOM     17  C   UNL     1       2.117   4.370  21.174  0.00  0.00    +0.000 A 
ATOM     18  C   UNL     1       2.323   3.035  21.538  0.00  0.00    +0.000 A 
ATOM     19  C   UNL     1       2.809   2.126  20.603  0.00  0.00    +0.000 A 
ATOM     20  C   UNL     1       3.089   2.558  19.311  0.00  0.00    +0.000 A 
ATOM     21 CL   UNL     1       3.676   1.436  18.146  0.00  0.00    +0.000 Cl
ATOM     22  C   UNL     1       2.896   3.893  18.951  0.00  0.00    +0.000 A 
ENDBRANCH   8  16
TORSDOF 1
ENDMDL
