MODEL 1
REMARK VINA RESULT:      -6.8      0.000      0.000
REMARK  Name = 
REMARK  5 active torsions:
REMARK  status: ('A' for Active; 'I' for Inactive)
REMARK    1  A    between atoms: C_1  and  C_2
REMARK    2  A    between atoms: C_3  and  C_4
REMARK    3  A    between atoms: C_10  and  C_11
REMARK    4  A    between atoms: C_11  and  C_12
REMARK    5  A    between atoms: C_11  and  C_13
REMARK                            x       y       z     vdW  Elec       q    Type
REMARK                         _______ _______ _______ _____ _____    ______ ____
ROOT
ATOM      1  C   UNL     1       6.877   5.687  16.843  0.00  0.00    +0.000 C 
ATOM      2  O   UNL     1       6.167   4.753  17.202  0.00  0.00    +0.000 OA
ATOM      3  N   UNL     1       7.344   5.927  15.576  0.00  0.00    +0.000 N 
ATOM      4  C   UNL     1       7.050   5.167  14.467  0.00  0.00    +0.000 A 
ATOM      5  N   UNL     1       7.673   5.306  13.317  0.00  0.00    +0.000 NA
ATOM      6  N   UNL     1       7.205   4.423  12.358  0.00  0.00    +0.000 NA
ATOM      7  C   UNL     1       6.209   3.685  12.809  0.00  0.00    +0.000 A 
ATOM      8  S   UNL     1       5.799   4.007  14.442  0.00  0.00    +0.000 S 
ATOM      9  H   UNL     1       8.030   6.650  15.405  0.00  0.00    +0.000 HD
ENDROOT
BRANCH   1  12
ATOM     10  C   UNL     1       8.322   8.964  18.279  0.00  0.00    +0.000 C 
ATOM     11  C   UNL     1       7.793   7.881  17.403  0.00  0.00    +0.000 C 
ATOM     12  C   UNL     1       7.351   6.692  17.841  0.00  0.00    +0.000 C 
ENDBRANCH   1  12
BRANCH   7  13
ATOM     13  C   UNL     1       5.444   2.660  12.019  0.00  0.00    +0.000 C 
ATOM     14  C   UNL     1       4.400   3.337  11.132  0.00  0.00    +0.000 C 
ATOM     15  C   UNL     1       6.384   1.794  11.184  0.00  0.00    +0.000 C 
ENDBRANCH   7  13
TORSDOF 2
ENDMDL
MODEL 2
REMARK VINA RESULT:      -6.6      4.841      7.006
REMARK  Name = 
REMARK  5 active torsions:
REMARK  status: ('A' for Active; 'I' for Inactive)
REMARK    1  A    between atoms: C_1  and  C_2
REMARK    2  A    between atoms: C_3  and  C_4
REMARK    3  A    between atoms: C_10  and  C_11
REMARK    4  A    between atoms: C_11  and  C_12
REMARK    5  A    between atoms: C_11  and  C_13
REMARK                            x       y       z     vdW  Elec       q    Type
REMARK                         _______ _______ _______ _____ _____    ______ ____
ROOT
ATOM      1  C   UNL     1       5.322   4.456  16.043  0.00  0.00    +0.000 C 
ATOM      2  O   UNL     1       5.080   5.566  16.505  0.00  0.00    +0.000 OA
ATOM      3  N   UNL     1       4.846   3.253  16.497  0.00  0.00    +0.000 N 
ATOM      4  C   UNL     1       3.962   3.095  17.541  0.00  0.00    +0.000 A 
ATOM      5  N   UNL     1       3.686   1.925  18.076  0.00  0.00    +0.000 NA
ATOM      6  N   UNL     1       2.777   2.025  19.115  0.00  0.00    +0.000 NA
ATOM      7  C   UNL     1       2.362   3.265  19.291  0.00  0.00    +0.000 A 
ATOM      8  S   UNL     1       3.077   4.389  18.212  0.00  0.00    +0.000 S 
ATOM      9  H   UNL     1       5.206   2.382  16.132  0.00  0.00    +0.000 HD
ENDROOT
BRANCH   1  12
ATOM     10  C   UNL     1       6.575   3.686  12.476  0.00  0.00    +0.000 C 
ATOM     11  C   UNL     1       5.762   3.899  13.706  0.00  0.00    +0.000 C 
ATOM     12  C   UNL     1       6.253   4.317  14.884  0.00  0.00    +0.000 C 
ENDBRANCH   1  12
BRANCH   7  13
ATOM     13  C   UNL     1       1.345   3.719  20.300  0.00  0.00    +0.000 C 
ATOM     14  C   UNL     1       1.375   2.817  21.534  0.00  0.00    +0.000 C 
ATOM     15  C   UNL     1       1.568   5.178  20.691  0.00  0.00    +0.000 C 
ENDBRANCH   7  13
TORSDOF 2
ENDMDL
MODEL 3
REMARK VINA RESULT:      -6.5      4.798      6.939
REMARK  Name = 
REMARK  5 active torsions:
REMARK  status: ('A' for Active; 'I' for Inactive)
REMARK    1  A    between atoms: C_1  and  C_2
REMARK    2  A    between atoms: C_3  and  C_4
REMARK    3  A    between atoms: C_10  and  C_11
REMARK    4  A    between atoms: C_11  and  C_12
REMARK    5  A    between atoms: C_11  and  C_13
REMARK                            x       y       z     vdW  Elec       q    Type
REMARK                         _______ _______ _______ _____ _____    ______ ____
ROOT
ATOM      1  C   UNL     1       5.681   4.219  16.495  0.00  0.00    +0.000 C 
ATOM      2  O   UNL     1       6.172   4.507  17.581  0.00  0.00    +0.000 OA
ATOM      3  N   UNL     1       4.388   3.833  16.251  0.00  0.00    +0.000 N 
ATOM      4  C   UNL     1       3.396   3.744  17.202  0.00  0.00    +0.000 A 
ATOM      5  N   UNL     1       2.231   3.179  16.971  0.00  0.00    +0.000 NA
ATOM      6  N   UNL     1       1.406   3.205  18.083  0.00  0.00    +0.000 NA
ATOM      7  C   UNL     1       1.965   3.837  19.097  0.00  0.00    +0.000 A 
ATOM      8  S   UNL     1       3.543   4.415  18.762  0.00  0.00    +0.000 S 
ATOM      9  H   UNL     1       4.112   3.491  15.340  0.00  0.00    +0.000 HD
ENDROOT
BRANCH   1  12
ATOM     10  C   UNL     1       6.691   3.878  12.786  0.00  0.00    +0.000 C 
ATOM     11  C   UNL     1       5.964   3.930  14.085  0.00  0.00    +0.000 C 
ATOM     12  C   UNL     1       6.527   4.238  15.264  0.00  0.00    +0.000 C 
ENDBRANCH   1  12
BRANCH   7  13
ATOM     13  C   UNL     1       1.331   4.086  20.438  0.00  0.00    +0.000 C 
ATOM     14  C   UNL     1       1.868   3.101  21.476  0.00  0.00    +0.000 C 
ATOM     15  C   UNL     1       1.551   5.526  20.892  0.00  0.00    +0.000 C 
ENDBRANCH   7  13
TORSDOF 2
ENDMDL
MODEL 4
REMARK VINA RESULT:      -6.4      4.651      6.906
REMARK  Name = 
REMARK  5 active torsions:
REMARK  status: ('A' for Active; 'I' for Inactive)
REMARK    1  A    between atoms: C_1  and  C_2
REMARK    2  A    between atoms: C_3  and  C_4
REMARK    3  A    between atoms: C_10  and  C_11
REMARK    4  A    between atoms: C_11  and  C_12
REMARK    5  A    between atoms: C_11  and  C_13
REMARK                            x       y       z     vdW  Elec       q    Type
REMARK                         _______ _______ _______ _____ _____    ______ ____
ROOT
ATOM      1  C   UNL     1       5.921   4.397  16.236  0.00  0.00    +0.000 C 
ATOM      2  O   UNL     1       6.247   5.276  17.027  0.00  0.00    +0.000 OA
ATOM      3  N   UNL     1       4.989   3.412  16.437  0.00  0.00    +0.000 N 
ATOM      4  C   UNL     1       4.218   3.271  17.569  0.00  0.00    +0.000 A 
ATOM      5  N   UNL     1       3.486   2.205  17.810  0.00  0.00    +0.000 NA
ATOM      6  N   UNL     1       2.808   2.296  19.014  0.00  0.00    +0.000 NA
ATOM      7  C   UNL     1       3.016   3.453  19.612  0.00  0.00    +0.000 A 
ATOM      8  S   UNL     1       4.073   4.492  18.751  0.00  0.00    +0.000 S 
ATOM      9  H   UNL     1       4.884   2.654  15.776  0.00  0.00    +0.000 HD
ENDROOT
BRANCH   1  12
ATOM     10  C   UNL     1       6.433   3.669  12.481  0.00  0.00    +0.000 C 
ATOM     11  C   UNL     1       5.888   3.843  13.857  0.00  0.00    +0.000 C 
ATOM     12  C   UNL     1       6.590   4.306  14.904  0.00  0.00    +0.000 C 
ENDBRANCH   1  12
BRANCH   7  13
ATOM     13  C   UNL     1       2.400   3.898  20.910  0.00  0.00    +0.000 C 
ATOM     14  C   UNL     1       1.497   5.111  20.687  0.00  0.00    +0.000 C 
ATOM     15  C   UNL     1       1.625   2.760  21.570  0.00  0.00    +0.000 C 
ENDBRANCH   7  13
TORSDOF 2
ENDMDL
MODEL 5
REMARK VINA RESULT:      -6.2      3.604      4.641
REMARK  Name = 
REMARK  5 active torsions:
REMARK  status: ('A' for Active; 'I' for Inactive)
REMARK    1  A    between atoms: C_1  and  C_2
REMARK    2  A    between atoms: C_3  and  C_4
REMARK    3  A    between atoms: C_10  and  C_11
REMARK    4  A    between atoms: C_11  and  C_12
REMARK    5  A    between atoms: C_11  and  C_13
REMARK                            x       y       z     vdW  Elec       q    Type
REMARK                         _______ _______ _______ _____ _____    ______ ____
ROOT
ATOM      1  C   UNL     1       8.358   8.849  18.390  0.00  0.00    +0.000 C 
ATOM      2  O   UNL     1       7.567   9.217  17.528  0.00  0.00    +0.000 OA
ATOM      3  N   UNL     1       8.494   7.582  18.896  0.00  0.00    +0.000 N 
ATOM      4  C   UNL     1       7.780   6.482  18.478  0.00  0.00    +0.000 A 
ATOM      5  N   UNL     1       7.792   5.334  19.120  0.00  0.00    +0.000 NA
ATOM      6  N   UNL     1       6.989   4.384  18.510  0.00  0.00    +0.000 NA
ATOM      7  C   UNL     1       6.442   4.840  17.400  0.00  0.00    +0.000 A 
ATOM      8  S   UNL     1       6.855   6.465  17.046  0.00  0.00    +0.000 S 
ATOM      9  H   UNL     1       9.085   7.405  19.698  0.00  0.00    +0.000 HD
ENDROOT
BRANCH   1  12
ATOM     10  C   UNL     1      10.492  12.028  18.869  0.00  0.00    +0.000 C 
ATOM     11  C   UNL     1       9.568  10.972  18.371  0.00  0.00    +0.000 C 
ATOM     12  C   UNL     1       9.280   9.836  19.028  0.00  0.00    +0.000 C 
ENDBRANCH   1  12
BRANCH   7  13
ATOM     13  C   UNL     1       5.554   4.059  16.471  0.00  0.00    +0.000 C 
ATOM     14  C   UNL     1       4.121   4.026  17.002  0.00  0.00    +0.000 C 
ATOM     15  C   UNL     1       5.594   4.635  15.057  0.00  0.00    +0.000 C 
ENDBRANCH   7  13
TORSDOF 2
ENDMDL
MODEL 6
REMARK VINA RESULT:      -6.2      4.447      4.947
REMARK  Name = 
REMARK  5 active torsions:
REMARK  status: ('A' for Active; 'I' for Inactive)
REMARK    1  A    between atoms: C_1  and  C_2
REMARK    2  A    between atoms: C_3  and  C_4
REMARK    3  A    between atoms: C_10  and  C_11
REMARK    4  A    between atoms: C_11  and  C_12
REMARK    5  A    between atoms: C_11  and  C_13
REMARK                            x       y       z     vdW  Elec       q    Type
REMARK                         _______ _______ _______ _____ _____    ______ ____
ROOT
ATOM      1  C   UNL     1       7.037   7.277  17.498  0.00  0.00    +0.000 C 
ATOM      2  O   UNL     1       6.159   7.552  16.687  0.00  0.00    +0.000 OA
ATOM      3  N   UNL     1       7.058   6.212  18.360  0.00  0.00    +0.000 N 
ATOM      4  C   UNL     1       6.095   5.230  18.429  0.00  0.00    +0.000 A 
ATOM      5  N   UNL     1       6.045   4.342  19.398  0.00  0.00    +0.000 NA
ATOM      6  N   UNL     1       4.983   3.466  19.251  0.00  0.00    +0.000 NA
ATOM      7  C   UNL     1       4.302   3.696  18.145  0.00  0.00    +0.000 A 
ATOM      8  S   UNL     1       4.903   5.014  17.229  0.00  0.00    +0.000 S 
ATOM      9  H   UNL     1       7.763   6.143  19.082  0.00  0.00    +0.000 HD
ENDROOT
BRANCH   1  12
ATOM     10  C   UNL     1       9.132  10.429  18.254  0.00  0.00    +0.000 C 
ATOM     11  C   UNL     1       8.046   9.422  18.091  0.00  0.00    +0.000 C 
ATOM     12  C   UNL     1       8.226   8.170  17.641  0.00  0.00    +0.000 C 
ENDBRANCH   1  12
BRANCH   7  13
ATOM     13  C   UNL     1       3.120   2.905  17.657  0.00  0.00    +0.000 C 
ATOM     14  C   UNL     1       2.889   1.684  18.547  0.00  0.00    +0.000 C 
ATOM     15  C   UNL     1       1.865   3.773  17.592  0.00  0.00    +0.000 C 
ENDBRANCH   7  13
TORSDOF 2
ENDMDL
MODEL 7
REMARK VINA RESULT:      -6.1      4.422      6.874
REMARK  Name = 
REMARK  5 active torsions:
REMARK  status: ('A' for Active; 'I' for Inactive)
REMARK    1  A    between atoms: C_1  and  C_2
REMARK    2  A    between atoms: C_3  and  C_4
REMARK    3  A    between atoms: C_10  and  C_11
REMARK    4  A    between atoms: C_11  and  C_12
REMARK    5  A    between atoms: C_11  and  C_13
REMARK                            x       y       z     vdW  Elec       q    Type
REMARK                         _______ _______ _______ _____ _____    ______ ____
ROOT
ATOM      1  C   UNL     1       5.467   4.925  15.978  0.00  0.00    +0.000 C 
ATOM      2  O   UNL     1       4.873   5.989  16.127  0.00  0.00    +0.000 OA
ATOM      3  N   UNL     1       5.472   3.857  16.836  0.00  0.00    +0.000 N 
ATOM      4  C   UNL     1       4.759   3.783  18.012  0.00  0.00    +0.000 A 
ATOM      5  N   UNL     1       4.945   2.834  18.904  0.00  0.00    +0.000 NA
ATOM      6  N   UNL     1       4.116   2.981  20.005  0.00  0.00    +0.000 NA
ATOM      7  C   UNL     1       3.300   4.009  19.876  0.00  0.00    +0.000 A 
ATOM      8  S   UNL     1       3.512   4.875  18.412  0.00  0.00    +0.000 S 
ATOM      9  H   UNL     1       6.096   3.075  16.688  0.00  0.00    +0.000 HD
ENDROOT
BRANCH   1  12
ATOM     10  C   UNL     1       6.589   3.654  12.511  0.00  0.00    +0.000 C 
ATOM     11  C   UNL     1       5.839   3.975  13.758  0.00  0.00    +0.000 C 
ATOM     12  C   UNL     1       6.322   4.711  14.772  0.00  0.00    +0.000 C 
ENDBRANCH   1  12
BRANCH   7  13
ATOM     13  C   UNL     1       2.245   4.425  20.862  0.00  0.00    +0.000 C 
ATOM     14  C   UNL     1       1.772   5.849  20.572  0.00  0.00    +0.000 C 
ATOM     15  C   UNL     1       1.068   3.452  20.853  0.00  0.00    +0.000 C 
ENDBRANCH   7  13
TORSDOF 2
ENDMDL
MODEL 8
REMARK VINA RESULT:      -6.1      3.479      4.512
REMARK  Name = 
REMARK  5 active torsions:
REMARK  status: ('A' for Active; 'I' for Inactive)
REMARK    1  A    between atoms: C_1  and  C_2
REMARK    2  A    between atoms: C_3  and  C_4
REMARK    3  A    between atoms: C_10  and  C_11
REMARK    4  A    between atoms: C_11  and  C_12
REMARK    5  A    between atoms: C_11  and  C_13
REMARK                            x       y       z     vdW  Elec       q    Type
REMARK                         _______ _______ _______ _____ _____    ______ ____
ROOT
ATOM      1  C   UNL     1       4.304   3.259  18.469  0.00  0.00    +0.000 C 
ATOM      2  O   UNL     1       3.570   2.824  17.589  0.00  0.00    +0.000 OA
ATOM      3  N   UNL     1       5.507   3.894  18.299  0.00  0.00    +0.000 N 
ATOM      4  C   UNL     1       6.079   4.193  17.083  0.00  0.00    +0.000 A 
ATOM      5  N   UNL     1       7.319   4.617  16.959  0.00  0.00    +0.000 NA
ATOM      6  N   UNL     1       7.666   4.841  15.636  0.00  0.00    +0.000 NA
ATOM      7  C   UNL     1       6.655   4.625  14.817  0.00  0.00    +0.000 A 
ATOM      8  S   UNL     1       5.225   4.111  15.610  0.00  0.00    +0.000 S 
ATOM      9  H   UNL     1       6.101   4.101  19.091  0.00  0.00    +0.000 HD
ENDROOT
BRANCH   1  12
ATOM     10  C   UNL     1       2.122   3.043  21.645  0.00  0.00    +0.000 C 
ATOM     11  C   UNL     1       2.636   3.164  20.252  0.00  0.00    +0.000 C 
ATOM     12  C   UNL     1       3.931   3.088  19.906  0.00  0.00    +0.000 C 
ENDBRANCH   1  12
BRANCH   7  13
ATOM     13  C   UNL     1       6.673   4.815  13.326  0.00  0.00    +0.000 C 
ATOM     14  C   UNL     1       8.042   5.318  12.867  0.00  0.00    +0.000 C 
ATOM     15  C   UNL     1       6.300   3.524  12.601  0.00  0.00    +0.000 C 
ENDBRANCH   7  13
TORSDOF 2
ENDMDL
MODEL 9
REMARK VINA RESULT:      -6.0      2.114      6.457
REMARK  Name = 
REMARK  5 active torsions:
REMARK  status: ('A' for Active; 'I' for Inactive)
REMARK    1  A    between atoms: C_1  and  C_2
REMARK    2  A    between atoms: C_3  and  C_4
REMARK    3  A    between atoms: C_10  and  C_11
REMARK    4  A    between atoms: C_11  and  C_12
REMARK    5  A    between atoms: C_11  and  C_13
REMARK                            x       y       z     vdW  Elec       q    Type
REMARK                         _______ _______ _______ _____ _____    ______ ____
ROOT
ATOM      1  C   UNL     1       5.913   3.651  12.854  0.00  0.00    +0.000 C 
ATOM      2  O   UNL     1       7.065   4.041  12.694  0.00  0.00    +0.000 OA
ATOM      3  N   UNL     1       5.199   3.648  14.025  0.00  0.00    +0.000 N 
ATOM      4  C   UNL     1       5.654   4.134  15.230  0.00  0.00    +0.000 A 
ATOM      5  N   UNL     1       5.025   3.932  16.368  0.00  0.00    +0.000 NA
ATOM      6  N   UNL     1       5.683   4.511  17.440  0.00  0.00    +0.000 NA
ATOM      7  C   UNL     1       6.759   5.173  17.061  0.00  0.00    +0.000 A 
ATOM      8  S   UNL     1       7.047   5.108  15.372  0.00  0.00    +0.000 S 
ATOM      9  H   UNL     1       4.302   3.187  14.084  0.00  0.00    +0.000 HD
ENDROOT
BRANCH   1  12
ATOM     10  C   UNL     1       3.151   3.206  10.196  0.00  0.00    +0.000 C 
ATOM     11  C   UNL     1       4.024   3.683  11.304  0.00  0.00    +0.000 C 
ATOM     12  C   UNL     1       5.153   3.075  11.704  0.00  0.00    +0.000 C 
ENDBRANCH   1  12
BRANCH   7  13
ATOM     13  C   UNL     1       7.676   5.954  17.961  0.00  0.00    +0.000 C 
ATOM     14  C   UNL     1       7.588   7.448  17.650  0.00  0.00    +0.000 C 
ATOM     15  C   UNL     1       7.363   5.687  19.431  0.00  0.00    +0.000 C 
ENDBRANCH   7  13
TORSDOF 2
ENDMDL
