MODEL 1
REMARK VINA RESULT:      -5.8      0.000      0.000
REMARK  Name = 
REMARK  7 active torsions:
REMARK  status: ('A' for Active; 'I' for Inactive)
REMARK    1  A    between atoms: S_2  and  C_3
REMARK    2  A    between atoms: S_2  and  C_10
REMARK    3  A    between atoms: C_3  and  C_4
REMARK    4  A    between atoms: C_4  and  C_5
REMARK    5  A    between atoms: C_5  and  C_6
REMARK    6  A    between atoms: C_6  and  N_7
REMARK    7  A    between atoms: C_10  and  C_11
REMARK                            x       y       z     vdW  Elec       q    Type
REMARK                         _______ _______ _______ _____ _____    ______ ____
ROOT
ATOM      1  O   UNL     1       5.591   3.831  19.114  0.00  0.00    +0.000 OA
ATOM      2  S   UNL     1       5.353   5.387  19.098  0.00  0.00    +0.000 S 
ENDROOT
BRANCH   2   3
ATOM      3  C   UNL     1       6.262   6.028  17.650  0.00  0.00    +0.000 C 
BRANCH   3   4
ATOM      4  C   UNL     1       5.318   6.578  16.589  0.00  0.00    +0.000 C 
BRANCH   4   5
ATOM      5  C   UNL     1       5.335   5.734  15.314  0.00  0.00    +0.000 C 
BRANCH   5   6
ATOM      6  C   UNL     1       6.235   4.512  15.499  0.00  0.00    +0.000 C 
BRANCH   6   7
ATOM      7  N   UNL     1       6.968   4.272  14.248  0.00  0.00    +0.000 NA
ATOM      8  C   UNL     1       6.308   3.859  13.371  0.00  0.00    +0.000 C 
ATOM      9  S   UNL     1       5.411   3.295  12.182  0.00  0.00    +0.000 S 
ENDBRANCH   6   7
ENDBRANCH   5   6
ENDBRANCH   4   5
ENDBRANCH   3   4
ENDBRANCH   2   3
BRANCH   2  10
ATOM     10  C   UNL     1       3.668   5.704  18.460  0.00  0.00    +0.000 C 
BRANCH  10  11
ATOM     11  C   UNL     1       2.638   4.731  18.978  0.00  0.00    +0.000 A 
ATOM     12  C   UNL     1       2.019   3.818  18.112  0.00  0.00    +0.000 A 
ATOM     13  C   UNL     1       1.070   2.911  18.592  0.00  0.00    +0.000 A 
ATOM     14  C   UNL     1       0.732   2.908  19.943  0.00  0.00    +0.000 A 
ATOM     15  C   UNL     1       1.350   3.797  20.817  0.00  0.00    +0.000 A 
ATOM     16  C   UNL     1       2.304   4.698  20.339  0.00  0.00    +0.000 A 
ENDBRANCH  10  11
ENDBRANCH   2  10
TORSDOF 7
ENDMDL
MODEL 2
REMARK VINA RESULT:      -5.6      0.574      1.330
REMARK  Name = 
REMARK  7 active torsions:
REMARK  status: ('A' for Active; 'I' for Inactive)
REMARK    1  A    between atoms: S_2  and  C_3
REMARK    2  A    between atoms: S_2  and  C_10
REMARK    3  A    between atoms: C_3  and  C_4
REMARK    4  A    between atoms: C_4  and  C_5
REMARK    5  A    between atoms: C_5  and  C_6
REMARK    6  A    between atoms: C_6  and  N_7
REMARK    7  A    between atoms: C_10  and  C_11
REMARK                            x       y       z     vdW  Elec       q    Type
REMARK                         _______ _______ _______ _____ _____    ______ ____
ROOT
ATOM      1  O   UNL     1       5.540   3.817  18.969  0.00  0.00    +0.000 OA
ATOM      2  S   UNL     1       5.458   5.378  19.153  0.00  0.00    +0.000 S 
ENDROOT
BRANCH   2   3
ATOM      3  C   UNL     1       6.243   6.110  17.675  0.00  0.00    +0.000 C 
BRANCH   3   4
ATOM      4  C   UNL     1       5.274   6.192  16.504  0.00  0.00    +0.000 C 
BRANCH   4   5
ATOM      5  C   UNL     1       5.250   4.900  15.687  0.00  0.00    +0.000 C 
BRANCH   5   6
ATOM      6  C   UNL     1       6.096   5.057  14.423  0.00  0.00    +0.000 C 
BRANCH   6   7
ATOM      7  N   UNL     1       6.337   3.726  13.848  0.00  0.00    +0.000 NA
ATOM      8  C   UNL     1       5.693   3.484  12.898  0.00  0.00    +0.000 C 
ATOM      9  S   UNL     1       4.815   3.155  11.611  0.00  0.00    +0.000 S 
ENDBRANCH   6   7
ENDBRANCH   5   6
ENDBRANCH   4   5
ENDBRANCH   3   4
ENDBRANCH   2   3
BRANCH   2  10
ATOM     10  C   UNL     1       3.747   5.911  18.781  0.00  0.00    +0.000 C 
BRANCH  10  11
ATOM     11  C   UNL     1       2.710   4.862  19.100  0.00  0.00    +0.000 A 
ATOM     12  C   UNL     1       2.257   4.683  20.416  0.00  0.00    +0.000 A 
ATOM     13  C   UNL     1       1.292   3.718  20.711  0.00  0.00    +0.000 A 
ATOM     14  C   UNL     1       0.769   2.921  19.695  0.00  0.00    +0.000 A 
ATOM     15  C   UNL     1       1.198   3.099  18.383  0.00  0.00    +0.000 A 
ATOM     16  C   UNL     1       2.156   4.070  18.085  0.00  0.00    +0.000 A 
ENDBRANCH  10  11
ENDBRANCH   2  10
TORSDOF 7
ENDMDL
MODEL 3
REMARK VINA RESULT:      -5.5      3.099      5.887
REMARK  Name = 
REMARK  7 active torsions:
REMARK  status: ('A' for Active; 'I' for Inactive)
REMARK    1  A    between atoms: S_2  and  C_3
REMARK    2  A    between atoms: S_2  and  C_10
REMARK    3  A    between atoms: C_3  and  C_4
REMARK    4  A    between atoms: C_4  and  C_5
REMARK    5  A    between atoms: C_5  and  C_6
REMARK    6  A    between atoms: C_6  and  N_7
REMARK    7  A    between atoms: C_10  and  C_11
REMARK                            x       y       z     vdW  Elec       q    Type
REMARK                         _______ _______ _______ _____ _____    ______ ____
ROOT
ATOM      1  O   UNL     1       2.435   7.027  19.752  0.00  0.00    +0.000 OA
ATOM      2  S   UNL     1       3.257   5.961  18.937  0.00  0.00    +0.000 S 
ENDROOT
BRANCH   2   3
ATOM      3  C   UNL     1       2.037   5.010  17.964  0.00  0.00    +0.000 C 
BRANCH   3   4
ATOM      4  C   UNL     1       2.664   3.780  17.322  0.00  0.00    +0.000 C 
BRANCH   4   5
ATOM      5  C   UNL     1       2.227   2.487  18.012  0.00  0.00    +0.000 C 
BRANCH   5   6
ATOM      6  C   UNL     1       3.447   1.734  18.545  0.00  0.00    +0.000 C 
BRANCH   6   7
ATOM      7  N   UNL     1       3.913   2.398  19.770  0.00  0.00    +0.000 NA
ATOM      8  C   UNL     1       3.075   2.590  20.567  0.00  0.00    +0.000 C 
ATOM      9  S   UNL     1       1.934   2.853  21.647  0.00  0.00    +0.000 S 
ENDBRANCH   6   7
ENDBRANCH   5   6
ENDBRANCH   4   5
ENDBRANCH   3   4
ENDBRANCH   2   3
BRANCH   2  10
ATOM     10  C   UNL     1       4.055   6.807  17.525  0.00  0.00    +0.000 C 
BRANCH  10  11
ATOM     11  C   UNL     1       5.177   6.012  16.906  0.00  0.00    +0.000 A 
ATOM     12  C   UNL     1       6.165   5.426  17.712  0.00  0.00    +0.000 A 
ATOM     13  C   UNL     1       7.201   4.683  17.141  0.00  0.00    +0.000 A 
ATOM     14  C   UNL     1       7.260   4.517  15.759  0.00  0.00    +0.000 A 
ATOM     15  C   UNL     1       6.277   5.079  14.949  0.00  0.00    +0.000 A 
ATOM     16  C   UNL     1       5.237   5.815  15.520  0.00  0.00    +0.000 A 
ENDBRANCH  10  11
ENDBRANCH   2  10
TORSDOF 7
ENDMDL
MODEL 4
REMARK VINA RESULT:      -5.5      1.108      1.712
REMARK  Name = 
REMARK  7 active torsions:
REMARK  status: ('A' for Active; 'I' for Inactive)
REMARK    1  A    between atoms: S_2  and  C_3
REMARK    2  A    between atoms: S_2  and  C_10
REMARK    3  A    between atoms: C_3  and  C_4
REMARK    4  A    between atoms: C_4  and  C_5
REMARK    5  A    between atoms: C_5  and  C_6
REMARK    6  A    between atoms: C_6  and  N_7
REMARK    7  A    between atoms: C_10  and  C_11
REMARK                            x       y       z     vdW  Elec       q    Type
REMARK                         _______ _______ _______ _____ _____    ______ ____
ROOT
ATOM      1  O   UNL     1       5.530   3.909  19.335  0.00  0.00    +0.000 OA
ATOM      2  S   UNL     1       5.503   5.310  18.619  0.00  0.00    +0.000 S 
ENDROOT
BRANCH   2   3
ATOM      3  C   UNL     1       6.367   5.086  17.025  0.00  0.00    +0.000 C 
BRANCH   3   4
ATOM      4  C   UNL     1       5.394   5.059  15.854  0.00  0.00    +0.000 C 
BRANCH   4   5
ATOM      5  C   UNL     1       6.117   5.079  14.507  0.00  0.00    +0.000 C 
BRANCH   5   6
ATOM      6  C   UNL     1       6.224   3.661  13.944  0.00  0.00    +0.000 C 
BRANCH   6   7
ATOM      7  N   UNL     1       5.709   3.660  12.567  0.00  0.00    +0.000 NA
ATOM      8  C   UNL     1       5.925   2.675  11.970  0.00  0.00    +0.000 C 
ATOM      9  S   UNL     1       6.222   1.337  11.158  0.00  0.00    +0.000 S 
ENDBRANCH   6   7
ENDBRANCH   5   6
ENDBRANCH   4   5
ENDBRANCH   3   4
ENDBRANCH   2   3
BRANCH   2  10
ATOM     10  C   UNL     1       3.828   5.569  17.927  0.00  0.00    +0.000 C 
BRANCH  10  11
ATOM     11  C   UNL     1       2.779   4.684  18.553  0.00  0.00    +0.000 A 
ATOM     12  C   UNL     1       2.210   5.017  19.792  0.00  0.00    +0.000 A 
ATOM     13  C   UNL     1       1.233   4.203  20.369  0.00  0.00    +0.000 A 
ATOM     14  C   UNL     1       0.813   3.048  19.714  0.00  0.00    +0.000 A 
ATOM     15  C   UNL     1       1.356   2.714  18.476  0.00  0.00    +0.000 A 
ATOM     16  C   UNL     1       2.327   3.532  17.895  0.00  0.00    +0.000 A 
ENDBRANCH  10  11
ENDBRANCH   2  10
TORSDOF 7
ENDMDL
MODEL 5
REMARK VINA RESULT:      -5.5      0.961      1.284
REMARK  Name = 
REMARK  7 active torsions:
REMARK  status: ('A' for Active; 'I' for Inactive)
REMARK    1  A    between atoms: S_2  and  C_3
REMARK    2  A    between atoms: S_2  and  C_10
REMARK    3  A    between atoms: C_3  and  C_4
REMARK    4  A    between atoms: C_4  and  C_5
REMARK    5  A    between atoms: C_5  and  C_6
REMARK    6  A    between atoms: C_6  and  N_7
REMARK    7  A    between atoms: C_10  and  C_11
REMARK                            x       y       z     vdW  Elec       q    Type
REMARK                         _______ _______ _______ _____ _____    ______ ____
ROOT
ATOM      1  O   UNL     1       5.377   3.991  18.379  0.00  0.00    +0.000 OA
ATOM      2  S   UNL     1       5.132   5.518  18.092  0.00  0.00    +0.000 S 
ENDROOT
BRANCH   2   3
ATOM      3  C   UNL     1       5.619   5.796  16.353  0.00  0.00    +0.000 C 
BRANCH   3   4
ATOM      4  C   UNL     1       4.992   4.769  15.421  0.00  0.00    +0.000 C 
BRANCH   4   5
ATOM      5  C   UNL     1       6.028   3.789  14.867  0.00  0.00    +0.000 C 
BRANCH   5   6
ATOM      6  C   UNL     1       6.752   4.406  13.670  0.00  0.00    +0.000 C 
BRANCH   6   7
ATOM      7  N   UNL     1       6.692   3.462  12.545  0.00  0.00    +0.000 NA
ATOM      8  C   UNL     1       5.634   3.364  12.050  0.00  0.00    +0.000 C 
ATOM      9  S   UNL     1       4.194   3.228  11.383  0.00  0.00    +0.000 S 
ENDBRANCH   6   7
ENDBRANCH   5   6
ENDBRANCH   4   5
ENDBRANCH   3   4
ENDBRANCH   2   3
BRANCH   2  10
ATOM     10  C   UNL     1       3.335   5.778  17.863  0.00  0.00    +0.000 C 
BRANCH  10  11
ATOM     11  C   UNL     1       2.485   4.878  18.725  0.00  0.00    +0.000 A 
ATOM     12  C   UNL     1       1.753   3.827  18.153  0.00  0.00    +0.000 A 
ATOM     13  C   UNL     1       0.971   2.987  18.951  0.00  0.00    +0.000 A 
ATOM     14  C   UNL     1       0.914   3.190  20.328  0.00  0.00    +0.000 A 
ATOM     15  C   UNL     1       1.648   4.219  20.910  0.00  0.00    +0.000 A 
ATOM     16  C   UNL     1       2.436   5.053  20.114  0.00  0.00    +0.000 A 
ENDBRANCH  10  11
ENDBRANCH   2  10
TORSDOF 7
ENDMDL
MODEL 6
REMARK VINA RESULT:      -5.4      3.246      4.505
REMARK  Name = 
REMARK  7 active torsions:
REMARK  status: ('A' for Active; 'I' for Inactive)
REMARK    1  A    between atoms: S_2  and  C_3
REMARK    2  A    between atoms: S_2  and  C_10
REMARK    3  A    between atoms: C_3  and  C_4
REMARK    4  A    between atoms: C_4  and  C_5
REMARK    5  A    between atoms: C_5  and  C_6
REMARK    6  A    between atoms: C_6  and  N_7
REMARK    7  A    between atoms: C_10  and  C_11
REMARK                            x       y       z     vdW  Elec       q    Type
REMARK                         _______ _______ _______ _____ _____    ______ ____
ROOT
ATOM      1  O   UNL     1       4.197   6.121  18.886  0.00  0.00    +0.000 OA
ATOM      2  S   UNL     1       4.503   5.396  17.524  0.00  0.00    +0.000 S 
ENDROOT
BRANCH   2   3
ATOM      3  C   UNL     1       6.286   4.999  17.546  0.00  0.00    +0.000 C 
BRANCH   3   4
ATOM      4  C   UNL     1       7.126   6.147  17.002  0.00  0.00    +0.000 C 
BRANCH   4   5
ATOM      5  C   UNL     1       7.782   6.958  18.120  0.00  0.00    +0.000 C 
BRANCH   5   6
ATOM      6  C   UNL     1       7.908   8.424  17.706  0.00  0.00    +0.000 C 
BRANCH   6   7
ATOM      7  N   UNL     1       8.704   9.134  18.718  0.00  0.00    +0.000 NA
ATOM      8  C   UNL     1       8.953  10.247  18.446  0.00  0.00    +0.000 C 
ATOM      9  S   UNL     1       9.293  11.757  18.074  0.00  0.00    +0.000 S 
ENDBRANCH   6   7
ENDBRANCH   5   6
ENDBRANCH   4   5
ENDBRANCH   3   4
ENDBRANCH   2   3
BRANCH   2  10
ATOM     10  C   UNL     1       3.892   3.675  17.639  0.00  0.00    +0.000 C 
BRANCH  10  11
ATOM     11  C   UNL     1       3.003   3.434  18.833  0.00  0.00    +0.000 A 
ATOM     12  C   UNL     1       3.545   2.989  20.048  0.00  0.00    +0.000 A 
ATOM     13  C   UNL     1       2.723   2.773  21.158  0.00  0.00    +0.000 A 
ATOM     14  C   UNL     1       1.352   2.999  21.064  0.00  0.00    +0.000 A 
ATOM     15  C   UNL     1       0.803   3.456  19.869  0.00  0.00    +0.000 A 
ATOM     16  C   UNL     1       1.625   3.680  18.763  0.00  0.00    +0.000 A 
ENDBRANCH  10  11
ENDBRANCH   2  10
TORSDOF 7
ENDMDL
MODEL 7
REMARK VINA RESULT:      -5.4      3.971      5.405
REMARK  Name = 
REMARK  7 active torsions:
REMARK  status: ('A' for Active; 'I' for Inactive)
REMARK    1  A    between atoms: S_2  and  C_3
REMARK    2  A    between atoms: S_2  and  C_10
REMARK    3  A    between atoms: C_3  and  C_4
REMARK    4  A    between atoms: C_4  and  C_5
REMARK    5  A    between atoms: C_5  and  C_6
REMARK    6  A    between atoms: C_6  and  N_7
REMARK    7  A    between atoms: C_10  and  C_11
REMARK                            x       y       z     vdW  Elec       q    Type
REMARK                         _______ _______ _______ _____ _____    ______ ____
ROOT
ATOM      1  O   UNL     1       6.727   4.328  18.802  0.00  0.00    +0.000 OA
ATOM      2  S   UNL     1       6.121   5.703  18.336  0.00  0.00    +0.000 S 
ENDROOT
BRANCH   2   3
ATOM      3  C   UNL     1       7.383   6.483  17.269  0.00  0.00    +0.000 C 
BRANCH   3   4
ATOM      4  C   UNL     1       7.412   7.995  17.444  0.00  0.00    +0.000 C 
BRANCH   4   5
ATOM      5  C   UNL     1       8.492   8.437  18.432  0.00  0.00    +0.000 C 
BRANCH   5   6
ATOM      6  C   UNL     1       8.746   9.939  18.302  0.00  0.00    +0.000 C 
BRANCH   6   7
ATOM      7  N   UNL     1       9.179  10.460  19.606  0.00  0.00    +0.000 NA
ATOM      8  C   UNL     1      10.173  11.082  19.574  0.00  0.00    +0.000 C 
ATOM      9  S   UNL     1      11.525  11.922  19.530  0.00  0.00    +0.000 S 
ENDBRANCH   6   7
ENDBRANCH   5   6
ENDBRANCH   4   5
ENDBRANCH   3   4
ENDBRANCH   2   3
BRANCH   2  10
ATOM     10  C   UNL     1       4.893   5.372  17.020  0.00  0.00    +0.000 C 
BRANCH  10  11
ATOM     11  C   UNL     1       3.704   4.575  17.497  0.00  0.00    +0.000 A 
ATOM     12  C   UNL     1       2.666   5.197  18.207  0.00  0.00    +0.000 A 
ATOM     13  C   UNL     1       1.561   4.462  18.643  0.00  0.00    +0.000 A 
ATOM     14  C   UNL     1       1.482   3.098  18.372  0.00  0.00    +0.000 A 
ATOM     15  C   UNL     1       2.496   2.471  17.654  0.00  0.00    +0.000 A 
ATOM     16  C   UNL     1       3.597   3.207  17.211  0.00  0.00    +0.000 A 
ENDBRANCH  10  11
ENDBRANCH   2  10
TORSDOF 7
ENDMDL
MODEL 8
REMARK VINA RESULT:      -5.4      1.804      2.040
REMARK  Name = 
REMARK  7 active torsions:
REMARK  status: ('A' for Active; 'I' for Inactive)
REMARK    1  A    between atoms: S_2  and  C_3
REMARK    2  A    between atoms: S_2  and  C_10
REMARK    3  A    between atoms: C_3  and  C_4
REMARK    4  A    between atoms: C_4  and  C_5
REMARK    5  A    between atoms: C_5  and  C_6
REMARK    6  A    between atoms: C_6  and  N_7
REMARK    7  A    between atoms: C_10  and  C_11
REMARK                            x       y       z     vdW  Elec       q    Type
REMARK                         _______ _______ _______ _____ _____    ______ ____
ROOT
ATOM      1  O   UNL     1       2.684   6.884  19.783  0.00  0.00    +0.000 OA
ATOM      2  S   UNL     1       2.647   6.678  18.223  0.00  0.00    +0.000 S 
ENDROOT
BRANCH   2   3
ATOM      3  C   UNL     1       4.388   6.649  17.670  0.00  0.00    +0.000 C 
BRANCH   3   4
ATOM      4  C   UNL     1       4.647   5.521  16.680  0.00  0.00    +0.000 C 
BRANCH   4   5
ATOM      5  C   UNL     1       5.958   4.791  16.973  0.00  0.00    +0.000 C 
BRANCH   5   6
ATOM      6  C   UNL     1       6.576   4.272  15.674  0.00  0.00    +0.000 C 
BRANCH   6   7
ATOM      7  N   UNL     1       5.566   4.345  14.609  0.00  0.00    +0.000 NA
ATOM      8  C   UNL     1       5.915   3.905  13.580  0.00  0.00    +0.000 C 
ATOM      9  S   UNL     1       6.392   3.311  12.181  0.00  0.00    +0.000 S 
ENDBRANCH   6   7
ENDBRANCH   5   6
ENDBRANCH   4   5
ENDBRANCH   3   4
ENDBRANCH   2   3
BRANCH   2  10
ATOM     10  C   UNL     1       2.278   4.918  17.885  0.00  0.00    +0.000 C 
BRANCH  10  11
ATOM     11  C   UNL     1       2.281   4.057  19.123  0.00  0.00    +0.000 A 
ATOM     12  C   UNL     1       3.456   3.414  19.543  0.00  0.00    +0.000 A 
ATOM     13  C   UNL     1       3.461   2.622  20.694  0.00  0.00    +0.000 A 
ATOM     14  C   UNL     1       2.294   2.465  21.437  0.00  0.00    +0.000 A 
ATOM     15  C   UNL     1       1.126   3.110  21.041  0.00  0.00    +0.000 A 
ATOM     16  C   UNL     1       1.122   3.908  19.896  0.00  0.00    +0.000 A 
ENDBRANCH  10  11
ENDBRANCH   2  10
TORSDOF 7
ENDMDL
MODEL 9
REMARK VINA RESULT:      -5.4      3.151      4.596
REMARK  Name = 
REMARK  7 active torsions:
REMARK  status: ('A' for Active; 'I' for Inactive)
REMARK    1  A    between atoms: S_2  and  C_3
REMARK    2  A    between atoms: S_2  and  C_10
REMARK    3  A    between atoms: C_3  and  C_4
REMARK    4  A    between atoms: C_4  and  C_5
REMARK    5  A    between atoms: C_5  and  C_6
REMARK    6  A    between atoms: C_6  and  N_7
REMARK    7  A    between atoms: C_10  and  C_11
REMARK                            x       y       z     vdW  Elec       q    Type
REMARK                         _______ _______ _______ _____ _____    ______ ____
ROOT
ATOM      1  O   UNL     1       5.067   4.624  15.042  0.00  0.00    +0.000 OA
ATOM      2  S   UNL     1       5.264   4.155  16.531  0.00  0.00    +0.000 S 
ENDROOT
BRANCH   2   3
ATOM      3  C   UNL     1       6.973   4.610  16.988  0.00  0.00    +0.000 C 
BRANCH   3   4
ATOM      4  C   UNL     1       7.003   5.752  17.994  0.00  0.00    +0.000 C 
BRANCH   4   5
ATOM      5  C   UNL     1       7.396   7.079  17.344  0.00  0.00    +0.000 C 
BRANCH   5   6
ATOM      6  C   UNL     1       8.266   7.899  18.297  0.00  0.00    +0.000 C 
BRANCH   6   7
ATOM      7  N   UNL     1       8.218   9.309  17.886  0.00  0.00    +0.000 NA
ATOM      8  C   UNL     1       8.884  10.026  18.532  0.00  0.00    +0.000 C 
ATOM      9  S   UNL     1       9.786  10.998  19.414  0.00  0.00    +0.000 S 
ENDBRANCH   6   7
ENDBRANCH   5   6
ENDBRANCH   4   5
ENDBRANCH   3   4
ENDBRANCH   2   3
BRANCH   2  10
ATOM     10  C   UNL     1       4.417   5.353  17.626  0.00  0.00    +0.000 C 
BRANCH  10  11
ATOM     11  C   UNL     1       3.239   4.763  18.361  0.00  0.00    +0.000 A 
ATOM     12  C   UNL     1       2.937   5.171  19.669  0.00  0.00    +0.000 A 
ATOM     13  C   UNL     1       1.842   4.631  20.349  0.00  0.00    +0.000 A 
ATOM     14  C   UNL     1       1.038   3.678  19.728  0.00  0.00    +0.000 A 
ATOM     15  C   UNL     1       1.317   3.276  18.425  0.00  0.00    +0.000 A 
ATOM     16  C   UNL     1       2.406   3.821  17.743  0.00  0.00    +0.000 A 
ENDBRANCH  10  11
ENDBRANCH   2  10
TORSDOF 7
ENDMDL
