MODEL 1
REMARK VINA RESULT:      -8.4      0.000      0.000
REMARK  Name = 
REMARK  9 active torsions:
REMARK  status: ('A' for Active; 'I' for Inactive)
REMARK    1  A    between atoms: C_1  and  C_2
REMARK    2  A    between atoms: C_2  and  C_3
REMARK    3  A    between atoms: C_3  and  N_4
REMARK    4  A    between atoms: C_5  and  C_7
REMARK    5  A    between atoms: C_10  and  C_11
REMARK    6  A    between atoms: C_11  and  C_28
REMARK    7  A    between atoms: N_19  and  C_20
REMARK    8  A    between atoms: C_20  and  C_21
REMARK    9  A    between atoms: C_21  and  C_22
REMARK                            x       y       z     vdW  Elec       q    Type
REMARK                         _______ _______ _______ _____ _____    ______ ____
ROOT
ATOM      1  C   UNL     1       3.257   5.846  19.299  0.00  0.00    +0.000 C 
ATOM      2  C   UNL     1       4.569   5.769  18.946  0.00  0.00    +0.000 C 
ATOM      3  C   UNL     1       5.451   6.917  18.459  0.00  0.00    +0.000 C 
ATOM      4  C   UNL     1       6.104   6.583  17.081  0.00  0.00    +0.000 C 
ATOM      5  C   UNL     1       7.520   5.968  17.219  0.00  0.00    +0.000 C 
ATOM      6  C   UNL     1       7.308   4.452  17.190  0.00  0.00    +0.000 C 
ATOM      7  C   UNL     1       5.790   4.317  17.254  0.00  0.00    +0.000 C 
ATOM      8  C   UNL     1       5.334   4.458  18.756  0.00  0.00    +0.000 C 
ATOM      9  N   UNL     1       5.326   5.484  16.447  0.00  0.00    +0.000 NA
ENDROOT
BRANCH   1  13
ATOM     10  C   UNL     1       1.043   9.522  18.855  0.00  0.00    +0.000 A 
ATOM     11  C   UNL     1       1.173   8.903  20.104  0.00  0.00    +0.000 A 
ATOM     12  C   UNL     1       1.881   7.702  20.234  0.00  0.00    +0.000 A 
ATOM     13  C   UNL     1       2.466   7.089  19.115  0.00  0.00    +0.000 A 
ATOM     14  C   UNL     1       2.336   7.709  17.868  0.00  0.00    +0.000 A 
ATOM     15  C   UNL     1       1.626   8.917  17.736  0.00  0.00    +0.000 A 
BRANCH  10  17
ATOM     16  N   UNL     1      -0.892  10.766  17.978  0.00  0.00    +0.000 N 
ATOM     17  C   UNL     1       0.236  10.782  18.780  0.00  0.00    +0.000 C 
ATOM     18  O   UNL     1       0.593  11.774  19.403  0.00  0.00    +0.000 OA
ATOM     19  H   UNL     1      -1.057   9.988  17.358  0.00  0.00    +0.000 HD
BRANCH  16  20
ATOM     20  C   UNL     1      -1.736  11.941  17.838  0.00  0.00    +0.000 C 
BRANCH  20  22
ATOM     21  C   UNL     1      -2.832  12.595  20.011  0.00  0.00    +0.000 C 
ATOM     22  C   UNL     1      -3.001  11.855  18.692  0.00  0.00    +0.000 C 
ENDBRANCH  20  22
ENDBRANCH  16  20
ENDBRANCH  10  17
ENDBRANCH   1  13
BRANCH   1  23
ATOM     23  C   UNL     1       2.600   4.601  19.772  0.00  0.00    +0.000 A 
ATOM     24  C   UNL     1       1.838   3.846  18.873  0.00  0.00    +0.000 A 
ATOM     25  C   UNL     1       1.120   2.736  19.322  0.00  0.00    +0.000 A 
ATOM     26  C   UNL     1       1.163   2.380  20.673  0.00  0.00    +0.000 A 
ATOM     27  C   UNL     1       1.927   3.125  21.570  0.00  0.00    +0.000 A 
ATOM     28  C   UNL     1       2.652   4.230  21.121  0.00  0.00    +0.000 A 
ENDBRANCH   1  23
BRANCH   9  29
ATOM     29  C   UNL     1       5.579   5.441  14.995  0.00  0.00    +0.000 C 
BRANCH  29  30
ATOM     30  C   UNL     1       4.744   4.419  14.209  0.00  0.00    +0.000 C 
BRANCH  30  31
ATOM     31  C   UNL     1       5.587   3.738  13.150  0.00  0.00    +0.000 A 
ATOM     32  C   UNL     1       6.912   4.140  12.927  0.00  0.00    +0.000 A 
ATOM     33  C   UNL     1       7.680   3.534  11.930  0.00  0.00    +0.000 A 
ATOM     34  C   UNL     1       7.129   2.526  11.139  0.00  0.00    +0.000 A 
ATOM     35  C   UNL     1       5.810   2.126  11.345  0.00  0.00    +0.000 A 
ATOM     36  C   UNL     1       5.041   2.729  12.343  0.00  0.00    +0.000 A 
ENDBRANCH  30  31
ENDBRANCH  29  30
ENDBRANCH   9  29
TORSDOF 8
ENDMDL
MODEL 2
REMARK VINA RESULT:      -8.4      0.507      1.100
REMARK  Name = 
REMARK  9 active torsions:
REMARK  status: ('A' for Active; 'I' for Inactive)
REMARK    1  A    between atoms: C_1  and  C_2
REMARK    2  A    between atoms: C_2  and  C_3
REMARK    3  A    between atoms: C_3  and  N_4
REMARK    4  A    between atoms: C_5  and  C_7
REMARK    5  A    between atoms: C_10  and  C_11
REMARK    6  A    between atoms: C_11  and  C_28
REMARK    7  A    between atoms: N_19  and  C_20
REMARK    8  A    between atoms: C_20  and  C_21
REMARK    9  A    between atoms: C_21  and  C_22
REMARK                            x       y       z     vdW  Elec       q    Type
REMARK                         _______ _______ _______ _____ _____    ______ ____
ROOT
ATOM      1  C   UNL     1       3.266   5.850  19.382  0.00  0.00    +0.000 C 
ATOM      2  C   UNL     1       4.577   5.759  19.029  0.00  0.00    +0.000 C 
ATOM      3  C   UNL     1       5.482   6.903  18.575  0.00  0.00    +0.000 C 
ATOM      4  C   UNL     1       6.132   6.594  17.190  0.00  0.00    +0.000 C 
ATOM      5  C   UNL     1       7.536   5.951  17.314  0.00  0.00    +0.000 C 
ATOM      6  C   UNL     1       7.296   4.440  17.243  0.00  0.00    +0.000 C 
ATOM      7  C   UNL     1       5.776   4.331  17.300  0.00  0.00    +0.000 C 
ATOM      8  C   UNL     1       5.318   4.440  18.806  0.00  0.00    +0.000 C 
ATOM      9  N   UNL     1       5.335   5.528  16.525  0.00  0.00    +0.000 NA
ENDROOT
BRANCH   1  13
ATOM     10  C   UNL     1       0.948   9.451  18.855  0.00  0.00    +0.000 A 
ATOM     11  C   UNL     1       1.539   8.806  17.763  0.00  0.00    +0.000 A 
ATOM     12  C   UNL     1       2.302   7.646  17.946  0.00  0.00    +0.000 A 
ATOM     13  C   UNL     1       2.499   7.112  19.230  0.00  0.00    +0.000 A 
ATOM     14  C   UNL     1       1.905   7.757  20.321  0.00  0.00    +0.000 A 
ATOM     15  C   UNL     1       1.137   8.922  20.137  0.00  0.00    +0.000 A 
BRANCH  10  17
ATOM     16  N   UNL     1      -0.977  10.603  17.843  0.00  0.00    +0.000 N 
ATOM     17  C   UNL     1       0.181  10.710  18.592  0.00  0.00    +0.000 C 
ATOM     18  O   UNL     1       0.595  11.779  19.023  0.00  0.00    +0.000 OA
ATOM     19  H   UNL     1      -1.193   9.738  17.372  0.00  0.00    +0.000 HD
BRANCH  16  20
ATOM     20  C   UNL     1      -1.787  11.769  17.532  0.00  0.00    +0.000 C 
BRANCH  20  22
ATOM     21  C   UNL     1      -3.852  10.954  16.340  0.00  0.00    +0.000 C 
ATOM     22  C   UNL     1      -3.284  11.487  17.647  0.00  0.00    +0.000 C 
ENDBRANCH  20  22
ENDBRANCH  16  20
ENDBRANCH  10  17
ENDBRANCH   1  13
BRANCH   1  23
ATOM     23  C   UNL     1       2.585   4.605  19.819  0.00  0.00    +0.000 A 
ATOM     24  C   UNL     1       1.823   3.882  18.895  0.00  0.00    +0.000 A 
ATOM     25  C   UNL     1       1.083   2.773  19.311  0.00  0.00    +0.000 A 
ATOM     26  C   UNL     1       1.105   2.387  20.654  0.00  0.00    +0.000 A 
ATOM     27  C   UNL     1       1.869   3.101  21.576  0.00  0.00    +0.000 A 
ATOM     28  C   UNL     1       2.616   4.204  21.160  0.00  0.00    +0.000 A 
ENDBRANCH   1  23
BRANCH   9  29
ATOM     29  C   UNL     1       5.590   5.520  15.072  0.00  0.00    +0.000 C 
BRANCH  29  30
ATOM     30  C   UNL     1       4.739   4.534  14.258  0.00  0.00    +0.000 C 
BRANCH  30  31
ATOM     31  C   UNL     1       5.581   3.841  13.205  0.00  0.00    +0.000 A 
ATOM     32  C   UNL     1       6.901   4.250  12.966  0.00  0.00    +0.000 A 
ATOM     33  C   UNL     1       7.668   3.633  11.974  0.00  0.00    +0.000 A 
ATOM     34  C   UNL     1       7.120   2.607  11.206  0.00  0.00    +0.000 A 
ATOM     35  C   UNL     1       5.806   2.199  11.429  0.00  0.00    +0.000 A 
ATOM     36  C   UNL     1       5.039   2.813  12.421  0.00  0.00    +0.000 A 
ENDBRANCH  30  31
ENDBRANCH  29  30
ENDBRANCH   9  29
TORSDOF 8
ENDMDL
MODEL 3
REMARK VINA RESULT:      -8.4      0.650      1.115
REMARK  Name = 
REMARK  9 active torsions:
REMARK  status: ('A' for Active; 'I' for Inactive)
REMARK    1  A    between atoms: C_1  and  C_2
REMARK    2  A    between atoms: C_2  and  C_3
REMARK    3  A    between atoms: C_3  and  N_4
REMARK    4  A    between atoms: C_5  and  C_7
REMARK    5  A    between atoms: C_10  and  C_11
REMARK    6  A    between atoms: C_11  and  C_28
REMARK    7  A    between atoms: N_19  and  C_20
REMARK    8  A    between atoms: C_20  and  C_21
REMARK    9  A    between atoms: C_21  and  C_22
REMARK                            x       y       z     vdW  Elec       q    Type
REMARK                         _______ _______ _______ _____ _____    ______ ____
ROOT
ATOM      1  C   UNL     1       3.243   5.861  19.157  0.00  0.00    +0.000 C 
ATOM      2  C   UNL     1       4.551   5.773  18.792  0.00  0.00    +0.000 C 
ATOM      3  C   UNL     1       5.445   6.918  18.317  0.00  0.00    +0.000 C 
ATOM      4  C   UNL     1       6.083   6.597  16.929  0.00  0.00    +0.000 C 
ATOM      5  C   UNL     1       7.492   5.963  17.047  0.00  0.00    +0.000 C 
ATOM      6  C   UNL     1       7.261   4.450  16.996  0.00  0.00    +0.000 C 
ATOM      7  C   UNL     1       5.742   4.334  17.068  0.00  0.00    +0.000 C 
ATOM      8  C   UNL     1       5.298   4.456  18.577  0.00  0.00    +0.000 C 
ATOM      9  N   UNL     1       5.287   5.519  16.284  0.00  0.00    +0.000 NA
ENDROOT
BRANCH   1  13
ATOM     10  C   UNL     1       1.068   9.569  18.792  0.00  0.00    +0.000 A 
ATOM     11  C   UNL     1       1.156   8.901  20.019  0.00  0.00    +0.000 A 
ATOM     12  C   UNL     1       1.852   7.690  20.123  0.00  0.00    +0.000 A 
ATOM     13  C   UNL     1       2.466   7.116  18.998  0.00  0.00    +0.000 A 
ATOM     14  C   UNL     1       2.379   7.786  17.773  0.00  0.00    +0.000 A 
ATOM     15  C   UNL     1       1.681   9.003  17.668  0.00  0.00    +0.000 A 
BRANCH  10  17
ATOM     16  N   UNL     1      -1.053  10.740  18.355  0.00  0.00    +0.000 N 
ATOM     17  C   UNL     1       0.272  10.837  18.742  0.00  0.00    +0.000 C 
ATOM     18  O   UNL     1       0.804  11.903  19.025  0.00  0.00    +0.000 OA
ATOM     19  H   UNL     1      -1.403   9.874  17.975  0.00  0.00    +0.000 HD
BRANCH  16  20
ATOM     20  C   UNL     1      -1.904  11.915  18.273  0.00  0.00    +0.000 C 
BRANCH  20  22
ATOM     21  C   UNL     1      -3.629  10.199  17.618  0.00  0.00    +0.000 C 
ATOM     22  C   UNL     1      -3.390  11.559  18.257  0.00  0.00    +0.000 C 
ENDBRANCH  20  22
ENDBRANCH  16  20
ENDBRANCH  10  17
ENDBRANCH   1  13
BRANCH   1  23
ATOM     23  C   UNL     1       2.574   4.617  19.615  0.00  0.00    +0.000 A 
ATOM     24  C   UNL     1       1.823   3.868  18.702  0.00  0.00    +0.000 A 
ATOM     25  C   UNL     1       1.094   2.759  19.135  0.00  0.00    +0.000 A 
ATOM     26  C   UNL     1       1.115   2.399  20.486  0.00  0.00    +0.000 A 
ATOM     27  C   UNL     1       1.867   3.138  21.397  0.00  0.00    +0.000 A 
ATOM     28  C   UNL     1       2.603   4.241  20.963  0.00  0.00    +0.000 A 
ENDBRANCH   1  23
BRANCH   9  29
ATOM     29  C   UNL     1       5.528   5.495  14.829  0.00  0.00    +0.000 C 
BRANCH  29  30
ATOM     30  C   UNL     1       6.479   4.395  14.334  0.00  0.00    +0.000 C 
BRANCH  30  31
ATOM     31  C   UNL     1       5.905   3.698  13.118  0.00  0.00    +0.000 A 
ATOM     32  C   UNL     1       4.610   3.996  12.670  0.00  0.00    +0.000 A 
ATOM     33  C   UNL     1       4.068   3.331  11.568  0.00  0.00    +0.000 A 
ATOM     34  C   UNL     1       4.812   2.354  10.906  0.00  0.00    +0.000 A 
ATOM     35  C   UNL     1       6.096   2.043  11.348  0.00  0.00    +0.000 A 
ATOM     36  C   UNL     1       6.640   2.708  12.449  0.00  0.00    +0.000 A 
ENDBRANCH  30  31
ENDBRANCH  29  30
ENDBRANCH   9  29
TORSDOF 8
ENDMDL
MODEL 4
REMARK VINA RESULT:      -8.3      4.877     10.696
REMARK  Name = 
REMARK  9 active torsions:
REMARK  status: ('A' for Active; 'I' for Inactive)
REMARK    1  A    between atoms: C_1  and  C_2
REMARK    2  A    between atoms: C_2  and  C_3
REMARK    3  A    between atoms: C_3  and  N_4
REMARK    4  A    between atoms: C_5  and  C_7
REMARK    5  A    between atoms: C_10  and  C_11
REMARK    6  A    between atoms: C_11  and  C_28
REMARK    7  A    between atoms: N_19  and  C_20
REMARK    8  A    between atoms: C_20  and  C_21
REMARK    9  A    between atoms: C_21  and  C_22
REMARK                            x       y       z     vdW  Elec       q    Type
REMARK                         _______ _______ _______ _____ _____    ______ ____
ROOT
ATOM      1  C   UNL     1      -0.249  11.354  18.463  0.00  0.00    +0.000 C 
ATOM      2  C   UNL     1       0.413  12.540  18.396  0.00  0.00    +0.000 C 
ATOM      3  C   UNL     1       1.913  12.760  18.590  0.00  0.00    +0.000 C 
ATOM      4  C   UNL     1       2.190  13.822  19.700  0.00  0.00    +0.000 C 
ATOM      5  C   UNL     1       2.372  15.252  19.131  0.00  0.00    +0.000 C 
ATOM      6  C   UNL     1       0.989  15.903  19.222  0.00  0.00    +0.000 C 
ATOM      7  C   UNL     1       0.090  14.740  19.628  0.00  0.00    +0.000 C 
ATOM      8  C   UNL     1      -0.271  13.906  18.339  0.00  0.00    +0.000 C 
ATOM      9  N   UNL     1       0.969  13.952  20.540  0.00  0.00    +0.000 NA
ENDROOT
BRANCH   1  13
ATOM     10  C   UNL     1       1.832   7.761  19.637  0.00  0.00    +0.000 A 
ATOM     11  C   UNL     1       1.815   8.183  18.303  0.00  0.00    +0.000 A 
ATOM     12  C   UNL     1       1.123   9.342  17.930  0.00  0.00    +0.000 A 
ATOM     13  C   UNL     1       0.425  10.100  18.884  0.00  0.00    +0.000 A 
ATOM     14  C   UNL     1       0.445   9.678  20.218  0.00  0.00    +0.000 A 
ATOM     15  C   UNL     1       1.140   8.514  20.593  0.00  0.00    +0.000 A 
BRANCH  10  17
ATOM     16  N   UNL     1       1.955   5.630  20.863  0.00  0.00    +0.000 N 
ATOM     17  C   UNL     1       2.554   6.489  19.959  0.00  0.00    +0.000 C 
ATOM     18  O   UNL     1       3.637   6.253  19.438  0.00  0.00    +0.000 OA
ATOM     19  H   UNL     1       1.151   5.936  21.389  0.00  0.00    +0.000 HD
BRANCH  16  20
ATOM     20  C   UNL     1       2.581   4.374  21.241  0.00  0.00    +0.000 C 
BRANCH  20  22
ATOM     21  C   UNL     1       0.786   3.226  19.895  0.00  0.00    +0.000 C 
ATOM     22  C   UNL     1       1.610   3.196  21.174  0.00  0.00    +0.000 C 
ENDBRANCH  20  22
ENDBRANCH  16  20
ENDBRANCH  10  17
ENDBRANCH   1  13
BRANCH   1  23
ATOM     23  C   UNL     1      -1.713  11.371  18.214  0.00  0.00    +0.000 A 
ATOM     24  C   UNL     1      -2.195  11.036  16.944  0.00  0.00    +0.000 A 
ATOM     25  C   UNL     1      -3.556  11.156  16.656  0.00  0.00    +0.000 A 
ATOM     26  C   UNL     1      -4.437  11.613  17.640  0.00  0.00    +0.000 A 
ATOM     27  C   UNL     1      -3.962  11.940  18.909  0.00  0.00    +0.000 A 
ATOM     28  C   UNL     1      -2.603  11.813  19.200  0.00  0.00    +0.000 A 
ENDBRANCH   1  23
BRANCH   9  29
ATOM     29  C   UNL     1       1.299  14.556  21.844  0.00  0.00    +0.000 C 
BRANCH  29  30
ATOM     30  C   UNL     1       0.103  15.079  22.652  0.00  0.00    +0.000 C 
BRANCH  30  31
ATOM     31  C   UNL     1      -0.918  13.981  22.871  0.00  0.00    +0.000 A 
ATOM     32  C   UNL     1      -2.164  14.271  23.446  0.00  0.00    +0.000 A 
ATOM     33  C   UNL     1      -3.094  13.255  23.678  0.00  0.00    +0.000 A 
ATOM     34  C   UNL     1      -2.785  11.936  23.345  0.00  0.00    +0.000 A 
ATOM     35  C   UNL     1      -1.546  11.635  22.781  0.00  0.00    +0.000 A 
ATOM     36  C   UNL     1      -0.616  12.651  22.547  0.00  0.00    +0.000 A 
ENDBRANCH  30  31
ENDBRANCH  29  30
ENDBRANCH   9  29
TORSDOF 8
ENDMDL
MODEL 5
REMARK VINA RESULT:      -8.3      4.869     10.761
REMARK  Name = 
REMARK  9 active torsions:
REMARK  status: ('A' for Active; 'I' for Inactive)
REMARK    1  A    between atoms: C_1  and  C_2
REMARK    2  A    between atoms: C_2  and  C_3
REMARK    3  A    between atoms: C_3  and  N_4
REMARK    4  A    between atoms: C_5  and  C_7
REMARK    5  A    between atoms: C_10  and  C_11
REMARK    6  A    between atoms: C_11  and  C_28
REMARK    7  A    between atoms: N_19  and  C_20
REMARK    8  A    between atoms: C_20  and  C_21
REMARK    9  A    between atoms: C_21  and  C_22
REMARK                            x       y       z     vdW  Elec       q    Type
REMARK                         _______ _______ _______ _____ _____    ______ ____
ROOT
ATOM      1  C   UNL     1      -0.207  11.511  18.456  0.00  0.00    +0.000 C 
ATOM      2  C   UNL     1       0.483  12.683  18.424  0.00  0.00    +0.000 C 
ATOM      3  C   UNL     1       1.981  12.867  18.663  0.00  0.00    +0.000 C 
ATOM      4  C   UNL     1       2.250  13.908  19.795  0.00  0.00    +0.000 C 
ATOM      5  C   UNL     1       2.479  15.341  19.252  0.00  0.00    +0.000 C 
ATOM      6  C   UNL     1       1.107  16.020  19.314  0.00  0.00    +0.000 C 
ATOM      7  C   UNL     1       0.172  14.872  19.678  0.00  0.00    +0.000 C 
ATOM      8  C   UNL     1      -0.169  14.065  18.367  0.00  0.00    +0.000 C 
ATOM      9  N   UNL     1       1.009  14.052  20.602  0.00  0.00    +0.000 NA
ENDROOT
BRANCH   1  13
ATOM     10  C   UNL     1       1.763   7.858  19.636  0.00  0.00    +0.000 A 
ATOM     11  C   UNL     1       1.797   8.301  18.309  0.00  0.00    +0.000 A 
ATOM     12  C   UNL     1       1.142   9.480  17.933  0.00  0.00    +0.000 A 
ATOM     13  C   UNL     1       0.429  10.237  18.877  0.00  0.00    +0.000 A 
ATOM     14  C   UNL     1       0.397   9.794  20.204  0.00  0.00    +0.000 A 
ATOM     15  C   UNL     1       1.057   8.609  20.582  0.00  0.00    +0.000 A 
BRANCH  10  17
ATOM     16  N   UNL     1       1.804   5.706  20.830  0.00  0.00    +0.000 N 
ATOM     17  C   UNL     1       2.449   6.567  19.960  0.00  0.00    +0.000 C 
ATOM     18  O   UNL     1       3.544   6.317  19.470  0.00  0.00    +0.000 OA
ATOM     19  H   UNL     1       0.989   6.019  21.335  0.00  0.00    +0.000 HD
BRANCH  16  20
ATOM     20  C   UNL     1       2.392   4.431  21.207  0.00  0.00    +0.000 C 
BRANCH  20  22
ATOM     21  C   UNL     1       1.097   2.885  19.696  0.00  0.00    +0.000 C 
ATOM     22  C   UNL     1       1.387   3.282  21.136  0.00  0.00    +0.000 C 
ENDBRANCH  20  22
ENDBRANCH  16  20
ENDBRANCH  10  17
ENDBRANCH   1  13
BRANCH   1  23
ATOM     23  C   UNL     1      -1.662  11.563  18.166  0.00  0.00    +0.000 A 
ATOM     24  C   UNL     1      -2.549  11.938  19.182  0.00  0.00    +0.000 A 
ATOM     25  C   UNL     1      -3.927  11.885  18.964  0.00  0.00    +0.000 A 
ATOM     26  C   UNL     1      -4.420  11.455  17.729  0.00  0.00    +0.000 A 
ATOM     27  C   UNL     1      -3.539  11.089  16.712  0.00  0.00    +0.000 A 
ATOM     28  C   UNL     1      -2.162  11.149  16.925  0.00  0.00    +0.000 A 
ENDBRANCH   1  23
BRANCH   9  29
ATOM     29  C   UNL     1       1.315  14.631  21.924  0.00  0.00    +0.000 C 
BRANCH  29  30
ATOM     30  C   UNL     1       0.106  15.158  22.711  0.00  0.00    +0.000 C 
BRANCH  30  31
ATOM     31  C   UNL     1      -0.898  14.050  22.957  0.00  0.00    +0.000 A 
ATOM     32  C   UNL     1      -0.625  12.737  22.547  0.00  0.00    +0.000 A 
ATOM     33  C   UNL     1      -1.563  11.721  22.744  0.00  0.00    +0.000 A 
ATOM     34  C   UNL     1      -2.787  12.008  23.347  0.00  0.00    +0.000 A 
ATOM     35  C   UNL     1      -3.073  13.311  23.751  0.00  0.00    +0.000 A 
ATOM     36  C   UNL     1      -2.136  14.328  23.555  0.00  0.00    +0.000 A 
ENDBRANCH  30  31
ENDBRANCH  29  30
ENDBRANCH   9  29
TORSDOF 8
ENDMDL
MODEL 6
REMARK VINA RESULT:      -8.3      0.464      1.348
REMARK  Name = 
REMARK  9 active torsions:
REMARK  status: ('A' for Active; 'I' for Inactive)
REMARK    1  A    between atoms: C_1  and  C_2
REMARK    2  A    between atoms: C_2  and  C_3
REMARK    3  A    between atoms: C_3  and  N_4
REMARK    4  A    between atoms: C_5  and  C_7
REMARK    5  A    between atoms: C_10  and  C_11
REMARK    6  A    between atoms: C_11  and  C_28
REMARK    7  A    between atoms: N_19  and  C_20
REMARK    8  A    between atoms: C_20  and  C_21
REMARK    9  A    between atoms: C_21  and  C_22
REMARK                            x       y       z     vdW  Elec       q    Type
REMARK                         _______ _______ _______ _____ _____    ______ ____
ROOT
ATOM      1  C   UNL     1       3.142   5.929  19.358  0.00  0.00    +0.000 C 
ATOM      2  C   UNL     1       4.457   5.825  19.025  0.00  0.00    +0.000 C 
ATOM      3  C   UNL     1       5.371   6.954  18.551  0.00  0.00    +0.000 C 
ATOM      4  C   UNL     1       6.039   6.605  17.184  0.00  0.00    +0.000 C 
ATOM      5  C   UNL     1       7.439   5.962  17.345  0.00  0.00    +0.000 C 
ATOM      6  C   UNL     1       7.197   4.450  17.314  0.00  0.00    +0.000 C 
ATOM      7  C   UNL     1       5.676   4.346  17.354  0.00  0.00    +0.000 C 
ATOM      8  C   UNL     1       5.199   4.499  18.849  0.00  0.00    +0.000 C 
ATOM      9  N   UNL     1       5.248   5.521  16.539  0.00  0.00    +0.000 NA
ENDROOT
BRANCH   1  13
ATOM     10  C   UNL     1       1.009   9.648  18.877  0.00  0.00    +0.000 A 
ATOM     11  C   UNL     1       1.090   9.017  20.124  0.00  0.00    +0.000 A 
ATOM     12  C   UNL     1       1.772   7.803  20.266  0.00  0.00    +0.000 A 
ATOM     13  C   UNL     1       2.380   7.187  19.160  0.00  0.00    +0.000 A 
ATOM     14  C   UNL     1       2.299   7.819  17.915  0.00  0.00    +0.000 A 
ATOM     15  C   UNL     1       1.615   9.041  17.771  0.00  0.00    +0.000 A 
BRANCH  10  17
ATOM     16  N   UNL     1      -1.144  10.839  18.955  0.00  0.00    +0.000 N 
ATOM     17  C   UNL     1       0.227  10.922  18.788  0.00  0.00    +0.000 C 
ATOM     18  O   UNL     1       0.805  11.978  18.561  0.00  0.00    +0.000 OA
ATOM     19  H   UNL     1      -1.594   9.936  18.976  0.00  0.00    +0.000 HD
BRANCH  16  20
ATOM     20  C   UNL     1      -1.987  12.020  18.883  0.00  0.00    +0.000 C 
BRANCH  20  22
ATOM     21  C   UNL     1      -2.986  10.947  16.834  0.00  0.00    +0.000 C 
ATOM     22  C   UNL     1      -3.263  11.777  18.078  0.00  0.00    +0.000 C 
ENDBRANCH  20  22
ENDBRANCH  16  20
ENDBRANCH  10  17
ENDBRANCH   1  13
BRANCH   1  23
ATOM     23  C   UNL     1       2.453   4.698  19.821  0.00  0.00    +0.000 A 
ATOM     24  C   UNL     1       2.540   4.330  21.168  0.00  0.00    +0.000 A 
ATOM     25  C   UNL     1       1.996   3.120  21.601  0.00  0.00    +0.000 A 
ATOM     26  C   UNL     1       1.364   2.274  20.685  0.00  0.00    +0.000 A 
ATOM     27  C   UNL     1       1.268   2.640  19.344  0.00  0.00    +0.000 A 
ATOM     28  C   UNL     1       1.804   3.854  18.911  0.00  0.00    +0.000 A 
ENDBRANCH   1  23
BRANCH   9  29
ATOM     29  C   UNL     1       5.523   5.471  15.091  0.00  0.00    +0.000 C 
BRANCH  29  30
ATOM     30  C   UNL     1       4.730   4.417  14.304  0.00  0.00    +0.000 C 
BRANCH  30  31
ATOM     31  C   UNL     1       5.578   3.825  13.197  0.00  0.00    +0.000 A 
ATOM     32  C   UNL     1       5.077   2.792  12.391  0.00  0.00    +0.000 A 
ATOM     33  C   UNL     1       5.868   2.223  11.390  0.00  0.00    +0.000 A 
ATOM     34  C   UNL     1       7.172   2.676  11.189  0.00  0.00    +0.000 A 
ATOM     35  C   UNL     1       7.683   3.695  11.990  0.00  0.00    +0.000 A 
ATOM     36  C   UNL     1       6.893   4.266  12.990  0.00  0.00    +0.000 A 
ENDBRANCH  30  31
ENDBRANCH  29  30
ENDBRANCH   9  29
TORSDOF 8
ENDMDL
MODEL 7
REMARK VINA RESULT:      -8.2      1.203      1.329
REMARK  Name = 
REMARK  9 active torsions:
REMARK  status: ('A' for Active; 'I' for Inactive)
REMARK    1  A    between atoms: C_1  and  C_2
REMARK    2  A    between atoms: C_2  and  C_3
REMARK    3  A    between atoms: C_3  and  N_4
REMARK    4  A    between atoms: C_5  and  C_7
REMARK    5  A    between atoms: C_10  and  C_11
REMARK    6  A    between atoms: C_11  and  C_28
REMARK    7  A    between atoms: N_19  and  C_20
REMARK    8  A    between atoms: C_20  and  C_21
REMARK    9  A    between atoms: C_21  and  C_22
REMARK                            x       y       z     vdW  Elec       q    Type
REMARK                         _______ _______ _______ _____ _____    ______ ____
ROOT
ATOM      1  C   UNL     1       3.199   5.935  19.306  0.00  0.00    +0.000 C 
ATOM      2  C   UNL     1       4.517   5.852  18.977  0.00  0.00    +0.000 C 
ATOM      3  C   UNL     1       5.411   6.992  18.494  0.00  0.00    +0.000 C 
ATOM      4  C   UNL     1       6.089   6.640  17.132  0.00  0.00    +0.000 C 
ATOM      5  C   UNL     1       7.501   6.025  17.303  0.00  0.00    +0.000 C 
ATOM      6  C   UNL     1       7.285   4.509  17.288  0.00  0.00    +0.000 C 
ATOM      7  C   UNL     1       5.767   4.378  17.326  0.00  0.00    +0.000 C 
ATOM      8  C   UNL     1       5.282   4.538  18.818  0.00  0.00    +0.000 C 
ATOM      9  N   UNL     1       5.320   5.536  16.497  0.00  0.00    +0.000 NA
ENDROOT
BRANCH   1  13
ATOM     10  C   UNL     1       1.002   9.611  18.776  0.00  0.00    +0.000 A 
ATOM     11  C   UNL     1       1.116   9.012  20.036  0.00  0.00    +0.000 A 
ATOM     12  C   UNL     1       1.818   7.811  20.194  0.00  0.00    +0.000 A 
ATOM     13  C   UNL     1       2.414   7.177  19.092  0.00  0.00    +0.000 A 
ATOM     14  C   UNL     1       2.301   7.778  17.834  0.00  0.00    +0.000 A 
ATOM     15  C   UNL     1       1.597   8.985  17.674  0.00  0.00    +0.000 A 
BRANCH  10  17
ATOM     16  N   UNL     1       0.898  12.060  18.565  0.00  0.00    +0.000 N 
ATOM     17  C   UNL     1       0.200  10.871  18.671  0.00  0.00    +0.000 C 
ATOM     18  O   UNL     1      -1.024  10.821  18.696  0.00  0.00    +0.000 OA
ATOM     19  H   UNL     1       1.896  12.072  18.713  0.00  0.00    +0.000 HD
BRANCH  16  20
ATOM     20  C   UNL     1       0.209  13.336  18.462  0.00  0.00    +0.000 C 
BRANCH  20  22
ATOM     21  C   UNL     1       0.364  15.837  18.721  0.00  0.00    +0.000 C 
ATOM     22  C   UNL     1       1.080  14.508  18.910  0.00  0.00    +0.000 C 
ENDBRANCH  20  22
ENDBRANCH  16  20
ENDBRANCH  10  17
ENDBRANCH   1  13
BRANCH   1  23
ATOM     23  C   UNL     1       2.531   4.697  19.780  0.00  0.00    +0.000 A 
ATOM     24  C   UNL     1       1.736   3.965  18.892  0.00  0.00    +0.000 A 
ATOM     25  C   UNL     1       1.008   2.863  19.346  0.00  0.00    +0.000 A 
ATOM     26  C   UNL     1       1.075   2.493  20.692  0.00  0.00    +0.000 A 
ATOM     27  C   UNL     1       1.872   3.215  21.579  0.00  0.00    +0.000 A 
ATOM     28  C   UNL     1       2.606   4.312  21.124  0.00  0.00    +0.000 A 
ENDBRANCH   1  23
BRANCH   9  29
ATOM     29  C   UNL     1       5.599   5.475  15.050  0.00  0.00    +0.000 C 
BRANCH  29  30
ATOM     30  C   UNL     1       4.757   4.465  14.256  0.00  0.00    +0.000 C 
BRANCH  30  31
ATOM     31  C   UNL     1       5.593   3.793  13.186  0.00  0.00    +0.000 A 
ATOM     32  C   UNL     1       6.915   4.201  12.954  0.00  0.00    +0.000 A 
ATOM     33  C   UNL     1       7.676   3.604  11.946  0.00  0.00    +0.000 A 
ATOM     34  C   UNL     1       7.122   2.599  11.154  0.00  0.00    +0.000 A 
ATOM     35  C   UNL     1       5.806   2.192  11.370  0.00  0.00    +0.000 A 
ATOM     36  C   UNL     1       5.044   2.787  12.378  0.00  0.00    +0.000 A 
ENDBRANCH  30  31
ENDBRANCH  29  30
ENDBRANCH   9  29
TORSDOF 8
ENDMDL
MODEL 8
REMARK VINA RESULT:      -8.2      0.562      1.196
REMARK  Name = 
REMARK  9 active torsions:
REMARK  status: ('A' for Active; 'I' for Inactive)
REMARK    1  A    between atoms: C_1  and  C_2
REMARK    2  A    between atoms: C_2  and  C_3
REMARK    3  A    between atoms: C_3  and  N_4
REMARK    4  A    between atoms: C_5  and  C_7
REMARK    5  A    between atoms: C_10  and  C_11
REMARK    6  A    between atoms: C_11  and  C_28
REMARK    7  A    between atoms: N_19  and  C_20
REMARK    8  A    between atoms: C_20  and  C_21
REMARK    9  A    between atoms: C_21  and  C_22
REMARK                            x       y       z     vdW  Elec       q    Type
REMARK                         _______ _______ _______ _____ _____    ______ ____
ROOT
ATOM      1  C   UNL     1       3.147   5.756  19.093  0.00  0.00    +0.000 C 
ATOM      2  C   UNL     1       4.475   5.655  18.815  0.00  0.00    +0.000 C 
ATOM      3  C   UNL     1       5.435   6.806  18.518  0.00  0.00    +0.000 C 
ATOM      4  C   UNL     1       6.165   6.596  17.154  0.00  0.00    +0.000 C 
ATOM      5  C   UNL     1       7.542   5.903  17.308  0.00  0.00    +0.000 C 
ATOM      6  C   UNL     1       7.270   4.411  17.093  0.00  0.00    +0.000 C 
ATOM      7  C   UNL     1       5.748   4.344  17.047  0.00  0.00    +0.000 C 
ATOM      8  C   UNL     1       5.197   4.339  18.525  0.00  0.00    +0.000 C 
ATOM      9  N   UNL     1       5.387   5.614  16.352  0.00  0.00    +0.000 NA
ENDROOT
BRANCH   1  13
ATOM     10  C   UNL     1       1.128   9.565  18.926  0.00  0.00    +0.000 A 
ATOM     11  C   UNL     1       1.238   8.857  20.128  0.00  0.00    +0.000 A 
ATOM     12  C   UNL     1       1.882   7.615  20.169  0.00  0.00    +0.000 A 
ATOM     13  C   UNL     1       2.422   7.048  19.003  0.00  0.00    +0.000 A 
ATOM     14  C   UNL     1       2.314   7.758  17.802  0.00  0.00    +0.000 A 
ATOM     15  C   UNL     1       1.667   9.007  17.761  0.00  0.00    +0.000 A 
BRANCH  10  17
ATOM     16  N   UNL     1      -0.711  10.986  18.115  0.00  0.00    +0.000 N 
ATOM     17  C   UNL     1       0.389  10.867  18.946  0.00  0.00    +0.000 C 
ATOM     18  O   UNL     1       0.775  11.778  19.669  0.00  0.00    +0.000 OA
ATOM     19  H   UNL     1      -0.895  10.277  17.421  0.00  0.00    +0.000 HD
BRANCH  16  20
ATOM     20  C   UNL     1      -1.490  12.212  18.062  0.00  0.00    +0.000 C 
BRANCH  20  22
ATOM     21  C   UNL     1      -3.913  11.640  18.447  0.00  0.00    +0.000 C 
ATOM     22  C   UNL     1      -2.645  12.213  19.062  0.00  0.00    +0.000 C 
ENDBRANCH  20  22
ENDBRANCH  16  20
ENDBRANCH  10  17
ENDBRANCH   1  13
BRANCH   1  23
ATOM     23  C   UNL     1       2.410   4.499  19.378  0.00  0.00    +0.000 A 
ATOM     24  C   UNL     1       2.409   3.987  20.680  0.00  0.00    +0.000 A 
ATOM     25  C   UNL     1       1.819   2.750  20.947  0.00  0.00    +0.000 A 
ATOM     26  C   UNL     1       1.229   2.023  19.909  0.00  0.00    +0.000 A 
ATOM     27  C   UNL     1       1.221   2.534  18.612  0.00  0.00    +0.000 A 
ATOM     28  C   UNL     1       1.803   3.774  18.346  0.00  0.00    +0.000 A 
ENDBRANCH   1  23
BRANCH   9  29
ATOM     29  C   UNL     1       5.734   5.720  14.922  0.00  0.00    +0.000 C 
BRANCH  29  30
ATOM     30  C   UNL     1       6.764   4.701  14.415  0.00  0.00    +0.000 C 
BRANCH  30  31
ATOM     31  C   UNL     1       6.197   3.892  13.266  0.00  0.00    +0.000 A 
ATOM     32  C   UNL     1       7.042   3.130  12.445  0.00  0.00    +0.000 A 
ATOM     33  C   UNL     1       6.525   2.409  11.367  0.00  0.00    +0.000 A 
ATOM     34  C   UNL     1       5.159   2.449  11.091  0.00  0.00    +0.000 A 
ATOM     35  C   UNL     1       4.311   3.210  11.894  0.00  0.00    +0.000 A 
ATOM     36  C   UNL     1       4.826   3.930  12.974  0.00  0.00    +0.000 A 
ENDBRANCH  30  31
ENDBRANCH  29  30
ENDBRANCH   9  29
TORSDOF 8
ENDMDL
MODEL 9
REMARK VINA RESULT:      -8.1      1.243      1.909
REMARK  Name = 
REMARK  9 active torsions:
REMARK  status: ('A' for Active; 'I' for Inactive)
REMARK    1  A    between atoms: C_1  and  C_2
REMARK    2  A    between atoms: C_2  and  C_3
REMARK    3  A    between atoms: C_3  and  N_4
REMARK    4  A    between atoms: C_5  and  C_7
REMARK    5  A    between atoms: C_10  and  C_11
REMARK    6  A    between atoms: C_11  and  C_28
REMARK    7  A    between atoms: N_19  and  C_20
REMARK    8  A    between atoms: C_20  and  C_21
REMARK    9  A    between atoms: C_21  and  C_22
REMARK                            x       y       z     vdW  Elec       q    Type
REMARK                         _______ _______ _______ _____ _____    ______ ____
ROOT
ATOM      1  C   UNL     1       3.042   5.826  19.168  0.00  0.00    +0.000 C 
ATOM      2  C   UNL     1       4.369   5.689  18.898  0.00  0.00    +0.000 C 
ATOM      3  C   UNL     1       5.363   6.814  18.615  0.00  0.00    +0.000 C 
ATOM      4  C   UNL     1       6.096   6.593  17.254  0.00  0.00    +0.000 C 
ATOM      5  C   UNL     1       7.451   5.859  17.414  0.00  0.00    +0.000 C 
ATOM      6  C   UNL     1       7.138   4.377  17.186  0.00  0.00    +0.000 C 
ATOM      7  C   UNL     1       5.615   4.354  17.129  0.00  0.00    +0.000 C 
ATOM      8  C   UNL     1       5.054   4.354  18.603  0.00  0.00    +0.000 C 
ATOM      9  N   UNL     1       5.295   5.639  16.441  0.00  0.00    +0.000 NA
ENDROOT
BRANCH   1  13
ATOM     10  C   UNL     1       1.133   9.692  19.015  0.00  0.00    +0.000 A 
ATOM     11  C   UNL     1       1.202   8.967  20.211  0.00  0.00    +0.000 A 
ATOM     12  C   UNL     1       1.810   7.706  20.246  0.00  0.00    +0.000 A 
ATOM     13  C   UNL     1       2.355   7.139  19.082  0.00  0.00    +0.000 A 
ATOM     14  C   UNL     1       2.287   7.866  17.889  0.00  0.00    +0.000 A 
ATOM     15  C   UNL     1       1.677   9.134  17.853  0.00  0.00    +0.000 A 
BRANCH  10  17
ATOM     16  N   UNL     1       1.044  12.071  18.392  0.00  0.00    +0.000 N 
ATOM     17  C   UNL     1       0.431  11.014  19.040  0.00  0.00    +0.000 C 
ATOM     18  O   UNL     1      -0.636  11.128  19.631  0.00  0.00    +0.000 OA
ATOM     19  H   UNL     1       1.993  11.976  18.062  0.00  0.00    +0.000 HD
BRANCH  16  20
ATOM     20  C   UNL     1       0.442  13.394  18.364  0.00  0.00    +0.000 C 
BRANCH  20  22
ATOM     21  C   UNL     1       2.669  13.900  19.429  0.00  0.00    +0.000 C 
ATOM     22  C   UNL     1       1.281  14.433  19.106  0.00  0.00    +0.000 C 
ENDBRANCH  20  22
ENDBRANCH  16  20
ENDBRANCH  10  17
ENDBRANCH   1  13
BRANCH   1  23
ATOM     23  C   UNL     1       2.267   4.589  19.439  0.00  0.00    +0.000 A 
ATOM     24  C   UNL     1       2.213   4.088  20.745  0.00  0.00    +0.000 A 
ATOM     25  C   UNL     1       1.586   2.868  21.002  0.00  0.00    +0.000 A 
ATOM     26  C   UNL     1       1.012   2.145  19.952  0.00  0.00    +0.000 A 
ATOM     27  C   UNL     1       1.057   2.645  18.651  0.00  0.00    +0.000 A 
ATOM     28  C   UNL     1       1.676   3.869  18.394  0.00  0.00    +0.000 A 
ENDBRANCH   1  23
BRANCH   9  29
ATOM     29  C   UNL     1       5.655   5.745  15.014  0.00  0.00    +0.000 C 
BRANCH  29  30
ATOM     30  C   UNL     1       6.712   4.745  14.523  0.00  0.00    +0.000 C 
BRANCH  30  31
ATOM     31  C   UNL     1       6.201   3.969  13.326  0.00  0.00    +0.000 A 
ATOM     32  C   UNL     1       4.831   3.933  13.033  0.00  0.00    +0.000 A 
ATOM     33  C   UNL     1       4.355   3.192  11.948  0.00  0.00    +0.000 A 
ATOM     34  C   UNL     1       5.244   2.472  11.151  0.00  0.00    +0.000 A 
ATOM     35  C   UNL     1       6.607   2.493  11.439  0.00  0.00    +0.000 A 
ATOM     36  C   UNL     1       7.085   3.235  12.522  0.00  0.00    +0.000 A 
ENDBRANCH  30  31
ENDBRANCH  29  30
ENDBRANCH   9  29
TORSDOF 8
ENDMDL
