MODEL 1
REMARK VINA RESULT:      -8.4      0.000      0.000
REMARK  Name = 
REMARK  6 active torsions:
REMARK  status: ('A' for Active; 'I' for Inactive)
REMARK    1  A    between atoms: C_1  and  C_2
REMARK    2  A    between atoms: C_2  and  C_3
REMARK    3  A    between atoms: C_3  and  N_4
REMARK    4  A    between atoms: C_3  and  C_24
REMARK    5  A    between atoms: C_5  and  C_7
REMARK    6  A    between atoms: C_9  and  C_10
REMARK                            x       y       z     vdW  Elec       q    Type
REMARK                         _______ _______ _______ _____ _____    ______ ____
ROOT
ATOM      1  C   UNL     1       1.481   9.070  19.188  0.00  0.00    +0.000 A 
ATOM      2  C   UNL     1       1.291  10.245  18.410  0.00  0.00    +0.000 A 
ATOM      3  C   UNL     1       0.538  11.160  19.128  0.00  0.00    +0.000 A 
ATOM      4  N   UNL     1       0.371  10.610  20.383  0.00  0.00    +0.000 N 
ATOM      5  C   UNL     1       0.931   9.349  20.432  0.00  0.00    +0.000 A 
ATOM      6  C   UNL     1       0.868   8.502  21.667  0.00  0.00    +0.000 C 
ATOM      7  C   UNL     1       0.516   9.321  22.911  0.00  0.00    +0.000 C 
ATOM      8  C   UNL     1      -0.661  10.248  22.618  0.00  0.00    +0.000 C 
ATOM      9  C   UNL     1      -0.296  11.242  21.515  0.00  0.00    +0.000 C 
ENDROOT
BRANCH   3  10
ATOM     10  C   UNL     1       0.068  12.463  18.692  0.00  0.00    +0.000 C 
ATOM     11  O   UNL     1      -0.981  12.609  18.068  0.00  0.00    +0.000 OA
ATOM     12  N   UNL     1       0.854  13.553  19.050  0.00  0.00    +0.000 N 
ATOM     13  C   UNL     1       0.405  14.910  18.802  0.00  0.00    +0.000 C 
ATOM     14  C   UNL     1       1.574  15.788  19.228  0.00  0.00    +0.000 C 
ATOM     15  C   UNL     1       2.772  14.926  18.870  0.00  0.00    +0.000 C 
ATOM     16  F   UNL     1       2.980  15.001  17.527  0.00  0.00    +0.000 F 
ATOM     17  C   UNL     1       2.307  13.518  19.229  0.00  0.00    +0.000 C 
ENDBRANCH   3  10
BRANCH   1  19
ATOM     18  N   UNL     1       2.764   7.156  19.783  0.00  0.00    +0.000 N 
ATOM     19  C   UNL     1       2.102   7.814  18.769  0.00  0.00    +0.000 C 
ATOM     20  O   UNL     1       2.047   7.401  17.616  0.00  0.00    +0.000 OA
ATOM     21  H   UNL     1       2.657   7.495  20.726  0.00  0.00    +0.000 HD
BRANCH  18  22
ATOM     22  C   UNL     1       3.492   5.917  19.579  0.00  0.00    +0.000 C 
BRANCH  22  23
ATOM     23  C   UNL     1       2.497   4.768  19.428  0.00  0.00    +0.000 A 
ATOM     24  C   UNL     1       1.640   4.431  20.486  0.00  0.00    +0.000 A 
ATOM     25  C   UNL     1       0.758   3.351  20.373  0.00  0.00    +0.000 A 
ATOM     26  C   UNL     1       0.717   2.598  19.202  0.00  0.00    +0.000 A 
ATOM     27  C   UNL     1       1.547   2.931  18.134  0.00  0.00    +0.000 A 
ATOM     28  C   UNL     1       2.428   4.010  18.245  0.00  0.00    +0.000 A 
ENDBRANCH  22  23
BRANCH  22  30
ATOM     29  C   UNL     1       5.836   5.461  18.602  0.00  0.00    +0.000 C 
ATOM     30  C   UNL     1       4.426   5.971  18.351  0.00  0.00    +0.000 C 
ENDBRANCH  22  30
ENDBRANCH  18  22
ENDBRANCH   1  19
TORSDOF 5
ENDMDL
MODEL 2
REMARK VINA RESULT:      -8.4      2.973      8.167
REMARK  Name = 
REMARK  6 active torsions:
REMARK  status: ('A' for Active; 'I' for Inactive)
REMARK    1  A    between atoms: C_1  and  C_2
REMARK    2  A    between atoms: C_2  and  C_3
REMARK    3  A    between atoms: C_3  and  N_4
REMARK    4  A    between atoms: C_3  and  C_24
REMARK    5  A    between atoms: C_5  and  C_7
REMARK    6  A    between atoms: C_9  and  C_10
REMARK                            x       y       z     vdW  Elec       q    Type
REMARK                         _______ _______ _______ _____ _____    ______ ____
ROOT
ATOM      1  C   UNL     1       2.454   6.863  19.732  0.00  0.00    +0.000 A 
ATOM      2  C   UNL     1       3.707   6.972  19.069  0.00  0.00    +0.000 A 
ATOM      3  C   UNL     1       4.345   5.742  19.079  0.00  0.00    +0.000 A 
ATOM      4  N   UNL     1       3.444   4.853  19.629  0.00  0.00    +0.000 N 
ATOM      5  C   UNL     1       2.300   5.517  20.030  0.00  0.00    +0.000 A 
ATOM      6  C   UNL     1       1.163   4.801  20.695  0.00  0.00    +0.000 C 
ATOM      7  C   UNL     1       1.235   3.287  20.492  0.00  0.00    +0.000 C 
ATOM      8  C   UNL     1       2.651   2.784  20.762  0.00  0.00    +0.000 C 
ATOM      9  C   UNL     1       3.639   3.416  19.781  0.00  0.00    +0.000 C 
ENDROOT
BRANCH   3  10
ATOM     10  C   UNL     1       5.663   5.419  18.562  0.00  0.00    +0.000 C 
ATOM     11  O   UNL     1       6.691   5.646  19.196  0.00  0.00    +0.000 OA
ATOM     12  N   UNL     1       5.702   4.802  17.316  0.00  0.00    +0.000 N 
ATOM     13  C   UNL     1       6.949   4.298  16.773  0.00  0.00    +0.000 C 
ATOM     14  C   UNL     1       6.592   3.808  15.376  0.00  0.00    +0.000 C 
ATOM     15  C   UNL     1       5.507   4.785  14.959  0.00  0.00    +0.000 C 
ATOM     16  F   UNL     1       6.092   5.956  14.587  0.00  0.00    +0.000 F 
ATOM     17  C   UNL     1       4.721   5.004  16.249  0.00  0.00    +0.000 C 
ENDBRANCH   3  10
BRANCH   1  19
ATOM     18  N   UNL     1       1.194   8.739  18.984  0.00  0.00    +0.000 N 
ATOM     19  C   UNL     1       1.522   7.942  20.060  0.00  0.00    +0.000 C 
ATOM     20  O   UNL     1       1.091   8.122  21.193  0.00  0.00    +0.000 OA
ATOM     21  H   UNL     1       1.490   8.452  18.065  0.00  0.00    +0.000 HD
BRANCH  18  22
ATOM     22  C   UNL     1       0.325   9.897  19.093  0.00  0.00    +0.000 C 
BRANCH  22  23
ATOM     23  C   UNL     1       1.179  11.155  19.238  0.00  0.00    +0.000 A 
ATOM     24  C   UNL     1       1.168  11.884  20.436  0.00  0.00    +0.000 A 
ATOM     25  C   UNL     1       1.911  13.063  20.561  0.00  0.00    +0.000 A 
ATOM     26  C   UNL     1       2.678  13.525  19.494  0.00  0.00    +0.000 A 
ATOM     27  C   UNL     1       2.717  12.803  18.304  0.00  0.00    +0.000 A 
ATOM     28  C   UNL     1       1.976  11.626  18.177  0.00  0.00    +0.000 A 
ENDBRANCH  22  23
BRANCH  22  30
ATOM     29  C   UNL     1      -2.070  10.355  18.250  0.00  0.00    +0.000 C 
ATOM     30  C   UNL     1      -0.627  10.041  17.887  0.00  0.00    +0.000 C 
ENDBRANCH  22  30
ENDBRANCH  18  22
ENDBRANCH   1  19
TORSDOF 5
ENDMDL
MODEL 3
REMARK VINA RESULT:      -8.2      3.060      4.150
REMARK  Name = 
REMARK  6 active torsions:
REMARK  status: ('A' for Active; 'I' for Inactive)
REMARK    1  A    between atoms: C_1  and  C_2
REMARK    2  A    between atoms: C_2  and  C_3
REMARK    3  A    between atoms: C_3  and  N_4
REMARK    4  A    between atoms: C_3  and  C_24
REMARK    5  A    between atoms: C_5  and  C_7
REMARK    6  A    between atoms: C_9  and  C_10
REMARK                            x       y       z     vdW  Elec       q    Type
REMARK                         _______ _______ _______ _____ _____    ______ ____
ROOT
ATOM      1  C   UNL     1       0.561   9.903  18.735  0.00  0.00    +0.000 A 
ATOM      2  C   UNL     1      -0.586   9.663  17.930  0.00  0.00    +0.000 A 
ATOM      3  C   UNL     1      -1.265  10.854  17.724  0.00  0.00    +0.000 A 
ATOM      4  N   UNL     1      -0.480  11.839  18.288  0.00  0.00    +0.000 N 
ATOM      5  C   UNL     1       0.623  11.279  18.904  0.00  0.00    +0.000 A 
ATOM      6  C   UNL     1       1.633  12.116  19.630  0.00  0.00    +0.000 C 
ATOM      7  C   UNL     1       1.532  13.596  19.257  0.00  0.00    +0.000 C 
ATOM      8  C   UNL     1       0.075  14.051  19.285  0.00  0.00    +0.000 C 
ATOM      9  C   UNL     1      -0.747  13.272  18.257  0.00  0.00    +0.000 C 
ENDROOT
BRANCH   3  10
ATOM     10  C   UNL     1      -2.512  11.054  17.009  0.00  0.00    +0.000 C 
ATOM     11  O   UNL     1      -2.558  11.165  15.785  0.00  0.00    +0.000 OA
ATOM     12  N   UNL     1      -3.669  11.078  17.781  0.00  0.00    +0.000 N 
ATOM     13  C   UNL     1      -4.979  11.117  17.160  0.00  0.00    +0.000 C 
ATOM     14  C   UNL     1      -5.955  11.243  18.323  0.00  0.00    +0.000 C 
ATOM     15  C   UNL     1      -5.165  12.077  19.317  0.00  0.00    +0.000 C 
ATOM     16  F   UNL     1      -5.199  13.379  18.920  0.00  0.00    +0.000 F 
ATOM     17  C   UNL     1      -3.743  11.543  19.167  0.00  0.00    +0.000 C 
ENDBRANCH   3  10
BRANCH   1  19
ATOM     18  N   UNL     1       2.141   8.166  18.344  0.00  0.00    +0.000 N 
ATOM     19  C   UNL     1       1.480   8.913  19.296  0.00  0.00    +0.000 C 
ATOM     20  O   UNL     1       1.628   8.757  20.503  0.00  0.00    +0.000 OA
ATOM     21  H   UNL     1       2.059   8.438  17.377  0.00  0.00    +0.000 HD
BRANCH  18  22
ATOM     22  C   UNL     1       3.061   7.095  18.678  0.00  0.00    +0.000 C 
BRANCH  22  23
ATOM     23  C   UNL     1       2.269   5.818  18.951  0.00  0.00    +0.000 A 
ATOM     24  C   UNL     1       1.928   5.464  20.265  0.00  0.00    +0.000 A 
ATOM     25  C   UNL     1       1.243   4.273  20.528  0.00  0.00    +0.000 A 
ATOM     26  C   UNL     1       0.884   3.424  19.483  0.00  0.00    +0.000 A 
ATOM     27  C   UNL     1       1.197   3.770  18.171  0.00  0.00    +0.000 A 
ATOM     28  C   UNL     1       1.880   4.958  17.906  0.00  0.00    +0.000 A 
ENDBRANCH  22  23
BRANCH  22  30
ATOM     29  C   UNL     1       5.276   5.965  17.989  0.00  0.00    +0.000 C 
ATOM     30  C   UNL     1       4.105   6.840  17.570  0.00  0.00    +0.000 C 
ENDBRANCH  22  30
ENDBRANCH  18  22
ENDBRANCH   1  19
TORSDOF 5
ENDMDL
MODEL 4
REMARK VINA RESULT:      -8.1      2.752      4.388
REMARK  Name = 
REMARK  6 active torsions:
REMARK  status: ('A' for Active; 'I' for Inactive)
REMARK    1  A    between atoms: C_1  and  C_2
REMARK    2  A    between atoms: C_2  and  C_3
REMARK    3  A    between atoms: C_3  and  N_4
REMARK    4  A    between atoms: C_3  and  C_24
REMARK    5  A    between atoms: C_5  and  C_7
REMARK    6  A    between atoms: C_9  and  C_10
REMARK                            x       y       z     vdW  Elec       q    Type
REMARK                         _______ _______ _______ _____ _____    ______ ____
ROOT
ATOM      1  C   UNL     1       1.610   8.394  19.359  0.00  0.00    +0.000 A 
ATOM      2  C   UNL     1       1.135   9.273  18.347  0.00  0.00    +0.000 A 
ATOM      3  C   UNL     1       0.248  10.182  18.902  0.00  0.00    +0.000 A 
ATOM      4  N   UNL     1       0.271   9.950  20.262  0.00  0.00    +0.000 N 
ATOM      5  C   UNL     1       1.085   8.872  20.551  0.00  0.00    +0.000 A 
ATOM      6  C   UNL     1       1.269   8.374  21.953  0.00  0.00    +0.000 C 
ATOM      7  C   UNL     1       0.824   9.402  22.994  0.00  0.00    +0.000 C 
ATOM      8  C   UNL     1      -0.535   9.984  22.616  0.00  0.00    +0.000 C 
ATOM      9  C   UNL     1      -0.450  10.713  21.275  0.00  0.00    +0.000 C 
ENDROOT
BRANCH   3  10
ATOM     10  C   UNL     1      -0.508  11.217  18.219  0.00  0.00    +0.000 C 
ATOM     11  O   UNL     1      -0.145  12.391  18.197  0.00  0.00    +0.000 OA
ATOM     12  N   UNL     1      -1.657  10.803  17.553  0.00  0.00    +0.000 N 
ATOM     13  C   UNL     1      -2.403  11.719  16.712  0.00  0.00    +0.000 C 
ATOM     14  C   UNL     1      -3.624  10.927  16.265  0.00  0.00    +0.000 C 
ATOM     15  C   UNL     1      -3.896  10.046  17.472  0.00  0.00    +0.000 C 
ATOM     16  F   UNL     1      -4.515  10.792  18.428  0.00  0.00    +0.000 F 
ATOM     17  C   UNL     1      -2.497   9.673  17.952  0.00  0.00    +0.000 C 
ENDBRANCH   3  10
BRANCH   1  19
ATOM     18  N   UNL     1       2.847   6.993  17.885  0.00  0.00    +0.000 N 
ATOM     19  C   UNL     1       2.456   7.213  19.188  0.00  0.00    +0.000 C 
ATOM     20  O   UNL     1       2.769   6.483  20.123  0.00  0.00    +0.000 OA
ATOM     21  H   UNL     1       2.653   7.704  17.198  0.00  0.00    +0.000 HD
BRANCH  18  22
ATOM     22  C   UNL     1       3.648   5.851  17.482  0.00  0.00    +0.000 C 
BRANCH  22  23
ATOM     23  C   UNL     1       5.104   6.096  17.872  0.00  0.00    +0.000 A 
ATOM     24  C   UNL     1       5.867   7.057  17.192  0.00  0.00    +0.000 A 
ATOM     25  C   UNL     1       7.215   7.255  17.512  0.00  0.00    +0.000 A 
ATOM     26  C   UNL     1       7.815   6.501  18.518  0.00  0.00    +0.000 A 
ATOM     27  C   UNL     1       7.067   5.557  19.216  0.00  0.00    +0.000 A 
ATOM     28  C   UNL     1       5.722   5.358  18.899  0.00  0.00    +0.000 A 
ENDBRANCH  22  23
BRANCH  22  30
ATOM     29  C   UNL     1       1.757   4.105  17.665  0.00  0.00    +0.000 C 
ATOM     30  C   UNL     1       3.151   4.528  18.101  0.00  0.00    +0.000 C 
ENDBRANCH  22  30
ENDBRANCH  18  22
ENDBRANCH   1  19
TORSDOF 5
ENDMDL
MODEL 5
REMARK VINA RESULT:      -8.1      2.134      2.904
REMARK  Name = 
REMARK  6 active torsions:
REMARK  status: ('A' for Active; 'I' for Inactive)
REMARK    1  A    between atoms: C_1  and  C_2
REMARK    2  A    between atoms: C_2  and  C_3
REMARK    3  A    between atoms: C_3  and  N_4
REMARK    4  A    between atoms: C_3  and  C_24
REMARK    5  A    between atoms: C_5  and  C_7
REMARK    6  A    between atoms: C_9  and  C_10
REMARK                            x       y       z     vdW  Elec       q    Type
REMARK                         _______ _______ _______ _____ _____    ______ ____
ROOT
ATOM      1  C   UNL     1       0.755   9.936  19.161  0.00  0.00    +0.000 A 
ATOM      2  C   UNL     1       0.959  10.724  20.327  0.00  0.00    +0.000 A 
ATOM      3  C   UNL     1      -0.095  11.611  20.478  0.00  0.00    +0.000 A 
ATOM      4  N   UNL     1      -1.003  11.290  19.490  0.00  0.00    +0.000 N 
ATOM      5  C   UNL     1      -0.502  10.285  18.686  0.00  0.00    +0.000 A 
ATOM      6  C   UNL     1      -1.265   9.759  17.508  0.00  0.00    +0.000 C 
ATOM      7  C   UNL     1      -2.745  10.141  17.561  0.00  0.00    +0.000 C 
ATOM      8  C   UNL     1      -2.898  11.619  17.910  0.00  0.00    +0.000 C 
ATOM      9  C   UNL     1      -2.311  11.905  19.293  0.00  0.00    +0.000 C 
ENDROOT
BRANCH   3  10
ATOM     10  C   UNL     1      -0.260  12.631  21.499  0.00  0.00    +0.000 C 
ATOM     11  O   UNL     1      -0.860  12.417  22.550  0.00  0.00    +0.000 OA
ATOM     12  N   UNL     1       0.331  13.863  21.241  0.00  0.00    +0.000 N 
ATOM     13  C   UNL     1       0.362  14.902  22.252  0.00  0.00    +0.000 C 
ATOM     14  C   UNL     1       0.983  16.104  21.553  0.00  0.00    +0.000 C 
ATOM     15  C   UNL     1       0.477  15.946  20.130  0.00  0.00    +0.000 C 
ATOM     16  F   UNL     1      -0.817  16.365  20.077  0.00  0.00    +0.000 F 
ATOM     17  C   UNL     1       0.526  14.437  19.908  0.00  0.00    +0.000 C 
ENDBRANCH   3  10
BRANCH   1  19
ATOM     18  N   UNL     1       1.974   7.904  19.380  0.00  0.00    +0.000 N 
ATOM     19  C   UNL     1       1.679   8.974  18.562  0.00  0.00    +0.000 C 
ATOM     20  O   UNL     1       2.155   9.123  17.442  0.00  0.00    +0.000 OA
ATOM     21  H   UNL     1       1.448   7.790  20.232  0.00  0.00    +0.000 HD
BRANCH  18  22
ATOM     22  C   UNL     1       2.907   6.856  19.006  0.00  0.00    +0.000 C 
BRANCH  22  23
ATOM     23  C   UNL     1       2.239   5.496  19.202  0.00  0.00    +0.000 A 
ATOM     24  C   UNL     1       1.996   4.663  18.102  0.00  0.00    +0.000 A 
ATOM     25  C   UNL     1       1.343   3.436  18.266  0.00  0.00    +0.000 A 
ATOM     26  C   UNL     1       0.932   3.025  19.532  0.00  0.00    +0.000 A 
ATOM     27  C   UNL     1       1.183   3.831  20.638  0.00  0.00    +0.000 A 
ATOM     28  C   UNL     1       1.835   5.055  20.476  0.00  0.00    +0.000 A 
ENDBRANCH  22  23
BRANCH  22  30
ATOM     29  C   UNL     1       4.899   6.779  17.369  0.00  0.00    +0.000 C 
ATOM     30  C   UNL     1       3.405   6.995  17.552  0.00  0.00    +0.000 C 
ENDBRANCH  22  30
ENDBRANCH  18  22
ENDBRANCH   1  19
TORSDOF 5
ENDMDL
MODEL 6
REMARK VINA RESULT:      -8.1      1.210      2.952
REMARK  Name = 
REMARK  6 active torsions:
REMARK  status: ('A' for Active; 'I' for Inactive)
REMARK    1  A    between atoms: C_1  and  C_2
REMARK    2  A    between atoms: C_2  and  C_3
REMARK    3  A    between atoms: C_3  and  N_4
REMARK    4  A    between atoms: C_3  and  C_24
REMARK    5  A    between atoms: C_5  and  C_7
REMARK    6  A    between atoms: C_9  and  C_10
REMARK                            x       y       z     vdW  Elec       q    Type
REMARK                         _______ _______ _______ _____ _____    ______ ____
ROOT
ATOM      1  C   UNL     1       1.472   8.767  19.678  0.00  0.00    +0.000 A 
ATOM      2  C   UNL     1       1.309   9.833  18.752  0.00  0.00    +0.000 A 
ATOM      3  C   UNL     1       0.517  10.820  19.318  0.00  0.00    +0.000 A 
ATOM      4  N   UNL     1       0.299  10.428  20.623  0.00  0.00    +0.000 N 
ATOM      5  C   UNL     1       0.866   9.189  20.852  0.00  0.00    +0.000 A 
ATOM      6  C   UNL     1       0.754   8.502  22.179  0.00  0.00    +0.000 C 
ATOM      7  C   UNL     1       0.341   9.463  23.295  0.00  0.00    +0.000 C 
ATOM      8  C   UNL     1      -0.829  10.331  22.840  0.00  0.00    +0.000 C 
ATOM      9  C   UNL     1      -0.423  11.186  21.638  0.00  0.00    +0.000 C 
ENDROOT
BRANCH   3  10
ATOM     10  C   UNL     1       0.057  12.053  18.703  0.00  0.00    +0.000 C 
ATOM     11  O   UNL     1      -0.929  12.095  17.971  0.00  0.00    +0.000 OA
ATOM     12  N   UNL     1       0.774  13.203  19.017  0.00  0.00    +0.000 N 
ATOM     13  C   UNL     1       0.315  14.509  18.585  0.00  0.00    +0.000 C 
ATOM     14  C   UNL     1       1.412  15.470  19.025  0.00  0.00    +0.000 C 
ATOM     15  C   UNL     1       2.662  14.621  18.876  0.00  0.00    +0.000 C 
ATOM     16  F   UNL     1       2.999  14.565  17.558  0.00  0.00    +0.000 F 
ATOM     17  C   UNL     1       2.202  13.240  19.336  0.00  0.00    +0.000 C 
ENDBRANCH   3  10
BRANCH   1  19
ATOM     18  N   UNL     1       2.609   7.323  18.165  0.00  0.00    +0.000 N 
ATOM     19  C   UNL     1       2.121   7.477  19.445  0.00  0.00    +0.000 C 
ATOM     20  O   UNL     1       2.202   6.611  20.310  0.00  0.00    +0.000 OA
ATOM     21  H   UNL     1       2.615   8.123  17.553  0.00  0.00    +0.000 HD
BRANCH  18  22
ATOM     22  C   UNL     1       3.246   6.103  17.703  0.00  0.00    +0.000 C 
BRANCH  22  23
ATOM     23  C   UNL     1       4.746   6.183  17.980  0.00  0.00    +0.000 A 
ATOM     24  C   UNL     1       5.574   6.972  17.170  0.00  0.00    +0.000 A 
ATOM     25  C   UNL     1       6.956   7.013  17.388  0.00  0.00    +0.000 A 
ATOM     26  C   UNL     1       7.525   6.273  18.421  0.00  0.00    +0.000 A 
ATOM     27  C   UNL     1       6.715   5.500  19.248  0.00  0.00    +0.000 A 
ATOM     28  C   UNL     1       5.336   5.457  19.032  0.00  0.00    +0.000 A 
ENDBRANCH  22  23
BRANCH  22  30
ATOM     29  C   UNL     1       1.471   4.232  17.620  0.00  0.00    +0.000 C 
ATOM     30  C   UNL     1       2.655   4.837  18.359  0.00  0.00    +0.000 C 
ENDBRANCH  22  30
ENDBRANCH  18  22
ENDBRANCH   1  19
TORSDOF 5
ENDMDL
MODEL 7
REMARK VINA RESULT:      -8.1      2.723      3.517
REMARK  Name = 
REMARK  6 active torsions:
REMARK  status: ('A' for Active; 'I' for Inactive)
REMARK    1  A    between atoms: C_1  and  C_2
REMARK    2  A    between atoms: C_2  and  C_3
REMARK    3  A    between atoms: C_3  and  N_4
REMARK    4  A    between atoms: C_3  and  C_24
REMARK    5  A    between atoms: C_5  and  C_7
REMARK    6  A    between atoms: C_9  and  C_10
REMARK                            x       y       z     vdW  Elec       q    Type
REMARK                         _______ _______ _______ _____ _____    ______ ____
ROOT
ATOM      1  C   UNL     1       1.683   8.695  18.798  0.00  0.00    +0.000 A 
ATOM      2  C   UNL     1       1.044   9.613  17.920  0.00  0.00    +0.000 A 
ATOM      3  C   UNL     1       0.096  10.341  18.622  0.00  0.00    +0.000 A 
ATOM      4  N   UNL     1       0.234   9.969  19.943  0.00  0.00    +0.000 N 
ATOM      5  C   UNL     1       1.185   8.974  20.063  0.00  0.00    +0.000 A 
ATOM      6  C   UNL     1       1.517   8.354  21.387  0.00  0.00    +0.000 C 
ATOM      7  C   UNL     1       1.025   9.201  22.562  0.00  0.00    +0.000 C 
ATOM      8  C   UNL     1      -0.414   9.649  22.324  0.00  0.00    +0.000 C 
ATOM      9  C   UNL     1      -0.502  10.524  21.073  0.00  0.00    +0.000 C 
ENDROOT
BRANCH   3  10
ATOM     10  C   UNL     1      -0.818  11.343  18.103  0.00  0.00    +0.000 C 
ATOM     11  O   UNL     1      -0.593  12.549  18.192  0.00  0.00    +0.000 OA
ATOM     12  N   UNL     1      -1.956  10.866  17.460  0.00  0.00    +0.000 N 
ATOM     13  C   UNL     1      -2.857  11.769  16.770  0.00  0.00    +0.000 C 
ATOM     14  C   UNL     1      -4.009  10.887  16.307  0.00  0.00    +0.000 C 
ATOM     15  C   UNL     1      -4.095   9.858  17.421  0.00  0.00    +0.000 C 
ATOM     16  F   UNL     1      -4.727  10.420  18.487  0.00  0.00    +0.000 F 
ATOM     17  C   UNL     1      -2.633   9.607  17.777  0.00  0.00    +0.000 C 
ENDBRANCH   3  10
BRANCH   1  19
ATOM     18  N   UNL     1       2.306   6.401  18.918  0.00  0.00    +0.000 N 
ATOM     19  C   UNL     1       2.647   7.652  18.450  0.00  0.00    +0.000 C 
ATOM     20  O   UNL     1       3.670   7.882  17.813  0.00  0.00    +0.000 OA
ATOM     21  H   UNL     1       1.392   6.272  19.322  0.00  0.00    +0.000 HD
BRANCH  18  22
ATOM     22  C   UNL     1       3.144   5.231  18.730  0.00  0.00    +0.000 C 
BRANCH  22  23
ATOM     23  C   UNL     1       2.750   4.162  19.748  0.00  0.00    +0.000 A 
ATOM     24  C   UNL     1       1.448   4.126  20.267  0.00  0.00    +0.000 A 
ATOM     25  C   UNL     1       1.091   3.179  21.234  0.00  0.00    +0.000 A 
ATOM     26  C   UNL     1       2.029   2.254  21.689  0.00  0.00    +0.000 A 
ATOM     27  C   UNL     1       3.320   2.263  21.169  0.00  0.00    +0.000 A 
ATOM     28  C   UNL     1       3.678   3.207  20.204  0.00  0.00    +0.000 A 
ENDBRANCH  22  23
BRANCH  22  30
ATOM     29  C   UNL     1       4.359   4.107  16.751  0.00  0.00    +0.000 C 
ATOM     30  C   UNL     1       3.052   4.657  17.300  0.00  0.00    +0.000 C 
ENDBRANCH  22  30
ENDBRANCH  18  22
ENDBRANCH   1  19
TORSDOF 5
ENDMDL
MODEL 8
REMARK VINA RESULT:      -8.0      3.296      6.135
REMARK  Name = 
REMARK  6 active torsions:
REMARK  status: ('A' for Active; 'I' for Inactive)
REMARK    1  A    between atoms: C_1  and  C_2
REMARK    2  A    between atoms: C_2  and  C_3
REMARK    3  A    between atoms: C_3  and  N_4
REMARK    4  A    between atoms: C_3  and  C_24
REMARK    5  A    between atoms: C_5  and  C_7
REMARK    6  A    between atoms: C_9  and  C_10
REMARK                            x       y       z     vdW  Elec       q    Type
REMARK                         _______ _______ _______ _____ _____    ______ ____
ROOT
ATOM      1  C   UNL     1       4.258   5.091  19.010  0.00  0.00    +0.000 A 
ATOM      2  C   UNL     1       3.758   6.311  19.543  0.00  0.00    +0.000 A 
ATOM      3  C   UNL     1       2.423   6.154  19.884  0.00  0.00    +0.000 A 
ATOM      4  N   UNL     1       2.136   4.820  19.683  0.00  0.00    +0.000 N 
ATOM      5  C   UNL     1       3.232   4.168  19.153  0.00  0.00    +0.000 A 
ATOM      6  C   UNL     1       3.192   2.711  18.801  0.00  0.00    +0.000 C 
ATOM      7  C   UNL     1       2.016   1.989  19.461  0.00  0.00    +0.000 C 
ATOM      8  C   UNL     1       0.735   2.800  19.290  0.00  0.00    +0.000 C 
ATOM      9  C   UNL     1       0.868   4.160  19.976  0.00  0.00    +0.000 C 
ENDROOT
BRANCH   3  10
ATOM     10  C   UNL     1       1.516   7.159  20.409  0.00  0.00    +0.000 C 
ATOM     11  O   UNL     1       0.787   6.946  21.376  0.00  0.00    +0.000 OA
ATOM     12  N   UNL     1       1.539   8.399  19.780  0.00  0.00    +0.000 N 
ATOM     13  C   UNL     1       0.791   9.521  20.315  0.00  0.00    +0.000 C 
ATOM     14  C   UNL     1       0.986  10.637  19.298  0.00  0.00    +0.000 C 
ATOM     15  C   UNL     1       1.066   9.870  17.989  0.00  0.00    +0.000 C 
ATOM     16  F   UNL     1      -0.193   9.513  17.614  0.00  0.00    +0.000 F 
ATOM     17  C   UNL     1       1.852   8.618  18.367  0.00  0.00    +0.000 C 
ENDBRANCH   3  10
BRANCH   1  19
ATOM     18  N   UNL     1       5.773   5.533  17.229  0.00  0.00    +0.000 N 
ATOM     19  C   UNL     1       5.571   4.853  18.410  0.00  0.00    +0.000 C 
ATOM     20  O   UNL     1       6.401   4.102  18.911  0.00  0.00    +0.000 OA
ATOM     21  H   UNL     1       5.096   6.225  16.950  0.00  0.00    +0.000 HD
BRANCH  18  22
ATOM     22  C   UNL     1       6.985   5.405  16.440  0.00  0.00    +0.000 C 
BRANCH  22  23
ATOM     23  C   UNL     1       6.628   4.870  15.054  0.00  0.00    +0.000 A 
ATOM     24  C   UNL     1       5.399   4.231  14.838  0.00  0.00    +0.000 A 
ATOM     25  C   UNL     1       5.084   3.697  13.584  0.00  0.00    +0.000 A 
ATOM     26  C   UNL     1       5.988   3.800  12.530  0.00  0.00    +0.000 A 
ATOM     27  C   UNL     1       7.205   4.449  12.721  0.00  0.00    +0.000 A 
ATOM     28  C   UNL     1       7.521   4.983  13.972  0.00  0.00    +0.000 A 
ENDBRANCH  22  23
BRANCH  22  30
ATOM     29  C   UNL     1       7.611   7.673  17.499  0.00  0.00    +0.000 C 
ATOM     30  C   UNL     1       7.754   6.737  16.309  0.00  0.00    +0.000 C 
ENDBRANCH  22  30
ENDBRANCH  18  22
ENDBRANCH   1  19
TORSDOF 5
ENDMDL
MODEL 9
REMARK VINA RESULT:      -8.0      2.793      3.962
REMARK  Name = 
REMARK  6 active torsions:
REMARK  status: ('A' for Active; 'I' for Inactive)
REMARK    1  A    between atoms: C_1  and  C_2
REMARK    2  A    between atoms: C_2  and  C_3
REMARK    3  A    between atoms: C_3  and  N_4
REMARK    4  A    between atoms: C_3  and  C_24
REMARK    5  A    between atoms: C_5  and  C_7
REMARK    6  A    between atoms: C_9  and  C_10
REMARK                            x       y       z     vdW  Elec       q    Type
REMARK                         _______ _______ _______ _____ _____    ______ ____
ROOT
ATOM      1  C   UNL     1       0.548   9.994  19.037  0.00  0.00    +0.000 A 
ATOM      2  C   UNL     1      -0.837   9.843  18.753  0.00  0.00    +0.000 A 
ATOM      3  C   UNL     1      -1.395  11.085  18.493  0.00  0.00    +0.000 A 
ATOM      4  N   UNL     1      -0.344  11.979  18.491  0.00  0.00    +0.000 N 
ATOM      5  C   UNL     1       0.833  11.335  18.821  0.00  0.00    +0.000 A 
ATOM      6  C   UNL     1       2.134  12.072  18.927  0.00  0.00    +0.000 C 
ATOM      7  C   UNL     1       2.080  13.441  18.249  0.00  0.00    +0.000 C 
ATOM      8  C   UNL     1       0.806  14.181  18.649  0.00  0.00    +0.000 C 
ATOM      9  C   UNL     1      -0.429  13.403  18.190  0.00  0.00    +0.000 C 
ENDROOT
BRANCH   3  10
ATOM     10  C   UNL     1      -2.786  11.394  18.213  0.00  0.00    +0.000 C 
ATOM     11  O   UNL     1      -3.267  11.297  17.086  0.00  0.00    +0.000 OA
ATOM     12  N   UNL     1      -3.564  11.775  19.301  0.00  0.00    +0.000 N 
ATOM     13  C   UNL     1      -4.997  11.958  19.166  0.00  0.00    +0.000 C 
ATOM     14  C   UNL     1      -5.452  12.471  20.526  0.00  0.00    +0.000 C 
ATOM     15  C   UNL     1      -4.258  13.297  20.974  0.00  0.00    +0.000 C 
ATOM     16  F   UNL     1      -4.283  14.492  20.321  0.00  0.00    +0.000 F 
ATOM     17  C   UNL     1      -3.066  12.481  20.483  0.00  0.00    +0.000 C 
ENDBRANCH   3  10
BRANCH   1  19
ATOM     18  N   UNL     1       2.105   8.290  18.458  0.00  0.00    +0.000 N 
ATOM     19  C   UNL     1       1.483   8.964  19.487  0.00  0.00    +0.000 C 
ATOM     20  O   UNL     1       1.676   8.719  20.673  0.00  0.00    +0.000 OA
ATOM     21  H   UNL     1       1.988   8.633  17.518  0.00  0.00    +0.000 HD
BRANCH  18  22
ATOM     22  C   UNL     1       3.033   7.196  18.677  0.00  0.00    +0.000 C 
BRANCH  22  23
ATOM     23  C   UNL     1       2.246   5.913  18.940  0.00  0.00    +0.000 A 
ATOM     24  C   UNL     1       1.886   5.561  20.249  0.00  0.00    +0.000 A 
ATOM     25  C   UNL     1       1.206   4.365  20.504  0.00  0.00    +0.000 A 
ATOM     26  C   UNL     1       0.872   3.511  19.456  0.00  0.00    +0.000 A 
ATOM     27  C   UNL     1       1.203   3.855  18.149  0.00  0.00    +0.000 A 
ATOM     28  C   UNL     1       1.882   5.048  17.892  0.00  0.00    +0.000 A 
ENDBRANCH  22  23
BRANCH  22  30
ATOM     29  C   UNL     1       5.257   6.204  17.823  0.00  0.00    +0.000 C 
ATOM     30  C   UNL     1       3.997   6.988  17.489  0.00  0.00    +0.000 C 
ENDBRANCH  22  30
ENDBRANCH  18  22
ENDBRANCH   1  19
TORSDOF 5
ENDMDL
