MODEL 1
REMARK VINA RESULT:      -7.9      0.000      0.000
REMARK  Name = 
REMARK  4 active torsions:
REMARK  status: ('A' for Active; 'I' for Inactive)
REMARK    1  A    between atoms: C_2  and  O_3
REMARK    2  A    between atoms: C_2  and  C_4
REMARK    3  A    between atoms: C_5  and  C_6
REMARK    4  A    between atoms: N_8  and  C_9
REMARK                            x       y       z     vdW  Elec       q    Type
REMARK                         _______ _______ _______ _____ _____    ______ ____
ROOT
ATOM      1  C   UNL     1       4.377   3.771  19.373  0.00  0.00    +0.000 A 
ATOM      2  C   UNL     1       4.161   2.633  20.174  0.00  0.00    +0.000 A 
ATOM      3  C   UNL     1       3.141   2.598  21.142  0.00  0.00    +0.000 A 
ATOM      4  C   UNL     1       2.300   3.693  21.318  0.00  0.00    +0.000 A 
ATOM      5  C   UNL     1       2.521   4.791  20.506  0.00  0.00    +0.000 A 
ATOM      6  C   UNL     1       3.538   4.866  19.534  0.00  0.00    +0.000 A 
ATOM      7  C   UNL     1       3.405   6.132  18.823  0.00  0.00    +0.000 A 
ATOM      8  C   UNL     1       4.069   6.661  17.727  0.00  0.00    +0.000 A 
ATOM      9  C   UNL     1       3.681   7.919  17.246  0.00  0.00    +0.000 A 
ATOM     10  C   UNL     1       2.625   8.635  17.837  0.00  0.00    +0.000 A 
ATOM     11  C   UNL     1       1.928   8.097  18.916  0.00  0.00    +0.000 A 
ATOM     12  C   UNL     1       2.337   6.860  19.378  0.00  0.00    +0.000 A 
ATOM     13  C   UNL     1       1.749   6.048  20.460  0.00  0.00    +0.000 C 
ATOM     14  O   UNL     1       0.810   6.350  21.165  0.00  0.00    +0.000 OA
ENDROOT
BRANCH   1  17
ATOM     15  C   UNL     1       6.554   4.618  18.692  0.00  0.00    +0.000 C 
ATOM     16  O   UNL     1       6.795   5.292  19.686  0.00  0.00    +0.000 OA
ATOM     17  N   UNL     1       5.474   3.798  18.491  0.00  0.00    +0.000 N 
ATOM     18  H   UNL     1       5.592   3.005  17.872  0.00  0.00    +0.000 HD
BRANCH  15  20
ATOM     19  C   UNL     1       7.260   4.642  16.305  0.00  0.00    +0.000 C 
ATOM     20  C   UNL     1       7.551   4.541  17.611  0.00  0.00    +0.000 C 
BRANCH  19  22
ATOM     21  O   UNL     1       5.879   6.030  15.034  0.00  0.00    +0.000 OA
ATOM     22  C   UNL     1       5.998   4.959  15.610  0.00  0.00    +0.000 C 
BRANCH  22  23
ATOM     23  O   UNL     1       5.017   4.053  15.655  0.00  0.00    +0.000 OA
ATOM     24  H   UNL     1       4.500   3.993  16.493  0.00  0.00    +0.000 HD
ENDBRANCH  22  23
ENDBRANCH  19  22
ENDBRANCH  15  20
ENDBRANCH   1  17
TORSDOF 4
ENDMDL
MODEL 2
REMARK VINA RESULT:      -7.6      3.191      5.691
REMARK  Name = 
REMARK  4 active torsions:
REMARK  status: ('A' for Active; 'I' for Inactive)
REMARK    1  A    between atoms: C_2  and  O_3
REMARK    2  A    between atoms: C_2  and  C_4
REMARK    3  A    between atoms: C_5  and  C_6
REMARK    4  A    between atoms: N_8  and  C_9
REMARK                            x       y       z     vdW  Elec       q    Type
REMARK                         _______ _______ _______ _____ _____    ______ ____
ROOT
ATOM      1  C   UNL     1       2.159   7.484  19.669  0.00  0.00    +0.000 A 
ATOM      2  C   UNL     1       2.807   7.378  18.423  0.00  0.00    +0.000 A 
ATOM      3  C   UNL     1       2.660   8.366  17.432  0.00  0.00    +0.000 A 
ATOM      4  C   UNL     1       1.877   9.491  17.670  0.00  0.00    +0.000 A 
ATOM      5  C   UNL     1       1.267   9.580  18.908  0.00  0.00    +0.000 A 
ATOM      6  C   UNL     1       1.383   8.607  19.921  0.00  0.00    +0.000 A 
ATOM      7  C   UNL     1       0.678   9.086  21.103  0.00  0.00    +0.000 A 
ATOM      8  C   UNL     1       0.562   8.580  22.389  0.00  0.00    +0.000 A 
ATOM      9  C   UNL     1      -0.176   9.306  23.335  0.00  0.00    +0.000 A 
ATOM     10  C   UNL     1      -0.773  10.536  23.011  0.00  0.00    +0.000 A 
ATOM     11  C   UNL     1      -0.633  11.070  21.733  0.00  0.00    +0.000 A 
ATOM     12  C   UNL     1       0.089  10.330  20.815  0.00  0.00    +0.000 A 
ATOM     13  C   UNL     1       0.431  10.682  19.424  0.00  0.00    +0.000 C 
ATOM     14  O   UNL     1       0.099  11.683  18.826  0.00  0.00    +0.000 OA
ENDROOT
BRANCH   1  17
ATOM     15  C   UNL     1       1.873   5.144  20.274  0.00  0.00    +0.000 C 
ATOM     16  O   UNL     1       1.565   4.718  19.167  0.00  0.00    +0.000 OA
ATOM     17  N   UNL     1       2.253   6.423  20.589  0.00  0.00    +0.000 N 
ATOM     18  H   UNL     1       2.871   6.550  21.383  0.00  0.00    +0.000 HD
BRANCH  15  20
ATOM     19  C   UNL     1       2.636   3.036  21.356  0.00  0.00    +0.000 C 
ATOM     20  C   UNL     1       1.984   4.209  21.405  0.00  0.00    +0.000 C 
BRANCH  19  22
ATOM     21  O   UNL     1       4.680   2.346  20.466  0.00  0.00    +0.000 OA
ATOM     22  C   UNL     1       3.472   2.430  20.304  0.00  0.00    +0.000 C 
BRANCH  22  23
ATOM     23  O   UNL     1       2.865   2.007  19.191  0.00  0.00    +0.000 OA
ATOM     24  H   UNL     1       2.331   2.670  18.691  0.00  0.00    +0.000 HD
ENDBRANCH  22  23
ENDBRANCH  19  22
ENDBRANCH  15  20
ENDBRANCH   1  17
TORSDOF 4
ENDMDL
MODEL 3
REMARK VINA RESULT:      -7.6      2.339      4.811
REMARK  Name = 
REMARK  4 active torsions:
REMARK  status: ('A' for Active; 'I' for Inactive)
REMARK    1  A    between atoms: C_2  and  O_3
REMARK    2  A    between atoms: C_2  and  C_4
REMARK    3  A    between atoms: C_5  and  C_6
REMARK    4  A    between atoms: N_8  and  C_9
REMARK                            x       y       z     vdW  Elec       q    Type
REMARK                         _______ _______ _______ _____ _____    ______ ____
ROOT
ATOM      1  C   UNL     1       1.803   6.614  20.706  0.00  0.00    +0.000 A 
ATOM      2  C   UNL     1       0.835   7.367  21.398  0.00  0.00    +0.000 A 
ATOM      3  C   UNL     1       0.437   8.640  20.950  0.00  0.00    +0.000 A 
ATOM      4  C   UNL     1       0.983   9.181  19.791  0.00  0.00    +0.000 A 
ATOM      5  C   UNL     1       1.918   8.413  19.119  0.00  0.00    +0.000 A 
ATOM      6  C   UNL     1       2.348   7.140  19.543  0.00  0.00    +0.000 A 
ATOM      7  C   UNL     1       3.266   6.608  18.543  0.00  0.00    +0.000 A 
ATOM      8  C   UNL     1       3.893   5.378  18.413  0.00  0.00    +0.000 A 
ATOM      9  C   UNL     1       4.710   5.153  17.297  0.00  0.00    +0.000 A 
ATOM     10  C   UNL     1       4.884   6.134  16.306  0.00  0.00    +0.000 A 
ATOM     11  C   UNL     1       4.231   7.361  16.409  0.00  0.00    +0.000 A 
ATOM     12  C   UNL     1       3.440   7.562  17.525  0.00  0.00    +0.000 A 
ATOM     13  C   UNL     1       2.606   8.733  17.854  0.00  0.00    +0.000 C 
ATOM     14  O   UNL     1       2.500   9.753  17.207  0.00  0.00    +0.000 OA
ENDROOT
BRANCH   1  17
ATOM     15  C   UNL     1       1.649   4.196  20.938  0.00  0.00    +0.000 C 
ATOM     16  O   UNL     1       0.801   3.995  20.077  0.00  0.00    +0.000 OA
ATOM     17  N   UNL     1       2.245   5.392  21.248  0.00  0.00    +0.000 N 
ATOM     18  H   UNL     1       3.181   5.367  21.635  0.00  0.00    +0.000 HD
BRANCH  15  20
ATOM     19  C   UNL     1       3.115   2.196  21.158  0.00  0.00    +0.000 C 
ATOM     20  C   UNL     1       2.220   3.055  21.672  0.00  0.00    +0.000 C 
BRANCH  19  22
ATOM     21  O   UNL     1       3.243   1.900  18.846  0.00  0.00    +0.000 OA
ATOM     22  C   UNL     1       3.837   2.195  19.872  0.00  0.00    +0.000 C 
BRANCH  22  23
ATOM     23  O   UNL     1       5.136   2.506  19.887  0.00  0.00    +0.000 OA
ATOM     24  H   UNL     1       5.654   2.231  20.681  0.00  0.00    +0.000 HD
ENDBRANCH  22  23
ENDBRANCH  19  22
ENDBRANCH  15  20
ENDBRANCH   1  17
TORSDOF 4
ENDMDL
MODEL 4
REMARK VINA RESULT:      -7.6      2.579      5.441
REMARK  Name = 
REMARK  4 active torsions:
REMARK  status: ('A' for Active; 'I' for Inactive)
REMARK    1  A    between atoms: C_2  and  O_3
REMARK    2  A    between atoms: C_2  and  C_4
REMARK    3  A    between atoms: C_5  and  C_6
REMARK    4  A    between atoms: N_8  and  C_9
REMARK                            x       y       z     vdW  Elec       q    Type
REMARK                         _______ _______ _______ _____ _____    ______ ____
ROOT
ATOM      1  C   UNL     1       2.456   6.045  19.516  0.00  0.00    +0.000 A 
ATOM      2  C   UNL     1       1.648   5.554  20.559  0.00  0.00    +0.000 A 
ATOM      3  C   UNL     1       1.414   4.176  20.722  0.00  0.00    +0.000 A 
ATOM      4  C   UNL     1       2.000   3.256  19.858  0.00  0.00    +0.000 A 
ATOM      5  C   UNL     1       2.805   3.762  18.853  0.00  0.00    +0.000 A 
ATOM      6  C   UNL     1       3.053   5.135  18.653  0.00  0.00    +0.000 A 
ATOM      7  C   UNL     1       4.010   5.276  17.562  0.00  0.00    +0.000 A 
ATOM      8  C   UNL     1       4.662   6.378  17.030  0.00  0.00    +0.000 A 
ATOM      9  C   UNL     1       5.570   6.182  15.981  0.00  0.00    +0.000 A 
ATOM     10  C   UNL     1       5.845   4.898  15.481  0.00  0.00    +0.000 A 
ATOM     11  C   UNL     1       5.222   3.780  16.031  0.00  0.00    +0.000 A 
ATOM     12  C   UNL     1       4.323   4.001  17.057  0.00  0.00    +0.000 A 
ATOM     13  C   UNL     1       3.571   3.005  17.844  0.00  0.00    +0.000 C 
ATOM     14  O   UNL     1       3.588   1.802  17.698  0.00  0.00    +0.000 OA
ENDROOT
BRANCH   1  17
ATOM     15  C   UNL     1       1.976   8.089  18.286  0.00  0.00    +0.000 C 
ATOM     16  O   UNL     1       1.162   7.626  17.496  0.00  0.00    +0.000 OA
ATOM     17  N   UNL     1       2.577   7.435  19.330  0.00  0.00    +0.000 N 
ATOM     18  H   UNL     1       2.866   7.986  20.129  0.00  0.00    +0.000 HD
BRANCH  15  20
ATOM     19  C   UNL     1       1.378  10.505  18.287  0.00  0.00    +0.000 C 
ATOM     20  C   UNL     1       2.294   9.526  18.240  0.00  0.00    +0.000 C 
BRANCH  19  22
ATOM     21  O   UNL     1      -0.531  10.760  19.605  0.00  0.00    +0.000 OA
ATOM     22  C   UNL     1      -0.080  10.466  18.509  0.00  0.00    +0.000 C 
BRANCH  22  23
ATOM     23  O   UNL     1      -0.856  10.088  17.489  0.00  0.00    +0.000 OA
ATOM     24  H   UNL     1      -0.481  10.185  16.580  0.00  0.00    +0.000 HD
ENDBRANCH  22  23
ENDBRANCH  19  22
ENDBRANCH  15  20
ENDBRANCH   1  17
TORSDOF 4
ENDMDL
MODEL 5
REMARK VINA RESULT:      -7.5      3.426      5.898
REMARK  Name = 
REMARK  4 active torsions:
REMARK  status: ('A' for Active; 'I' for Inactive)
REMARK    1  A    between atoms: C_2  and  O_3
REMARK    2  A    between atoms: C_2  and  C_4
REMARK    3  A    between atoms: C_5  and  C_6
REMARK    4  A    between atoms: N_8  and  C_9
REMARK                            x       y       z     vdW  Elec       q    Type
REMARK                         _______ _______ _______ _____ _____    ______ ____
ROOT
ATOM      1  C   UNL     1       1.919   7.605  19.732  0.00  0.00    +0.000 A 
ATOM      2  C   UNL     1       2.623   7.463  18.521  0.00  0.00    +0.000 A 
ATOM      3  C   UNL     1       2.625   8.479  17.548  0.00  0.00    +0.000 A 
ATOM      4  C   UNL     1       1.938   9.669  17.771  0.00  0.00    +0.000 A 
ATOM      5  C   UNL     1       1.270   9.791  18.977  0.00  0.00    +0.000 A 
ATOM      6  C   UNL     1       1.238   8.791  19.970  0.00  0.00    +0.000 A 
ATOM      7  C   UNL     1       0.515   9.311  21.124  0.00  0.00    +0.000 A 
ATOM      8  C   UNL     1       0.280   8.793  22.388  0.00  0.00    +0.000 A 
ATOM      9  C   UNL     1      -0.439   9.566  23.311  0.00  0.00    +0.000 A 
ATOM     10  C   UNL     1      -0.900  10.853  22.986  0.00  0.00    +0.000 A 
ATOM     11  C   UNL     1      -0.639  11.397  21.730  0.00  0.00    +0.000 A 
ATOM     12  C   UNL     1       0.062  10.611  20.835  0.00  0.00    +0.000 A 
ATOM     13  C   UNL     1       0.513  10.956  19.474  0.00  0.00    +0.000 C 
ATOM     14  O   UNL     1       0.310  11.996  18.884  0.00  0.00    +0.000 OA
ENDROOT
BRANCH   1  17
ATOM     15  C   UNL     1       2.548   5.355  20.413  0.00  0.00    +0.000 C 
ATOM     16  O   UNL     1       3.390   5.143  19.549  0.00  0.00    +0.000 OA
ATOM     17  N   UNL     1       1.861   6.522  20.629  0.00  0.00    +0.000 N 
ATOM     18  H   UNL     1       1.546   6.716  21.572  0.00  0.00    +0.000 HD
BRANCH  15  20
ATOM     19  C   UNL     1       1.690   3.152  21.192  0.00  0.00    +0.000 C 
ATOM     20  C   UNL     1       2.287   4.329  21.437  0.00  0.00    +0.000 C 
BRANCH  19  22
ATOM     21  O   UNL     1       2.062   1.846  19.294  0.00  0.00    +0.000 OA
ATOM     22  C   UNL     1       1.266   2.518  19.930  0.00  0.00    +0.000 C 
BRANCH  22  23
ATOM     23  O   UNL     1       0.010   2.724  19.521  0.00  0.00    +0.000 OA
ATOM     24  H   UNL     1      -0.503   3.429  19.985  0.00  0.00    +0.000 HD
ENDBRANCH  22  23
ENDBRANCH  19  22
ENDBRANCH  15  20
ENDBRANCH   1  17
TORSDOF 4
ENDMDL
MODEL 6
REMARK VINA RESULT:      -7.5      2.504      5.114
REMARK  Name = 
REMARK  4 active torsions:
REMARK  status: ('A' for Active; 'I' for Inactive)
REMARK    1  A    between atoms: C_2  and  O_3
REMARK    2  A    between atoms: C_2  and  C_4
REMARK    3  A    between atoms: C_5  and  C_6
REMARK    4  A    between atoms: N_8  and  C_9
REMARK                            x       y       z     vdW  Elec       q    Type
REMARK                         _______ _______ _______ _____ _____    ______ ____
ROOT
ATOM      1  C   UNL     1       2.237   5.844  19.993  0.00  0.00    +0.000 A 
ATOM      2  C   UNL     1       1.531   5.139  20.987  0.00  0.00    +0.000 A 
ATOM      3  C   UNL     1       1.414   3.737  20.950  0.00  0.00    +0.000 A 
ATOM      4  C   UNL     1       2.016   3.007  19.930  0.00  0.00    +0.000 A 
ATOM      5  C   UNL     1       2.720   3.722  18.977  0.00  0.00    +0.000 A 
ATOM      6  C   UNL     1       2.850   5.125  18.975  0.00  0.00    +0.000 A 
ATOM      7  C   UNL     1       3.727   5.506  17.875  0.00  0.00    +0.000 A 
ATOM      8  C   UNL     1       4.260   6.725  17.486  0.00  0.00    +0.000 A 
ATOM      9  C   UNL     1       5.117   6.763  16.377  0.00  0.00    +0.000 A 
ATOM     10  C   UNL     1       5.460   5.595  15.676  0.00  0.00    +0.000 A 
ATOM     11  C   UNL     1       4.958   4.359  16.080  0.00  0.00    +0.000 A 
ATOM     12  C   UNL     1       4.106   4.350  17.169  0.00  0.00    +0.000 A 
ATOM     13  C   UNL     1       3.481   3.190  17.830  0.00  0.00    +0.000 C 
ATOM     14  O   UNL     1       3.581   2.027  17.502  0.00  0.00    +0.000 OA
ENDROOT
BRANCH   1  17
ATOM     15  C   UNL     1       1.281   7.976  20.674  0.00  0.00    +0.000 C 
ATOM     16  O   UNL     1       0.420   7.543  21.431  0.00  0.00    +0.000 OA
ATOM     17  N   UNL     1       2.240   7.252  20.015  0.00  0.00    +0.000 N 
ATOM     18  H   UNL     1       3.111   7.718  19.789  0.00  0.00    +0.000 HD
BRANCH  15  20
ATOM     19  C   UNL     1       1.322  10.071  19.330  0.00  0.00    +0.000 C 
ATOM     20  C   UNL     1       1.431   9.431  20.505  0.00  0.00    +0.000 C 
BRANCH  19  22
ATOM     21  O   UNL     1       1.718   8.943  17.326  0.00  0.00    +0.000 OA
ATOM     22  C   UNL     1       0.927   9.592  17.993  0.00  0.00    +0.000 C 
BRANCH  22  23
ATOM     23  O   UNL     1      -0.295   9.908  17.553  0.00  0.00    +0.000 OA
ATOM     24  H   UNL     1      -0.394  10.078  16.586  0.00  0.00    +0.000 HD
ENDBRANCH  22  23
ENDBRANCH  19  22
ENDBRANCH  15  20
ENDBRANCH   1  17
TORSDOF 4
ENDMDL
MODEL 7
REMARK VINA RESULT:      -7.5      1.400      1.646
REMARK  Name = 
REMARK  4 active torsions:
REMARK  status: ('A' for Active; 'I' for Inactive)
REMARK    1  A    between atoms: C_2  and  O_3
REMARK    2  A    between atoms: C_2  and  C_4
REMARK    3  A    between atoms: C_5  and  C_6
REMARK    4  A    between atoms: N_8  and  C_9
REMARK                            x       y       z     vdW  Elec       q    Type
REMARK                         _______ _______ _______ _____ _____    ______ ____
ROOT
ATOM      1  C   UNL     1       3.759   4.131  19.328  0.00  0.00    +0.000 A 
ATOM      2  C   UNL     1       3.498   2.977  20.092  0.00  0.00    +0.000 A 
ATOM      3  C   UNL     1       2.521   2.971  21.105  0.00  0.00    +0.000 A 
ATOM      4  C   UNL     1       1.769   4.113  21.364  0.00  0.00    +0.000 A 
ATOM      5  C   UNL     1       2.032   5.227  20.587  0.00  0.00    +0.000 A 
ATOM      6  C   UNL     1       3.009   5.273  19.572  0.00  0.00    +0.000 A 
ATOM      7  C   UNL     1       2.936   6.575  18.920  0.00  0.00    +0.000 A 
ATOM      8  C   UNL     1       3.587   7.104  17.816  0.00  0.00    +0.000 A 
ATOM      9  C   UNL     1       3.269   8.406  17.405  0.00  0.00    +0.000 A 
ATOM     10  C   UNL     1       2.294   9.167  18.073  0.00  0.00    +0.000 A 
ATOM     11  C   UNL     1       1.609   8.633  19.162  0.00  0.00    +0.000 A 
ATOM     12  C   UNL     1       1.948   7.351  19.554  0.00  0.00    +0.000 A 
ATOM     13  C   UNL     1       1.352   6.536  20.628  0.00  0.00    +0.000 C 
ATOM     14  O   UNL     1       0.468   6.872  21.388  0.00  0.00    +0.000 OA
ENDROOT
BRANCH   1  17
ATOM     15  C   UNL     1       6.060   4.612  18.697  0.00  0.00    +0.000 C 
ATOM     16  O   UNL     1       6.468   4.967  19.796  0.00  0.00    +0.000 OA
ATOM     17  N   UNL     1       4.816   4.120  18.398  0.00  0.00    +0.000 N 
ATOM     18  H   UNL     1       4.735   3.485  17.612  0.00  0.00    +0.000 HD
BRANCH  15  20
ATOM     19  C   UNL     1       7.629   5.643  17.063  0.00  0.00    +0.000 C 
ATOM     20  C   UNL     1       6.991   4.570  17.557  0.00  0.00    +0.000 C 
BRANCH  19  22
ATOM     21  O   UNL     1       7.207   7.929  16.857  0.00  0.00    +0.000 OA
ATOM     22  C   UNL     1       7.698   7.038  17.533  0.00  0.00    +0.000 C 
BRANCH  22  23
ATOM     23  O   UNL     1       8.320   7.275  18.692  0.00  0.00    +0.000 OA
ATOM     24  H   UNL     1       7.856   7.858  19.340  0.00  0.00    +0.000 HD
ENDBRANCH  22  23
ENDBRANCH  19  22
ENDBRANCH  15  20
ENDBRANCH   1  17
TORSDOF 4
ENDMDL
MODEL 8
REMARK VINA RESULT:      -7.4      2.484      5.901
REMARK  Name = 
REMARK  4 active torsions:
REMARK  status: ('A' for Active; 'I' for Inactive)
REMARK    1  A    between atoms: C_2  and  O_3
REMARK    2  A    between atoms: C_2  and  C_4
REMARK    3  A    between atoms: C_5  and  C_6
REMARK    4  A    between atoms: N_8  and  C_9
REMARK                            x       y       z     vdW  Elec       q    Type
REMARK                         _______ _______ _______ _____ _____    ______ ____
ROOT
ATOM      1  C   UNL     1       2.565   5.373  20.235  0.00  0.00    +0.000 A 
ATOM      2  C   UNL     1       2.004   4.582  21.256  0.00  0.00    +0.000 A 
ATOM      3  C   UNL     1       1.966   3.178  21.162  0.00  0.00    +0.000 A 
ATOM      4  C   UNL     1       2.505   2.532  20.054  0.00  0.00    +0.000 A 
ATOM      5  C   UNL     1       3.068   3.331  19.073  0.00  0.00    +0.000 A 
ATOM      6  C   UNL     1       3.115   4.738  19.128  0.00  0.00    +0.000 A 
ATOM      7  C   UNL     1       3.854   5.221  17.969  0.00  0.00    +0.000 A 
ATOM      8  C   UNL     1       4.274   6.487  17.590  0.00  0.00    +0.000 A 
ATOM      9  C   UNL     1       5.013   6.627  16.408  0.00  0.00    +0.000 A 
ATOM     10  C   UNL     1       5.352   5.513  15.620  0.00  0.00    +0.000 A 
ATOM     11  C   UNL     1       4.966   4.233  16.009  0.00  0.00    +0.000 A 
ATOM     12  C   UNL     1       4.229   4.123  17.173  0.00  0.00    +0.000 A 
ATOM     13  C   UNL     1       3.741   2.898  17.834  0.00  0.00    +0.000 C 
ATOM     14  O   UNL     1       3.876   1.759  17.441  0.00  0.00    +0.000 OA
ENDROOT
BRANCH   1  17
ATOM     15  C   UNL     1       1.335   7.423  20.686  0.00  0.00    +0.000 C 
ATOM     16  O   UNL     1       0.305   6.915  21.113  0.00  0.00    +0.000 OA
ATOM     17  N   UNL     1       2.488   6.776  20.325  0.00  0.00    +0.000 N 
ATOM     18  H   UNL     1       3.360   7.284  20.406  0.00  0.00    +0.000 HD
BRANCH  15  20
ATOM     19  C   UNL     1       0.962   9.716  21.580  0.00  0.00    +0.000 C 
ATOM     20  C   UNL     1       1.455   8.890  20.644  0.00  0.00    +0.000 C 
BRANCH  19  22
ATOM     21  O   UNL     1       0.938   9.663  23.913  0.00  0.00    +0.000 OA
ATOM     22  C   UNL     1       0.323   9.444  22.881  0.00  0.00    +0.000 C 
BRANCH  22  23
ATOM     23  O   UNL     1      -0.917   8.945  22.874  0.00  0.00    +0.000 OA
ATOM     24  H   UNL     1      -1.437   9.046  22.041  0.00  0.00    +0.000 HD
ENDBRANCH  22  23
ENDBRANCH  19  22
ENDBRANCH  15  20
ENDBRANCH   1  17
TORSDOF 4
ENDMDL
MODEL 9
REMARK VINA RESULT:      -7.4      0.943      1.667
REMARK  Name = 
REMARK  4 active torsions:
REMARK  status: ('A' for Active; 'I' for Inactive)
REMARK    1  A    between atoms: C_2  and  O_3
REMARK    2  A    between atoms: C_2  and  C_4
REMARK    3  A    between atoms: C_5  and  C_6
REMARK    4  A    between atoms: N_8  and  C_9
REMARK                            x       y       z     vdW  Elec       q    Type
REMARK                         _______ _______ _______ _____ _____    ______ ____
ROOT
ATOM      1  C   UNL     1       4.044   3.902  19.215  0.00  0.00    +0.000 A 
ATOM      2  C   UNL     1       3.827   2.757  20.004  0.00  0.00    +0.000 A 
ATOM      3  C   UNL     1       2.895   2.757  21.059  0.00  0.00    +0.000 A 
ATOM      4  C   UNL     1       2.146   3.896  21.336  0.00  0.00    +0.000 A 
ATOM      5  C   UNL     1       2.365   5.002  20.533  0.00  0.00    +0.000 A 
ATOM      6  C   UNL     1       3.296   5.042  19.476  0.00  0.00    +0.000 A 
ATOM      7  C   UNL     1       3.183   6.334  18.811  0.00  0.00    +0.000 A 
ATOM      8  C   UNL     1       3.781   6.852  17.672  0.00  0.00    +0.000 A 
ATOM      9  C   UNL     1       3.434   8.146  17.258  0.00  0.00    +0.000 A 
ATOM     10  C   UNL     1       2.483   8.908  17.958  0.00  0.00    +0.000 A 
ATOM     11  C   UNL     1       1.850   8.384  19.083  0.00  0.00    +0.000 A 
ATOM     12  C   UNL     1       2.218   7.111  19.476  0.00  0.00    +0.000 A 
ATOM     13  C   UNL     1       1.676   6.306  20.587  0.00  0.00    +0.000 C 
ATOM     14  O   UNL     1       0.824   6.645  21.381  0.00  0.00    +0.000 OA
ENDROOT
BRANCH   1  17
ATOM     15  C   UNL     1       4.790   3.711  16.906  0.00  0.00    +0.000 C 
ATOM     16  O   UNL     1       3.688   3.702  16.371  0.00  0.00    +0.000 OA
ATOM     17  N   UNL     1       5.059   3.886  18.239  0.00  0.00    +0.000 N 
ATOM     18  H   UNL     1       5.951   4.294  18.491  0.00  0.00    +0.000 HD
BRANCH  15  20
ATOM     19  C   UNL     1       6.980   4.570  16.095  0.00  0.00    +0.000 C 
ATOM     20  C   UNL     1       6.001   3.653  16.071  0.00  0.00    +0.000 C 
BRANCH  19  22
ATOM     21  O   UNL     1       7.078   6.865  16.508  0.00  0.00    +0.000 OA
ATOM     22  C   UNL     1       7.199   5.739  16.966  0.00  0.00    +0.000 C 
BRANCH  22  23
ATOM     23  O   UNL     1       7.544   5.513  18.237  0.00  0.00    +0.000 OA
ATOM     24  H   UNL     1       7.050   6.012  18.932  0.00  0.00    +0.000 HD
ENDBRANCH  22  23
ENDBRANCH  19  22
ENDBRANCH  15  20
ENDBRANCH   1  17
TORSDOF 4
ENDMDL
