MODEL 1
REMARK VINA RESULT:      -7.8      0.000      0.000
REMARK  Name = 
REMARK  5 active torsions:
REMARK  status: ('A' for Active; 'I' for Inactive)
REMARK    1  A    between atoms: C_1  and  C_2
REMARK    2  A    between atoms: C_2  and  C_3
REMARK    3  A    between atoms: C_2  and  C_4
REMARK    4  A    between atoms: C_7  and  C_8
REMARK    5  A    between atoms: C_14  and  N_15
REMARK                            x       y       z     vdW  Elec       q    Type
REMARK                         _______ _______ _______ _____ _____    ______ ____
ROOT
ATOM      1  C   UNL     1       6.046   3.857  13.638  0.00  0.00    +0.000 A 
ATOM      2  N   UNL     1       7.130   4.657  13.608  0.00  0.00    +0.000 NA
ATOM      3  N   UNL     1       7.452   5.365  14.710  0.00  0.00    +0.000 NA
ATOM      4  C   UNL     1       6.674   5.282  15.820  0.00  0.00    +0.000 A 
ATOM      5  C   UNL     1       5.507   4.489  15.803  0.00  0.00    +0.000 A 
ATOM      6  N   UNL     1       5.222   3.748  14.704  0.00  0.00    +0.000 NA
ENDROOT
BRANCH   4   7
ATOM      7  C   UNL     1       7.218   6.026  16.976  0.00  0.00    +0.000 A 
ATOM      8  C   UNL     1       7.561   5.356  18.166  0.00  0.00    +0.000 A 
ATOM      9  C   UNL     1       8.151   6.035  19.236  0.00  0.00    +0.000 A 
ATOM     10  C   UNL     1       8.422   7.397  19.137  0.00  0.00    +0.000 A 
ATOM     11  C   UNL     1       8.046   8.092  17.992  0.00  0.00    +0.000 A 
ATOM     12  C   UNL     1       7.413   7.418  16.944  0.00  0.00    +0.000 A 
ENDBRANCH   4   7
BRANCH   5  13
ATOM     13  N   UNL     1       4.573   4.420  16.818  0.00  0.00    +0.000 N 
ATOM     14  C   UNL     1       3.911   5.643  17.289  0.00  0.00    +0.000 C 
ATOM     15  C   UNL     1       3.872   5.680  18.825  0.00  0.00    +0.000 C 
ATOM     16  O   UNL     1       3.314   4.477  19.377  0.00  0.00    +0.000 OA
ATOM     17  C   UNL     1       4.113   3.347  18.993  0.00  0.00    +0.000 C 
ATOM     18  C   UNL     1       4.140   3.179  17.469  0.00  0.00    +0.000 C 
ENDBRANCH   5  13
BRANCH   1  20
ATOM     19  C   UNL     1       4.519   3.528  11.684  0.00  0.00    +0.000 C 
ATOM     20  C   UNL     1       5.771   3.032  12.404  0.00  0.00    +0.000 C 
ATOM     21  C   UNL     1       6.976   3.006  11.465  0.00  0.00    +0.000 C 
ENDBRANCH   1  20
TORSDOF 3
ENDMDL
MODEL 2
REMARK VINA RESULT:      -7.6      2.868      4.987
REMARK  Name = 
REMARK  5 active torsions:
REMARK  status: ('A' for Active; 'I' for Inactive)
REMARK    1  A    between atoms: C_1  and  C_2
REMARK    2  A    between atoms: C_2  and  C_3
REMARK    3  A    between atoms: C_2  and  C_4
REMARK    4  A    between atoms: C_7  and  C_8
REMARK    5  A    between atoms: C_14  and  N_15
REMARK                            x       y       z     vdW  Elec       q    Type
REMARK                         _______ _______ _______ _____ _____    ______ ____
ROOT
ATOM      1  C   UNL     1       5.406   5.177  17.216  0.00  0.00    +0.000 A 
ATOM      2  N   UNL     1       5.322   6.460  16.814  0.00  0.00    +0.000 NA
ATOM      3  N   UNL     1       4.307   7.223  17.268  0.00  0.00    +0.000 NA
ATOM      4  C   UNL     1       3.376   6.688  18.100  0.00  0.00    +0.000 A 
ATOM      5  C   UNL     1       3.450   5.324  18.452  0.00  0.00    +0.000 A 
ATOM      6  N   UNL     1       4.501   4.581  18.025  0.00  0.00    +0.000 NA
ENDROOT
BRANCH   4   7
ATOM      7  C   UNL     1       2.396   7.676  18.598  0.00  0.00    +0.000 A 
ATOM      8  C   UNL     1       2.044   7.718  19.961  0.00  0.00    +0.000 A 
ATOM      9  C   UNL     1       1.180   8.698  20.458  0.00  0.00    +0.000 A 
ATOM     10  C   UNL     1       0.657   9.666  19.605  0.00  0.00    +0.000 A 
ATOM     11  C   UNL     1       0.948   9.615  18.245  0.00  0.00    +0.000 A 
ATOM     12  C   UNL     1       1.773   8.605  17.746  0.00  0.00    +0.000 A 
ENDBRANCH   4   7
BRANCH   5  13
ATOM     13  N   UNL     1       2.503   4.635  19.186  0.00  0.00    +0.000 N 
ATOM     14  C   UNL     1       2.646   4.519  20.641  0.00  0.00    +0.000 C 
ATOM     15  C   UNL     1       2.364   3.079  21.100  0.00  0.00    +0.000 C 
ATOM     16  O   UNL     1       1.104   2.596  20.607  0.00  0.00    +0.000 OA
ATOM     17  C   UNL     1       1.109   2.598  19.171  0.00  0.00    +0.000 C 
ATOM     18  C   UNL     1       1.300   4.016  18.619  0.00  0.00    +0.000 C 
ENDBRANCH   5  13
BRANCH   1  20
ATOM     19  C   UNL     1       6.950   4.747  15.294  0.00  0.00    +0.000 C 
ATOM     20  C   UNL     1       6.600   4.387  16.737  0.00  0.00    +0.000 C 
ATOM     21  C   UNL     1       7.803   4.572  17.660  0.00  0.00    +0.000 C 
ENDBRANCH   1  20
TORSDOF 3
ENDMDL
MODEL 3
REMARK VINA RESULT:      -7.5      0.148      1.059
REMARK  Name = 
REMARK  5 active torsions:
REMARK  status: ('A' for Active; 'I' for Inactive)
REMARK    1  A    between atoms: C_1  and  C_2
REMARK    2  A    between atoms: C_2  and  C_3
REMARK    3  A    between atoms: C_2  and  C_4
REMARK    4  A    between atoms: C_7  and  C_8
REMARK    5  A    between atoms: C_14  and  N_15
REMARK                            x       y       z     vdW  Elec       q    Type
REMARK                         _______ _______ _______ _____ _____    ______ ____
ROOT
ATOM      1  C   UNL     1       5.924   3.782  13.587  0.00  0.00    +0.000 A 
ATOM      2  N   UNL     1       7.039   4.536  13.530  0.00  0.00    +0.000 NA
ATOM      3  N   UNL     1       7.420   5.226  14.625  0.00  0.00    +0.000 NA
ATOM      4  C   UNL     1       6.669   5.171  15.756  0.00  0.00    +0.000 A 
ATOM      5  C   UNL     1       5.470   4.427  15.768  0.00  0.00    +0.000 A 
ATOM      6  N   UNL     1       5.124   3.703  14.675  0.00  0.00    +0.000 NA
ENDROOT
BRANCH   4   7
ATOM      7  C   UNL     1       7.275   5.887  16.899  0.00  0.00    +0.000 A 
ATOM      8  C   UNL     1       7.508   7.274  16.839  0.00  0.00    +0.000 A 
ATOM      9  C   UNL     1       8.005   7.974  17.941  0.00  0.00    +0.000 A 
ATOM     10  C   UNL     1       8.271   7.305  19.133  0.00  0.00    +0.000 A 
ATOM     11  C   UNL     1       8.099   5.926  19.202  0.00  0.00    +0.000 A 
ATOM     12  C   UNL     1       7.647   5.224  18.082  0.00  0.00    +0.000 A 
ENDBRANCH   4   7
BRANCH   5  13
ATOM     13  N   UNL     1       4.561   4.394  16.808  0.00  0.00    +0.000 N 
ATOM     14  C   UNL     1       3.979   5.643  17.312  0.00  0.00    +0.000 C 
ATOM     15  C   UNL     1       3.983   5.660  18.849  0.00  0.00    +0.000 C 
ATOM     16  O   UNL     1       3.378   4.480  19.401  0.00  0.00    +0.000 OA
ATOM     17  C   UNL     1       4.105   3.316  18.981  0.00  0.00    +0.000 C 
ATOM     18  C   UNL     1       4.081   3.168  17.455  0.00  0.00    +0.000 C 
ENDBRANCH   5  13
BRANCH   1  20
ATOM     19  C   UNL     1       4.420   3.607  11.595  0.00  0.00    +0.000 C 
ATOM     20  C   UNL     1       5.581   2.973  12.360  0.00  0.00    +0.000 C 
ATOM     21  C   UNL     1       6.798   2.780  11.456  0.00  0.00    +0.000 C 
ENDBRANCH   1  20
TORSDOF 3
ENDMDL
MODEL 4
REMARK VINA RESULT:      -7.5      0.596      1.266
REMARK  Name = 
REMARK  5 active torsions:
REMARK  status: ('A' for Active; 'I' for Inactive)
REMARK    1  A    between atoms: C_1  and  C_2
REMARK    2  A    between atoms: C_2  and  C_3
REMARK    3  A    between atoms: C_2  and  C_4
REMARK    4  A    between atoms: C_7  and  C_8
REMARK    5  A    between atoms: C_14  and  N_15
REMARK                            x       y       z     vdW  Elec       q    Type
REMARK                         _______ _______ _______ _____ _____    ______ ____
ROOT
ATOM      1  C   UNL     1       5.988   3.850  13.646  0.00  0.00    +0.000 A 
ATOM      2  N   UNL     1       7.046   4.683  13.599  0.00  0.00    +0.000 NA
ATOM      3  N   UNL     1       7.376   5.385  14.703  0.00  0.00    +0.000 NA
ATOM      4  C   UNL     1       6.631   5.262  15.832  0.00  0.00    +0.000 A 
ATOM      5  C   UNL     1       5.488   4.434  15.833  0.00  0.00    +0.000 A 
ATOM      6  N   UNL     1       5.196   3.701  14.731  0.00  0.00    +0.000 NA
ENDROOT
BRANCH   4   7
ATOM      7  C   UNL     1       7.184   6.005  16.984  0.00  0.00    +0.000 A 
ATOM      8  C   UNL     1       7.549   5.333  18.166  0.00  0.00    +0.000 A 
ATOM      9  C   UNL     1       8.147   6.012  19.231  0.00  0.00    +0.000 A 
ATOM     10  C   UNL     1       8.403   7.377  19.136  0.00  0.00    +0.000 A 
ATOM     11  C   UNL     1       8.004   8.074  18.000  0.00  0.00    +0.000 A 
ATOM     12  C   UNL     1       7.363   7.400  16.957  0.00  0.00    +0.000 A 
ENDBRANCH   4   7
BRANCH   5  13
ATOM     13  N   UNL     1       4.584   4.322  16.872  0.00  0.00    +0.000 N 
ATOM     14  C   UNL     1       4.315   3.009  17.470  0.00  0.00    +0.000 C 
ATOM     15  C   UNL     1       2.805   2.804  17.668  0.00  0.00    +0.000 C 
ATOM     16  O   UNL     1       2.204   3.895  18.384  0.00  0.00    +0.000 OA
ATOM     17  C   UNL     1       2.381   5.116  17.650  0.00  0.00    +0.000 C 
ATOM     18  C   UNL     1       3.868   5.450  17.477  0.00  0.00    +0.000 C 
ENDBRANCH   5  13
BRANCH   1  20
ATOM     19  C   UNL     1       4.467   3.558  11.680  0.00  0.00    +0.000 C 
ATOM     20  C   UNL     1       5.705   3.035  12.407  0.00  0.00    +0.000 C 
ATOM     21  C   UNL     1       6.915   2.989  11.476  0.00  0.00    +0.000 C 
ENDBRANCH   1  20
TORSDOF 3
ENDMDL
MODEL 5
REMARK VINA RESULT:      -7.4      2.802      4.867
REMARK  Name = 
REMARK  5 active torsions:
REMARK  status: ('A' for Active; 'I' for Inactive)
REMARK    1  A    between atoms: C_1  and  C_2
REMARK    2  A    between atoms: C_2  and  C_3
REMARK    3  A    between atoms: C_2  and  C_4
REMARK    4  A    between atoms: C_7  and  C_8
REMARK    5  A    between atoms: C_14  and  N_15
REMARK                            x       y       z     vdW  Elec       q    Type
REMARK                         _______ _______ _______ _____ _____    ______ ____
ROOT
ATOM      1  C   UNL     1       5.043   4.984  16.722  0.00  0.00    +0.000 A 
ATOM      2  N   UNL     1       4.983   6.284  16.375  0.00  0.00    +0.000 NA
ATOM      3  N   UNL     1       4.096   7.088  16.997  0.00  0.00    +0.000 NA
ATOM      4  C   UNL     1       3.264   6.576  17.940  0.00  0.00    +0.000 A 
ATOM      5  C   UNL     1       3.301   5.197  18.237  0.00  0.00    +0.000 A 
ATOM      6  N   UNL     1       4.229   4.412  17.637  0.00  0.00    +0.000 NA
ENDROOT
BRANCH   4   7
ATOM      7  C   UNL     1       2.431   7.600  18.607  0.00  0.00    +0.000 A 
ATOM      8  C   UNL     1       1.900   8.682  17.880  0.00  0.00    +0.000 A 
ATOM      9  C   UNL     1       1.047   9.611  18.482  0.00  0.00    +0.000 A 
ATOM     10  C   UNL     1       0.695   9.473  19.822  0.00  0.00    +0.000 A 
ATOM     11  C   UNL     1       1.248   8.442  20.575  0.00  0.00    +0.000 A 
ATOM     12  C   UNL     1       2.138   7.544  19.981  0.00  0.00    +0.000 A 
ENDBRANCH   4   7
BRANCH   5  13
ATOM     13  N   UNL     1       2.428   4.537  19.081  0.00  0.00    +0.000 N 
ATOM     14  C   UNL     1       2.746   4.408  20.507  0.00  0.00    +0.000 C 
ATOM     15  C   UNL     1       2.473   2.976  20.995  0.00  0.00    +0.000 C 
ATOM     16  O   UNL     1       1.146   2.539  20.661  0.00  0.00    +0.000 OA
ATOM     17  C   UNL     1       0.973   2.550  19.235  0.00  0.00    +0.000 C 
ATOM     18  C   UNL     1       1.143   3.963  18.666  0.00  0.00    +0.000 C 
ENDBRANCH   5  13
BRANCH   1  20
ATOM     19  C   UNL     1       6.008   4.263  14.528  0.00  0.00    +0.000 C 
ATOM     20  C   UNL     1       6.102   4.145  16.048  0.00  0.00    +0.000 C 
ATOM     21  C   UNL     1       7.502   4.501  16.546  0.00  0.00    +0.000 C 
ENDBRANCH   1  20
TORSDOF 3
ENDMDL
MODEL 6
REMARK VINA RESULT:      -7.3      2.539      3.808
REMARK  Name = 
REMARK  5 active torsions:
REMARK  status: ('A' for Active; 'I' for Inactive)
REMARK    1  A    between atoms: C_1  and  C_2
REMARK    2  A    between atoms: C_2  and  C_3
REMARK    3  A    between atoms: C_2  and  C_4
REMARK    4  A    between atoms: C_7  and  C_8
REMARK    5  A    between atoms: C_14  and  N_15
REMARK                            x       y       z     vdW  Elec       q    Type
REMARK                         _______ _______ _______ _____ _____    ______ ____
ROOT
ATOM      1  C   UNL     1       5.725   4.851  15.342  0.00  0.00    +0.000 A 
ATOM      2  N   UNL     1       5.556   6.188  15.359  0.00  0.00    +0.000 NA
ATOM      3  N   UNL     1       4.727   6.731  16.275  0.00  0.00    +0.000 NA
ATOM      4  C   UNL     1       4.060   5.930  17.145  0.00  0.00    +0.000 A 
ATOM      5  C   UNL     1       4.203   4.529  17.061  0.00  0.00    +0.000 A 
ATOM      6  N   UNL     1       5.074   4.000  16.167  0.00  0.00    +0.000 NA
ENDROOT
BRANCH   4   7
ATOM      7  C   UNL     1       3.282   6.679  18.154  0.00  0.00    +0.000 A 
ATOM      8  C   UNL     1       2.678   7.909  17.831  0.00  0.00    +0.000 A 
ATOM      9  C   UNL     1       1.873   8.586  18.752  0.00  0.00    +0.000 A 
ATOM     10  C   UNL     1       1.645   8.043  20.014  0.00  0.00    +0.000 A 
ATOM     11  C   UNL     1       2.273   6.855  20.376  0.00  0.00    +0.000 A 
ATOM     12  C   UNL     1       3.114   6.207  19.468  0.00  0.00    +0.000 A 
ENDBRANCH   4   7
BRANCH   5  13
ATOM     13  N   UNL     1       3.489   3.607  17.803  0.00  0.00    +0.000 N 
ATOM     14  C   UNL     1       2.089   3.325  17.467  0.00  0.00    +0.000 C 
ATOM     15  C   UNL     1       1.224   3.287  18.737  0.00  0.00    +0.000 C 
ATOM     16  O   UNL     1       1.767   2.400  19.729  0.00  0.00    +0.000 OA
ATOM     17  C   UNL     1       3.078   2.841  20.112  0.00  0.00    +0.000 C 
ATOM     18  C   UNL     1       4.039   2.829  18.918  0.00  0.00    +0.000 C 
ENDBRANCH   5  13
BRANCH   1  20
ATOM     19  C   UNL     1       6.003   3.599  13.193  0.00  0.00    +0.000 C 
ATOM     20  C   UNL     1       6.718   4.300  14.347  0.00  0.00    +0.000 C 
ATOM     21  C   UNL     1       7.661   5.386  13.834  0.00  0.00    +0.000 C 
ENDBRANCH   1  20
TORSDOF 3
ENDMDL
MODEL 7
REMARK VINA RESULT:      -7.3      0.588      1.640
REMARK  Name = 
REMARK  5 active torsions:
REMARK  status: ('A' for Active; 'I' for Inactive)
REMARK    1  A    between atoms: C_1  and  C_2
REMARK    2  A    between atoms: C_2  and  C_3
REMARK    3  A    between atoms: C_2  and  C_4
REMARK    4  A    between atoms: C_7  and  C_8
REMARK    5  A    between atoms: C_14  and  N_15
REMARK                            x       y       z     vdW  Elec       q    Type
REMARK                         _______ _______ _______ _____ _____    ______ ____
ROOT
ATOM      1  C   UNL     1       5.946   3.783  13.617  0.00  0.00    +0.000 A 
ATOM      2  N   UNL     1       7.040   4.567  13.554  0.00  0.00    +0.000 NA
ATOM      3  N   UNL     1       7.418   5.253  14.652  0.00  0.00    +0.000 NA
ATOM      4  C   UNL     1       6.685   5.163  15.792  0.00  0.00    +0.000 A 
ATOM      5  C   UNL     1       5.507   4.387  15.811  0.00  0.00    +0.000 A 
ATOM      6  N   UNL     1       5.165   3.668  14.714  0.00  0.00    +0.000 NA
ENDROOT
BRANCH   4   7
ATOM      7  C   UNL     1       7.288   5.880  16.936  0.00  0.00    +0.000 A 
ATOM      8  C   UNL     1       7.512   7.268  16.880  0.00  0.00    +0.000 A 
ATOM      9  C   UNL     1       8.007   7.969  17.983  0.00  0.00    +0.000 A 
ATOM     10  C   UNL     1       8.279   7.300  19.173  0.00  0.00    +0.000 A 
ATOM     11  C   UNL     1       8.116   5.919  19.238  0.00  0.00    +0.000 A 
ATOM     12  C   UNL     1       7.666   5.217  18.117  0.00  0.00    +0.000 A 
ENDBRANCH   4   7
BRANCH   5  13
ATOM     13  N   UNL     1       4.615   4.315  16.864  0.00  0.00    +0.000 N 
ATOM     14  C   UNL     1       4.326   3.020  17.491  0.00  0.00    +0.000 C 
ATOM     15  C   UNL     1       2.814   2.851  17.714  0.00  0.00    +0.000 C 
ATOM     16  O   UNL     1       2.247   3.969  18.416  0.00  0.00    +0.000 OA
ATOM     17  C   UNL     1       2.440   5.172  17.656  0.00  0.00    +0.000 C 
ATOM     18  C   UNL     1       3.931   5.469  17.457  0.00  0.00    +0.000 C 
ENDBRANCH   5  13
BRANCH   1  20
ATOM     19  C   UNL     1       4.421   3.594  11.642  0.00  0.00    +0.000 C 
ATOM     20  C   UNL     1       5.608   2.981  12.383  0.00  0.00    +0.000 C 
ATOM     21  C   UNL     1       6.817   2.831  11.461  0.00  0.00    +0.000 C 
ENDBRANCH   1  20
TORSDOF 3
ENDMDL
MODEL 8
REMARK VINA RESULT:      -7.1      2.596      3.792
REMARK  Name = 
REMARK  5 active torsions:
REMARK  status: ('A' for Active; 'I' for Inactive)
REMARK    1  A    between atoms: C_1  and  C_2
REMARK    2  A    between atoms: C_2  and  C_3
REMARK    3  A    between atoms: C_2  and  C_4
REMARK    4  A    between atoms: C_7  and  C_8
REMARK    5  A    between atoms: C_14  and  N_15
REMARK                            x       y       z     vdW  Elec       q    Type
REMARK                         _______ _______ _______ _____ _____    ______ ____
ROOT
ATOM      1  C   UNL     1       5.628   4.848  15.494  0.00  0.00    +0.000 A 
ATOM      2  N   UNL     1       5.417   6.178  15.506  0.00  0.00    +0.000 NA
ATOM      3  N   UNL     1       4.558   6.697  16.408  0.00  0.00    +0.000 NA
ATOM      4  C   UNL     1       3.903   5.877  17.270  0.00  0.00    +0.000 A 
ATOM      5  C   UNL     1       4.092   4.480  17.191  0.00  0.00    +0.000 A 
ATOM      6  N   UNL     1       4.992   3.978  16.311  0.00  0.00    +0.000 NA
ENDROOT
BRANCH   4   7
ATOM      7  C   UNL     1       3.087   6.602  18.266  0.00  0.00    +0.000 A 
ATOM      8  C   UNL     1       2.957   6.118  19.581  0.00  0.00    +0.000 A 
ATOM      9  C   UNL     1       2.255   6.836  20.553  0.00  0.00    +0.000 A 
ATOM     10  C   UNL     1       1.675   8.061  20.235  0.00  0.00    +0.000 A 
ATOM     11  C   UNL     1       1.744   8.536  18.929  0.00  0.00    +0.000 A 
ATOM     12  C   UNL     1       2.406   7.792  17.950  0.00  0.00    +0.000 A 
ENDBRANCH   4   7
BRANCH   5  13
ATOM     13  N   UNL     1       3.396   3.538  17.924  0.00  0.00    +0.000 N 
ATOM     14  C   UNL     1       1.990   3.258  17.609  0.00  0.00    +0.000 C 
ATOM     15  C   UNL     1       1.151   3.185  18.895  0.00  0.00    +0.000 C 
ATOM     16  O   UNL     1       1.717   2.277  19.854  0.00  0.00    +0.000 OA
ATOM     17  C   UNL     1       3.034   2.713  20.221  0.00  0.00    +0.000 C 
ATOM     18  C   UNL     1       3.971   2.735  19.008  0.00  0.00    +0.000 C 
ENDBRANCH   5  13
BRANCH   1  20
ATOM     19  C   UNL     1       5.975   3.678  13.309  0.00  0.00    +0.000 C 
ATOM     20  C   UNL     1       6.652   4.327  14.515  0.00  0.00    +0.000 C 
ATOM     21  C   UNL     1       7.623   5.423  14.080  0.00  0.00    +0.000 C 
ENDBRANCH   1  20
TORSDOF 3
ENDMDL
MODEL 9
REMARK VINA RESULT:      -6.7      2.641      4.567
REMARK  Name = 
REMARK  5 active torsions:
REMARK  status: ('A' for Active; 'I' for Inactive)
REMARK    1  A    between atoms: C_1  and  C_2
REMARK    2  A    between atoms: C_2  and  C_3
REMARK    3  A    between atoms: C_2  and  C_4
REMARK    4  A    between atoms: C_7  and  C_8
REMARK    5  A    between atoms: C_14  and  N_15
REMARK                            x       y       z     vdW  Elec       q    Type
REMARK                         _______ _______ _______ _____ _____    ______ ____
ROOT
ATOM      1  C   UNL     1       5.276   5.562  16.201  0.00  0.00    +0.000 A 
ATOM      2  N   UNL     1       5.000   6.872  16.050  0.00  0.00    +0.000 NA
ATOM      3  N   UNL     1       4.063   7.439  16.839  0.00  0.00    +0.000 NA
ATOM      4  C   UNL     1       3.399   6.684  17.751  0.00  0.00    +0.000 A 
ATOM      5  C   UNL     1       3.660   5.300  17.842  0.00  0.00    +0.000 A 
ATOM      6  N   UNL     1       4.635   4.755  17.075  0.00  0.00    +0.000 NA
ENDROOT
BRANCH   4   7
ATOM      7  C   UNL     1       2.489   7.469  18.612  0.00  0.00    +0.000 A 
ATOM      8  C   UNL     1       2.307   7.130  19.966  0.00  0.00    +0.000 A 
ATOM      9  C   UNL     1       1.513   7.911  20.810  0.00  0.00    +0.000 A 
ATOM     10  C   UNL     1       0.891   9.057  20.322  0.00  0.00    +0.000 A 
ATOM     11  C   UNL     1       1.012   9.385  18.975  0.00  0.00    +0.000 A 
ATOM     12  C   UNL     1       1.768   8.574  18.125  0.00  0.00    +0.000 A 
ENDBRANCH   4   7
BRANCH   5  13
ATOM     13  N   UNL     1       2.967   4.407  18.638  0.00  0.00    +0.000 N 
ATOM     14  C   UNL     1       1.601   4.012  18.277  0.00  0.00    +0.000 C 
ATOM     15  C   UNL     1       0.686   4.036  19.512  0.00  0.00    +0.000 C 
ATOM     16  O   UNL     1       1.235   3.277  20.602  0.00  0.00    +0.000 OA
ATOM     17  C   UNL     1       2.502   3.828  20.991  0.00  0.00    +0.000 C 
ATOM     18  C   UNL     1       3.513   3.767  19.840  0.00  0.00    +0.000 C 
ENDBRANCH   5  13
BRANCH   1  20
ATOM     19  C   UNL     1       7.470   4.359  16.209  0.00  0.00    +0.000 C 
ATOM     20  C   UNL     1       6.382   4.994  15.345  0.00  0.00    +0.000 C 
ATOM     21  C   UNL     1       5.843   4.000  14.317  0.00  0.00    +0.000 C 
ENDBRANCH   1  20
TORSDOF 3
ENDMDL
