MODEL 1
REMARK VINA RESULT:      -7.0      0.000      0.000
REMARK  Name = 
REMARK  11 active torsions:
REMARK  status: ('A' for Active; 'I' for Inactive)
REMARK    1  A    between atoms: C_1  and  C_2
REMARK    2  A    between atoms: C_2  and  C_3
REMARK    3  A    between atoms: C_3  and  C_4
REMARK    4  A    between atoms: C_3  and  N_5
REMARK    5  A    between atoms: N_5  and  S_6
REMARK    6  A    between atoms: S_6  and  C_9
REMARK    7  A    between atoms: C_12  and  N_13
REMARK    8  A    between atoms: C_14  and  C_16
REMARK    9  A    between atoms: C_16  and  N_17
REMARK   10  A    between atoms: N_17  and  C_18
REMARK   11  A    between atoms: C_18  and  C_19
REMARK                            x       y       z     vdW  Elec       q    Type
REMARK                         _______ _______ _______ _____ _____    ______ ____
ROOT
ATOM      1  C   UNL     1       1.437   9.189  19.153  0.00  0.00    +0.000 A 
ATOM      2  C   UNL     1       1.527   8.237  20.167  0.00  0.00    +0.000 A 
ATOM      3  C   UNL     1       2.221   7.047  19.942  0.00  0.00    +0.000 A 
ATOM      4  C   UNL     1       2.831   6.792  18.711  0.00  0.00    +0.000 A 
ATOM      5  C   UNL     1       2.775   7.771  17.713  0.00  0.00    +0.000 A 
ATOM      6  C   UNL     1       2.051   8.953  17.920  0.00  0.00    +0.000 A 
ENDROOT
BRANCH   4   7
ATOM      7  N   UNL     1       3.470   5.571  18.410  0.00  0.00    +0.000 N 
ATOM      8  C   UNL     1       4.814   5.426  18.100  0.00  0.00    +0.000 C 
ATOM      9  O   UNL     1       5.648   6.330  18.043  0.00  0.00    +0.000 OA
ATOM     10  H   UNL     1       2.943   4.727  18.598  0.00  0.00    +0.000 HD
BRANCH   8  11
ATOM     11  C   UNL     1       5.254   3.969  17.936  0.00  0.00    +0.000 C 
BRANCH  11  12
ATOM     12  N   UNL     1       5.246   3.277  19.235  0.00  0.00    +0.000 NA
ATOM     13  H   UNL     1       4.912   3.941  19.939  0.00  0.00    +0.000 HD
BRANCH  12  14
ATOM     14  C   UNL     1       4.349   2.119  19.246  0.00  0.00    +0.000 C 
BRANCH  14  15
ATOM     15  C   UNL     1       3.017   2.506  19.815  0.00  0.00    +0.000 A 
ATOM     16  C   UNL     1       2.718   2.883  21.111  0.00  0.00    +0.000 A 
ATOM     17  C   UNL     1       1.336   3.185  21.284  0.00  0.00    +0.000 A 
ATOM     18  C   UNL     1       0.626   3.028  20.115  0.00  0.00    +0.000 A 
ATOM     19  S   UNL     1       1.621   2.530  18.819  0.00  0.00    +0.000 S 
ENDBRANCH  14  15
ENDBRANCH  12  14
ENDBRANCH  11  12
ENDBRANCH   8  11
ENDBRANCH   4   7
BRANCH   1  20
ATOM     20  S   UNL     1       0.372  10.591  19.392  0.00  0.00    +0.000 S 
ATOM     21  O   UNL     1      -0.990  10.152  19.142  0.00  0.00    +0.000 OA
ATOM     22  O   UNL     1       0.954  11.686  18.657  0.00  0.00    +0.000 OA
BRANCH  20  23
ATOM     23  N   UNL     1       0.389  10.903  21.045  0.00  0.00    +0.000 NA
ATOM     24  H   UNL     1       0.982  10.230  21.530  0.00  0.00    +0.000 HD
BRANCH  23  25
ATOM     25  C   UNL     1      -0.783  11.406  21.787  0.00  0.00    +0.000 C 
ATOM     26  C   UNL     1      -0.537  12.886  22.106  0.00  0.00    +0.000 C 
BRANCH  25  28
ATOM     27  C   UNL     1       0.012   9.498  23.274  0.00  0.00    +0.000 C 
ATOM     28  C   UNL     1      -1.014  10.603  23.072  0.00  0.00    +0.000 C 
ENDBRANCH  25  28
ENDBRANCH  23  25
ENDBRANCH  20  23
ENDBRANCH   1  20
TORSDOF 9
ENDMDL
MODEL 2
REMARK VINA RESULT:      -7.0      1.823      2.548
REMARK  Name = 
REMARK  11 active torsions:
REMARK  status: ('A' for Active; 'I' for Inactive)
REMARK    1  A    between atoms: C_1  and  C_2
REMARK    2  A    between atoms: C_2  and  C_3
REMARK    3  A    between atoms: C_3  and  C_4
REMARK    4  A    between atoms: C_3  and  N_5
REMARK    5  A    between atoms: N_5  and  S_6
REMARK    6  A    between atoms: S_6  and  C_9
REMARK    7  A    between atoms: C_12  and  N_13
REMARK    8  A    between atoms: C_14  and  C_16
REMARK    9  A    between atoms: C_16  and  N_17
REMARK   10  A    between atoms: N_17  and  C_18
REMARK   11  A    between atoms: C_18  and  C_19
REMARK                            x       y       z     vdW  Elec       q    Type
REMARK                         _______ _______ _______ _____ _____    ______ ____
ROOT
ATOM      1  C   UNL     1       1.379   9.023  19.649  0.00  0.00    +0.000 A 
ATOM      2  C   UNL     1       1.642   9.072  18.280  0.00  0.00    +0.000 A 
ATOM      3  C   UNL     1       2.202   7.966  17.640  0.00  0.00    +0.000 A 
ATOM      4  C   UNL     1       2.503   6.801  18.351  0.00  0.00    +0.000 A 
ATOM      5  C   UNL     1       2.195   6.741  19.715  0.00  0.00    +0.000 A 
ATOM      6  C   UNL     1       1.665   7.862  20.370  0.00  0.00    +0.000 A 
ENDROOT
BRANCH   4   7
ATOM      7  N   UNL     1       3.146   5.690  17.766  0.00  0.00    +0.000 N 
ATOM      8  C   UNL     1       4.518   5.487  17.727  0.00  0.00    +0.000 C 
ATOM      9  O   UNL     1       5.376   6.236  18.195  0.00  0.00    +0.000 OA
ATOM     10  H   UNL     1       2.553   4.910  17.506  0.00  0.00    +0.000 HD
BRANCH   8  11
ATOM     11  C   UNL     1       4.923   4.135  17.134  0.00  0.00    +0.000 C 
BRANCH  11  12
ATOM     12  N   UNL     1       4.874   3.084  18.162  0.00  0.00    +0.000 NA
ATOM     13  H   UNL     1       4.808   3.543  19.075  0.00  0.00    +0.000 HD
BRANCH  12  14
ATOM     14  C   UNL     1       3.708   2.210  18.012  0.00  0.00    +0.000 C 
BRANCH  14  15
ATOM     15  C   UNL     1       2.655   2.582  19.013  0.00  0.00    +0.000 A 
ATOM     16  C   UNL     1       1.306   2.794  18.797  0.00  0.00    +0.000 A 
ATOM     17  C   UNL     1       0.610   3.130  19.993  0.00  0.00    +0.000 A 
ATOM     18  C   UNL     1       1.450   3.164  21.084  0.00  0.00    +0.000 A 
ATOM     19  S   UNL     1       3.063   2.784  20.667  0.00  0.00    +0.000 S 
ENDBRANCH  14  15
ENDBRANCH  12  14
ENDBRANCH  11  12
ENDBRANCH   8  11
ENDBRANCH   4   7
BRANCH   1  20
ATOM     20  S   UNL     1       0.870  10.511  20.473  0.00  0.00    +0.000 S 
ATOM     21  O   UNL     1       1.392  11.633  19.710  0.00  0.00    +0.000 OA
ATOM     22  O   UNL     1       1.185  10.343  21.869  0.00  0.00    +0.000 OA
BRANCH  20  23
ATOM     23  N   UNL     1      -0.793  10.618  20.243  0.00  0.00    +0.000 NA
ATOM     24  H   UNL     1      -1.268   9.837  20.697  0.00  0.00    +0.000 HD
BRANCH  23  25
ATOM     25  C   UNL     1      -1.410  11.138  19.008  0.00  0.00    +0.000 C 
ATOM     26  C   UNL     1      -2.399  12.241  19.405  0.00  0.00    +0.000 C 
BRANCH  25  28
ATOM     27  C   UNL     1      -2.111  10.254  16.726  0.00  0.00    +0.000 C 
ATOM     28  C   UNL     1      -2.119  10.025  18.230  0.00  0.00    +0.000 C 
ENDBRANCH  25  28
ENDBRANCH  23  25
ENDBRANCH  20  23
ENDBRANCH   1  20
TORSDOF 9
ENDMDL
MODEL 3
REMARK VINA RESULT:      -7.0      1.937      2.432
REMARK  Name = 
REMARK  11 active torsions:
REMARK  status: ('A' for Active; 'I' for Inactive)
REMARK    1  A    between atoms: C_1  and  C_2
REMARK    2  A    between atoms: C_2  and  C_3
REMARK    3  A    between atoms: C_3  and  C_4
REMARK    4  A    between atoms: C_3  and  N_5
REMARK    5  A    between atoms: N_5  and  S_6
REMARK    6  A    between atoms: S_6  and  C_9
REMARK    7  A    between atoms: C_12  and  N_13
REMARK    8  A    between atoms: C_14  and  C_16
REMARK    9  A    between atoms: C_16  and  N_17
REMARK   10  A    between atoms: N_17  and  C_18
REMARK   11  A    between atoms: C_18  and  C_19
REMARK                            x       y       z     vdW  Elec       q    Type
REMARK                         _______ _______ _______ _____ _____    ______ ____
ROOT
ATOM      1  C   UNL     1       1.503   8.993  19.635  0.00  0.00    +0.000 A 
ATOM      2  C   UNL     1       1.712   7.796  20.318  0.00  0.00    +0.000 A 
ATOM      3  C   UNL     1       2.288   6.710  19.658  0.00  0.00    +0.000 A 
ATOM      4  C   UNL     1       2.663   6.802  18.315  0.00  0.00    +0.000 A 
ATOM      5  C   UNL     1       2.492   8.019  17.646  0.00  0.00    +0.000 A 
ATOM      6  C   UNL     1       1.883   9.103  18.295  0.00  0.00    +0.000 A 
ENDROOT
BRANCH   4   7
ATOM      7  N   UNL     1       3.169   5.708  17.584  0.00  0.00    +0.000 N 
ATOM      8  C   UNL     1       4.439   5.167  17.728  0.00  0.00    +0.000 C 
ATOM      9  O   UNL     1       5.308   5.554  18.509  0.00  0.00    +0.000 OA
ATOM     10  H   UNL     1       2.499   5.179  17.037  0.00  0.00    +0.000 HD
BRANCH   8  11
ATOM     11  C   UNL     1       4.671   3.909  16.888  0.00  0.00    +0.000 C 
BRANCH  11  12
ATOM     12  N   UNL     1       4.582   2.703  17.727  0.00  0.00    +0.000 NA
ATOM     13  H   UNL     1       4.887   2.958  18.671  0.00  0.00    +0.000 HD
BRANCH  12  14
ATOM     14  C   UNL     1       3.214   2.187  17.819  0.00  0.00    +0.000 C 
BRANCH  14  15
ATOM     15  C   UNL     1       2.645   2.479  19.175  0.00  0.00    +0.000 A 
ATOM     16  C   UNL     1       3.323   2.645  20.369  0.00  0.00    +0.000 A 
ATOM     17  C   UNL     1       2.445   2.916  21.459  0.00  0.00    +0.000 A 
ATOM     18  C   UNL     1       1.127   2.948  21.061  0.00  0.00    +0.000 A 
ATOM     19  S   UNL     1       0.953   2.662  19.385  0.00  0.00    +0.000 S 
ENDBRANCH  14  15
ENDBRANCH  12  14
ENDBRANCH  11  12
ENDBRANCH   8  11
ENDBRANCH   4   7
BRANCH   1  20
ATOM     20  S   UNL     1       0.578  10.281  20.434  0.00  0.00    +0.000 S 
ATOM     21  O   UNL     1       1.173  11.549  20.048  0.00  0.00    +0.000 OA
ATOM     22  O   UNL     1       0.450   9.904  21.819  0.00  0.00    +0.000 OA
BRANCH  20  23
ATOM     23  N   UNL     1      -0.924  10.305  19.678  0.00  0.00    +0.000 NA
ATOM     24  H   UNL     1      -1.446   9.454  19.892  0.00  0.00    +0.000 HD
BRANCH  23  25
ATOM     25  C   UNL     1      -1.154  10.902  18.348  0.00  0.00    +0.000 C 
ATOM     26  C   UNL     1      -1.982  12.179  18.544  0.00  0.00    +0.000 C 
BRANCH  25  28
ATOM     27  C   UNL     1      -3.390  10.027  17.502  0.00  0.00    +0.000 C 
ATOM     28  C   UNL     1      -1.876   9.923  17.416  0.00  0.00    +0.000 C 
ENDBRANCH  25  28
ENDBRANCH  23  25
ENDBRANCH  20  23
ENDBRANCH   1  20
TORSDOF 9
ENDMDL
MODEL 4
REMARK VINA RESULT:      -6.9      1.871      2.498
REMARK  Name = 
REMARK  11 active torsions:
REMARK  status: ('A' for Active; 'I' for Inactive)
REMARK    1  A    between atoms: C_1  and  C_2
REMARK    2  A    between atoms: C_2  and  C_3
REMARK    3  A    between atoms: C_3  and  C_4
REMARK    4  A    between atoms: C_3  and  N_5
REMARK    5  A    between atoms: N_5  and  S_6
REMARK    6  A    between atoms: S_6  and  C_9
REMARK    7  A    between atoms: C_12  and  N_13
REMARK    8  A    between atoms: C_14  and  C_16
REMARK    9  A    between atoms: C_16  and  N_17
REMARK   10  A    between atoms: N_17  and  C_18
REMARK   11  A    between atoms: C_18  and  C_19
REMARK                            x       y       z     vdW  Elec       q    Type
REMARK                         _______ _______ _______ _____ _____    ______ ____
ROOT
ATOM      1  C   UNL     1       1.417   8.587  20.168  0.00  0.00    +0.000 A 
ATOM      2  C   UNL     1       1.653   7.339  20.744  0.00  0.00    +0.000 A 
ATOM      3  C   UNL     1       2.212   6.315  19.979  0.00  0.00    +0.000 A 
ATOM      4  C   UNL     1       2.541   6.519  18.636  0.00  0.00    +0.000 A 
ATOM      5  C   UNL     1       2.344   7.786  18.076  0.00  0.00    +0.000 A 
ATOM      6  C   UNL     1       1.751   8.808  18.830  0.00  0.00    +0.000 A 
ENDROOT
BRANCH   4   7
ATOM      7  N   UNL     1       3.028   5.492  17.801  0.00  0.00    +0.000 N 
ATOM      8  C   UNL     1       4.326   5.002  17.809  0.00  0.00    +0.000 C 
ATOM      9  O   UNL     1       5.242   5.383  18.538  0.00  0.00    +0.000 OA
ATOM     10  H   UNL     1       2.336   4.965  17.281  0.00  0.00    +0.000 HD
BRANCH   8  11
ATOM     11  C   UNL     1       4.537   3.805  16.878  0.00  0.00    +0.000 C 
BRANCH  11  12
ATOM     12  N   UNL     1       4.482   2.545  17.636  0.00  0.00    +0.000 NA
ATOM     13  H   UNL     1       4.852   2.729  18.573  0.00  0.00    +0.000 HD
BRANCH  12  14
ATOM     14  C   UNL     1       3.115   2.040  17.783  0.00  0.00    +0.000 C 
BRANCH  14  15
ATOM     15  C   UNL     1       2.587   2.374  19.146  0.00  0.00    +0.000 A 
ATOM     16  C   UNL     1       1.277   2.607  19.522  0.00  0.00    +0.000 A 
ATOM     17  C   UNL     1       1.153   2.894  20.912  0.00  0.00    +0.000 A 
ATOM     18  C   UNL     1       2.373   2.872  21.551  0.00  0.00    +0.000 A 
ATOM     19  S   UNL     1       3.653   2.499  20.483  0.00  0.00    +0.000 S 
ENDBRANCH  14  15
ENDBRANCH  12  14
ENDBRANCH  11  12
ENDBRANCH   8  11
ENDBRANCH   4   7
BRANCH   1  20
ATOM     20  S   UNL     1       0.513   9.798  21.100  0.00  0.00    +0.000 S 
ATOM     21  O   UNL     1       1.456  10.461  21.985  0.00  0.00    +0.000 OA
ATOM     22  O   UNL     1      -0.660   9.138  21.615  0.00  0.00    +0.000 OA
BRANCH  20  23
ATOM     23  N   UNL     1       0.090  11.000  20.002  0.00  0.00    +0.000 NA
ATOM     24  H   UNL     1       0.678  11.825  20.131  0.00  0.00    +0.000 HD
BRANCH  23  25
ATOM     25  C   UNL     1      -1.295  11.241  19.556  0.00  0.00    +0.000 C 
ATOM     26  C   UNL     1      -1.556  10.350  18.334  0.00  0.00    +0.000 C 
BRANCH  25  28
ATOM     27  C   UNL     1      -0.435  13.290  18.315  0.00  0.00    +0.000 C 
ATOM     28  C   UNL     1      -1.521  12.717  19.212  0.00  0.00    +0.000 C 
ENDBRANCH  25  28
ENDBRANCH  23  25
ENDBRANCH  20  23
ENDBRANCH   1  20
TORSDOF 9
ENDMDL
MODEL 5
REMARK VINA RESULT:      -6.9      1.942      2.483
REMARK  Name = 
REMARK  11 active torsions:
REMARK  status: ('A' for Active; 'I' for Inactive)
REMARK    1  A    between atoms: C_1  and  C_2
REMARK    2  A    between atoms: C_2  and  C_3
REMARK    3  A    between atoms: C_3  and  C_4
REMARK    4  A    between atoms: C_3  and  N_5
REMARK    5  A    between atoms: N_5  and  S_6
REMARK    6  A    between atoms: S_6  and  C_9
REMARK    7  A    between atoms: C_12  and  N_13
REMARK    8  A    between atoms: C_14  and  C_16
REMARK    9  A    between atoms: C_16  and  N_17
REMARK   10  A    between atoms: N_17  and  C_18
REMARK   11  A    between atoms: C_18  and  C_19
REMARK                            x       y       z     vdW  Elec       q    Type
REMARK                         _______ _______ _______ _____ _____    ______ ____
ROOT
ATOM      1  C   UNL     1       1.365   9.272  20.026  0.00  0.00    +0.000 A 
ATOM      2  C   UNL     1       1.629   8.101  20.736  0.00  0.00    +0.000 A 
ATOM      3  C   UNL     1       2.046   6.955  20.056  0.00  0.00    +0.000 A 
ATOM      4  C   UNL     1       2.204   6.962  18.667  0.00  0.00    +0.000 A 
ATOM      5  C   UNL     1       1.982   8.152  17.966  0.00  0.00    +0.000 A 
ATOM      6  C   UNL     1       1.530   9.296  18.639  0.00  0.00    +0.000 A 
ENDROOT
BRANCH   4   7
ATOM      7  N   UNL     1       2.541   5.809  17.928  0.00  0.00    +0.000 N 
ATOM      8  C   UNL     1       3.832   5.386  17.648  0.00  0.00    +0.000 C 
ATOM      9  O   UNL     1       4.871   5.945  17.998  0.00  0.00    +0.000 OA
ATOM     10  H   UNL     1       1.787   5.159  17.736  0.00  0.00    +0.000 HD
BRANCH   8  11
ATOM     11  C   UNL     1       3.895   4.035  16.930  0.00  0.00    +0.000 C 
BRANCH  11  12
ATOM     12  N   UNL     1       2.584   3.370  16.964  0.00  0.00    +0.000 NA
ATOM     13  H   UNL     1       2.325   3.142  16.000  0.00  0.00    +0.000 HD
BRANCH  12  14
ATOM     14  C   UNL     1       2.611   2.121  17.730  0.00  0.00    +0.000 C 
BRANCH  14  15
ATOM     15  C   UNL     1       2.337   2.399  19.178  0.00  0.00    +0.000 A 
ATOM     16  C   UNL     1       1.120   2.648  19.785  0.00  0.00    +0.000 A 
ATOM     17  C   UNL     1       1.247   2.867  21.187  0.00  0.00    +0.000 A 
ATOM     18  C   UNL     1       2.557   2.779  21.604  0.00  0.00    +0.000 A 
ATOM     19  S   UNL     1       3.620   2.426  20.314  0.00  0.00    +0.000 S 
ENDBRANCH  14  15
ENDBRANCH  12  14
ENDBRANCH  11  12
ENDBRANCH   8  11
ENDBRANCH   4   7
BRANCH   1  20
ATOM     20  S   UNL     1       0.635  10.643  20.886  0.00  0.00    +0.000 S 
ATOM     21  O   UNL     1       1.208  11.859  20.336  0.00  0.00    +0.000 OA
ATOM     22  O   UNL     1       0.720  10.345  22.294  0.00  0.00    +0.000 OA
BRANCH  20  23
ATOM     23  N   UNL     1      -0.969  10.700  20.383  0.00  0.00    +0.000 NA
ATOM     24  H   UNL     1      -1.433   9.810  20.566  0.00  0.00    +0.000 HD
BRANCH  23  25
ATOM     25  C   UNL     1      -1.420  11.446  19.193  0.00  0.00    +0.000 C 
ATOM     26  C   UNL     1      -2.080  12.744  19.674  0.00  0.00    +0.000 C 
BRANCH  25  28
ATOM     27  C   UNL     1      -1.747   9.996  17.126  0.00  0.00    +0.000 C 
ATOM     28  C   UNL     1      -2.397  10.617  18.353  0.00  0.00    +0.000 C 
ENDBRANCH  25  28
ENDBRANCH  23  25
ENDBRANCH  20  23
ENDBRANCH   1  20
TORSDOF 9
ENDMDL
MODEL 6
REMARK VINA RESULT:      -6.8      1.936      2.504
REMARK  Name = 
REMARK  11 active torsions:
REMARK  status: ('A' for Active; 'I' for Inactive)
REMARK    1  A    between atoms: C_1  and  C_2
REMARK    2  A    between atoms: C_2  and  C_3
REMARK    3  A    between atoms: C_3  and  C_4
REMARK    4  A    between atoms: C_3  and  N_5
REMARK    5  A    between atoms: N_5  and  S_6
REMARK    6  A    between atoms: S_6  and  C_9
REMARK    7  A    between atoms: C_12  and  N_13
REMARK    8  A    between atoms: C_14  and  C_16
REMARK    9  A    between atoms: C_16  and  N_17
REMARK   10  A    between atoms: N_17  and  C_18
REMARK   11  A    between atoms: C_18  and  C_19
REMARK                            x       y       z     vdW  Elec       q    Type
REMARK                         _______ _______ _______ _____ _____    ______ ____
ROOT
ATOM      1  C   UNL     1       1.497   8.966  19.852  0.00  0.00    +0.000 A 
ATOM      2  C   UNL     1       1.766   7.777  20.528  0.00  0.00    +0.000 A 
ATOM      3  C   UNL     1       2.298   6.688  19.835  0.00  0.00    +0.000 A 
ATOM      4  C   UNL     1       2.568   6.771  18.466  0.00  0.00    +0.000 A 
ATOM      5  C   UNL     1       2.339   7.981  17.803  0.00  0.00    +0.000 A 
ATOM      6  C   UNL     1       1.773   9.067  18.486  0.00  0.00    +0.000 A 
ENDROOT
BRANCH   4   7
ATOM      7  N   UNL     1       3.026   5.674  17.708  0.00  0.00    +0.000 N 
ATOM      8  C   UNL     1       4.308   5.146  17.756  0.00  0.00    +0.000 C 
ATOM      9  O   UNL     1       5.233   5.548  18.462  0.00  0.00    +0.000 OA
ATOM     10  H   UNL     1       2.319   5.134  17.222  0.00  0.00    +0.000 HD
BRANCH   8  11
ATOM     11  C   UNL     1       4.485   3.881  16.912  0.00  0.00    +0.000 C 
BRANCH  11  12
ATOM     12  N   UNL     1       4.516   2.686  17.771  0.00  0.00    +0.000 NA
ATOM     13  H   UNL     1       4.796   2.985  18.710  0.00  0.00    +0.000 HD
BRANCH  12  14
ATOM     14  C   UNL     1       3.205   2.040  17.876  0.00  0.00    +0.000 C 
BRANCH  14  15
ATOM     15  C   UNL     1       2.491   2.522  19.104  0.00  0.00    +0.000 A 
ATOM     16  C   UNL     1       1.165   2.889  19.232  0.00  0.00    +0.000 A 
ATOM     17  C   UNL     1       0.839   3.294  20.559  0.00  0.00    +0.000 A 
ATOM     18  C   UNL     1       1.927   3.223  21.400  0.00  0.00    +0.000 A 
ATOM     19  S   UNL     1       3.327   2.663  20.595  0.00  0.00    +0.000 S 
ENDBRANCH  14  15
ENDBRANCH  12  14
ENDBRANCH  11  12
ENDBRANCH   8  11
ENDBRANCH   4   7
BRANCH   1  20
ATOM     20  S   UNL     1       0.626  10.255  20.708  0.00  0.00    +0.000 S 
ATOM     21  O   UNL     1       1.064  10.232  22.094  0.00  0.00    +0.000 OA
ATOM     22  O   UNL     1      -0.766  10.119  20.360  0.00  0.00    +0.000 OA
BRANCH  20  23
ATOM     23  N   UNL     1       1.252  11.701  20.121  0.00  0.00    +0.000 NA
ATOM     24  H   UNL     1       1.190  12.432  20.831  0.00  0.00    +0.000 HD
BRANCH  23  25
ATOM     25  C   UNL     1       1.118  12.133  18.717  0.00  0.00    +0.000 C 
ATOM     26  C   UNL     1       2.440  12.787  18.298  0.00  0.00    +0.000 C 
BRANCH  25  28
ATOM     27  C   UNL     1      -1.314  12.435  18.028  0.00  0.00    +0.000 C 
ATOM     28  C   UNL     1      -0.052  13.108  18.543  0.00  0.00    +0.000 C 
ENDBRANCH  25  28
ENDBRANCH  23  25
ENDBRANCH  20  23
ENDBRANCH   1  20
TORSDOF 9
ENDMDL
MODEL 7
REMARK VINA RESULT:      -6.7      3.075      4.315
REMARK  Name = 
REMARK  11 active torsions:
REMARK  status: ('A' for Active; 'I' for Inactive)
REMARK    1  A    between atoms: C_1  and  C_2
REMARK    2  A    between atoms: C_2  and  C_3
REMARK    3  A    between atoms: C_3  and  C_4
REMARK    4  A    between atoms: C_3  and  N_5
REMARK    5  A    between atoms: N_5  and  S_6
REMARK    6  A    between atoms: S_6  and  C_9
REMARK    7  A    between atoms: C_12  and  N_13
REMARK    8  A    between atoms: C_14  and  C_16
REMARK    9  A    between atoms: C_16  and  N_17
REMARK   10  A    between atoms: N_17  and  C_18
REMARK   11  A    between atoms: C_18  and  C_19
REMARK                            x       y       z     vdW  Elec       q    Type
REMARK                         _______ _______ _______ _____ _____    ______ ____
ROOT
ATOM      1  C   UNL     1       1.217   9.332  19.262  0.00  0.00    +0.000 A 
ATOM      2  C   UNL     1       1.501   8.313  20.170  0.00  0.00    +0.000 A 
ATOM      3  C   UNL     1       2.283   7.227  19.774  0.00  0.00    +0.000 A 
ATOM      4  C   UNL     1       2.790   7.143  18.474  0.00  0.00    +0.000 A 
ATOM      5  C   UNL     1       2.539   8.191  17.581  0.00  0.00    +0.000 A 
ATOM      6  C   UNL     1       1.726   9.267  17.963  0.00  0.00    +0.000 A 
ENDROOT
BRANCH   4   7
ATOM      7  N   UNL     1       3.512   6.027  18.003  0.00  0.00    +0.000 N 
ATOM      8  C   UNL     1       2.966   4.788  17.702  0.00  0.00    +0.000 C 
ATOM      9  O   UNL     1       1.778   4.476  17.797  0.00  0.00    +0.000 OA
ATOM     10  H   UNL     1       4.467   6.198  17.707  0.00  0.00    +0.000 HD
BRANCH   8  11
ATOM     11  C   UNL     1       3.969   3.803  17.098  0.00  0.00    +0.000 C 
BRANCH  11  12
ATOM     12  N   UNL     1       4.775   4.460  16.057  0.00  0.00    +0.000 NA
ATOM     13  H   UNL     1       4.683   5.472  16.183  0.00  0.00    +0.000 HD
BRANCH  12  14
ATOM     14  C   UNL     1       6.198   4.122  16.156  0.00  0.00    +0.000 C 
BRANCH  14  15
ATOM     15  C   UNL     1       6.871   5.021  17.149  0.00  0.00    +0.000 A 
ATOM     16  C   UNL     1       7.456   4.677  18.354  0.00  0.00    +0.000 A 
ATOM     17  C   UNL     1       8.004   5.804  19.033  0.00  0.00    +0.000 A 
ATOM     18  C   UNL     1       7.819   6.970  18.324  0.00  0.00    +0.000 A 
ATOM     19  S   UNL     1       7.000   6.704  16.849  0.00  0.00    +0.000 S 
ENDBRANCH  14  15
ENDBRANCH  12  14
ENDBRANCH  11  12
ENDBRANCH   8  11
ENDBRANCH   4   7
BRANCH   1  20
ATOM     20  S   UNL     1       0.050  10.587  19.727  0.00  0.00    +0.000 S 
ATOM     21  O   UNL     1       0.408  11.802  19.016  0.00  0.00    +0.000 OA
ATOM     22  O   UNL     1      -0.040  10.560  21.166  0.00  0.00    +0.000 OA
BRANCH  20  23
ATOM     23  N   UNL     1      -1.412  10.137  19.028  0.00  0.00    +0.000 NA
ATOM     24  H   UNL     1      -1.507   9.120  19.019  0.00  0.00    +0.000 HD
BRANCH  23  25
ATOM     25  C   UNL     1      -2.034  10.866  17.906  0.00  0.00    +0.000 C 
ATOM     26  C   UNL     1      -3.242  11.633  18.458  0.00  0.00    +0.000 C 
BRANCH  25  28
ATOM     27  C   UNL     1      -2.724  10.618  15.469  0.00  0.00    +0.000 C 
ATOM     28  C   UNL     1      -2.460   9.909  16.788  0.00  0.00    +0.000 C 
ENDBRANCH  25  28
ENDBRANCH  23  25
ENDBRANCH  20  23
ENDBRANCH   1  20
TORSDOF 9
ENDMDL
MODEL 8
REMARK VINA RESULT:      -6.6      1.918      2.481
REMARK  Name = 
REMARK  11 active torsions:
REMARK  status: ('A' for Active; 'I' for Inactive)
REMARK    1  A    between atoms: C_1  and  C_2
REMARK    2  A    between atoms: C_2  and  C_3
REMARK    3  A    between atoms: C_3  and  C_4
REMARK    4  A    between atoms: C_3  and  N_5
REMARK    5  A    between atoms: N_5  and  S_6
REMARK    6  A    between atoms: S_6  and  C_9
REMARK    7  A    between atoms: C_12  and  N_13
REMARK    8  A    between atoms: C_14  and  C_16
REMARK    9  A    between atoms: C_16  and  N_17
REMARK   10  A    between atoms: N_17  and  C_18
REMARK   11  A    between atoms: C_18  and  C_19
REMARK                            x       y       z     vdW  Elec       q    Type
REMARK                         _______ _______ _______ _____ _____    ______ ____
ROOT
ATOM      1  C   UNL     1       1.467   9.105  19.321  0.00  0.00    +0.000 A 
ATOM      2  C   UNL     1       1.601   8.068  20.244  0.00  0.00    +0.000 A 
ATOM      3  C   UNL     1       2.317   6.920  19.900  0.00  0.00    +0.000 A 
ATOM      4  C   UNL     1       2.907   6.792  18.639  0.00  0.00    +0.000 A 
ATOM      5  C   UNL     1       2.808   7.854  17.734  0.00  0.00    +0.000 A 
ATOM      6  C   UNL     1       2.061   8.995  18.061  0.00  0.00    +0.000 A 
ENDROOT
BRANCH   4   7
ATOM      7  N   UNL     1       3.567   5.619  18.218  0.00  0.00    +0.000 N 
ATOM      8  C   UNL     1       4.825   5.213  18.638  0.00  0.00    +0.000 C 
ATOM      9  O   UNL     1       5.550   5.807  19.436  0.00  0.00    +0.000 OA
ATOM     10  H   UNL     1       3.010   4.947  17.703  0.00  0.00    +0.000 HD
BRANCH   8  11
ATOM     11  C   UNL     1       5.237   3.838  18.107  0.00  0.00    +0.000 C 
BRANCH  11  12
ATOM     12  N   UNL     1       5.097   2.815  19.155  0.00  0.00    +0.000 NA
ATOM     13  H   UNL     1       4.958   3.300  20.046  0.00  0.00    +0.000 HD
BRANCH  12  14
ATOM     14  C   UNL     1       3.941   1.942  18.932  0.00  0.00    +0.000 C 
BRANCH  14  15
ATOM     15  C   UNL     1       2.728   2.515  19.601  0.00  0.00    +0.000 A 
ATOM     16  C   UNL     1       2.633   3.085  20.858  0.00  0.00    +0.000 A 
ATOM     17  C   UNL     1       1.312   3.525  21.157  0.00  0.00    +0.000 A 
ATOM     18  C   UNL     1       0.441   3.277  20.119  0.00  0.00    +0.000 A 
ATOM     19  S   UNL     1       1.216   2.527  18.794  0.00  0.00    +0.000 S 
ENDBRANCH  14  15
ENDBRANCH  12  14
ENDBRANCH  11  12
ENDBRANCH   8  11
ENDBRANCH   4   7
BRANCH   1  20
ATOM     20  S   UNL     1       0.376  10.453  19.705  0.00  0.00    +0.000 S 
ATOM     21  O   UNL     1       0.857  11.067  20.931  0.00  0.00    +0.000 OA
ATOM     22  O   UNL     1      -0.968   9.943  19.600  0.00  0.00    +0.000 OA
BRANCH  20  23
ATOM     23  N   UNL     1       0.666  11.626  18.536  0.00  0.00    +0.000 NA
ATOM     24  H   UNL     1       1.016  11.198  17.679  0.00  0.00    +0.000 HD
BRANCH  23  25
ATOM     25  C   UNL     1       1.165  12.979  18.850  0.00  0.00    +0.000 C 
ATOM     26  C   UNL     1       0.016  13.968  18.621  0.00  0.00    +0.000 C 
BRANCH  25  28
ATOM     27  C   UNL     1       3.385  14.216  18.708  0.00  0.00    +0.000 C 
ATOM     28  C   UNL     1       2.375  13.340  17.983  0.00  0.00    +0.000 C 
ENDBRANCH  25  28
ENDBRANCH  23  25
ENDBRANCH  20  23
ENDBRANCH   1  20
TORSDOF 9
ENDMDL
MODEL 9
REMARK VINA RESULT:      -6.6      1.963      3.135
REMARK  Name = 
REMARK  11 active torsions:
REMARK  status: ('A' for Active; 'I' for Inactive)
REMARK    1  A    between atoms: C_1  and  C_2
REMARK    2  A    between atoms: C_2  and  C_3
REMARK    3  A    between atoms: C_3  and  C_4
REMARK    4  A    between atoms: C_3  and  N_5
REMARK    5  A    between atoms: N_5  and  S_6
REMARK    6  A    between atoms: S_6  and  C_9
REMARK    7  A    between atoms: C_12  and  N_13
REMARK    8  A    between atoms: C_14  and  C_16
REMARK    9  A    between atoms: C_16  and  N_17
REMARK   10  A    between atoms: N_17  and  C_18
REMARK   11  A    between atoms: C_18  and  C_19
REMARK                            x       y       z     vdW  Elec       q    Type
REMARK                         _______ _______ _______ _____ _____    ______ ____
ROOT
ATOM      1  C   UNL     1       1.184   9.489  19.470  0.00  0.00    +0.000 A 
ATOM      2  C   UNL     1       1.917   8.692  18.591  0.00  0.00    +0.000 A 
ATOM      3  C   UNL     1       2.329   7.419  18.987  0.00  0.00    +0.000 A 
ATOM      4  C   UNL     1       2.017   6.925  20.257  0.00  0.00    +0.000 A 
ATOM      5  C   UNL     1       1.243   7.711  21.117  0.00  0.00    +0.000 A 
ATOM      6  C   UNL     1       0.855   9.004  20.738  0.00  0.00    +0.000 A 
ENDROOT
BRANCH   4   7
ATOM      7  N   UNL     1       2.483   5.681  20.731  0.00  0.00    +0.000 N 
ATOM      8  C   UNL     1       1.765   4.494  20.704  0.00  0.00    +0.000 C 
ATOM      9  O   UNL     1       0.624   4.345  20.265  0.00  0.00    +0.000 OA
ATOM     10  H   UNL     1       3.470   5.622  20.950  0.00  0.00    +0.000 HD
BRANCH   8  11
ATOM     11  C   UNL     1       2.567   3.279  21.176  0.00  0.00    +0.000 C 
BRANCH  11  12
ATOM     12  N   UNL     1       2.993   2.463  20.028  0.00  0.00    +0.000 NA
ATOM     13  H   UNL     1       2.465   2.778  19.209  0.00  0.00    +0.000 HD
BRANCH  12  14
ATOM     14  C   UNL     1       4.420   2.618  19.731  0.00  0.00    +0.000 C 
BRANCH  14  15
ATOM     15  C   UNL     1       4.620   3.724  18.737  0.00  0.00    +0.000 A 
ATOM     16  C   UNL     1       4.007   3.891  17.510  0.00  0.00    +0.000 A 
ATOM     17  C   UNL     1       4.447   5.068  16.838  0.00  0.00    +0.000 A 
ATOM     18  C   UNL     1       5.382   5.760  17.575  0.00  0.00    +0.000 A 
ATOM     19  S   UNL     1       5.718   4.999  19.068  0.00  0.00    +0.000 S 
ENDBRANCH  14  15
ENDBRANCH  12  14
ENDBRANCH  11  12
ENDBRANCH   8  11
ENDBRANCH   4   7
BRANCH   1  20
ATOM     20  S   UNL     1       0.859  11.176  19.022  0.00  0.00    +0.000 S 
ATOM     21  O   UNL     1      -0.458  11.220  18.410  0.00  0.00    +0.000 OA
ATOM     22  O   UNL     1       2.026  11.653  18.323  0.00  0.00    +0.000 OA
BRANCH  20  23
ATOM     23  N   UNL     1       0.648  12.004  20.470  0.00  0.00    +0.000 NA
ATOM     24  H   UNL     1       1.285  11.646  21.183  0.00  0.00    +0.000 HD
BRANCH  23  25
ATOM     25  C   UNL     1      -0.661  12.494  20.942  0.00  0.00    +0.000 C 
ATOM     26  C   UNL     1      -0.830  13.935  20.444  0.00  0.00    +0.000 C 
BRANCH  25  28
ATOM     27  C   UNL     1      -1.232  11.077  22.978  0.00  0.00    +0.000 C 
ATOM     28  C   UNL     1      -0.761  12.431  22.470  0.00  0.00    +0.000 C 
ENDBRANCH  25  28
ENDBRANCH  23  25
ENDBRANCH  20  23
ENDBRANCH   1  20
TORSDOF 9
ENDMDL
