MODEL 1
REMARK VINA RESULT:      -8.8      0.000      0.000
REMARK  Name = 
REMARK  4 active torsions:
REMARK  status: ('A' for Active; 'I' for Inactive)
REMARK    1  A    between atoms: N_12  and  C_13
REMARK    2  A    between atoms: C_16  and  N_17
REMARK    3  A    between atoms: C_20  and  O_21
REMARK    4  A    between atoms: N_28  and  C_29
REMARK                            x       y       z     vdW  Elec       q    Type
REMARK                         _______ _______ _______ _____ _____    ______ ____
ROOT
ATOM      1  O   UNL     1       5.431   3.246  18.835  0.00  0.00    +0.000 OA
ATOM      2  C   UNL     1       4.497   3.884  19.318  0.00  0.00    +0.000 A 
ATOM      3  C   UNL     1       3.689   3.373  20.379  0.00  0.00    +0.000 A 
ATOM      4  N   UNL     1       3.766   2.221  21.009  0.00  0.00    +0.000 NA
ATOM      5  N   UNL     1       2.768   2.260  21.965  0.00  0.00    +0.000 NA
ATOM      6  N   UNL     1       2.103   3.408  21.915  0.00  0.00    +0.000 NA
ATOM      7  N   UNL     1       2.685   4.099  20.924  0.00  0.00    +0.000 N 
ATOM      8  C   UNL     1       2.357   5.364  20.507  0.00  0.00    +0.000 A 
ATOM      9  C   UNL     1       1.365   6.087  21.089  0.00  0.00    +0.000 A 
ATOM     10  N   UNL     1       1.079   7.319  20.671  0.00  0.00    +0.000 NA
ATOM     11  C   UNL     1       1.780   7.840  19.649  0.00  0.00    +0.000 A 
ATOM     12  N   UNL     1       1.448   9.107  19.187  0.00  0.00    +0.000 N 
ATOM     13  N   UNL     1       2.775   7.171  19.034  0.00  0.00    +0.000 NA
ATOM     14  C   UNL     1       3.078   5.928  19.466  0.00  0.00    +0.000 A 
ATOM     15  N   UNL     1       4.150   5.185  18.865  0.00  0.00    +0.000 N 
ATOM     16  H   UNL     1       1.840   9.294  18.277  0.00  0.00    +0.000 HD
ENDROOT
BRANCH  12  17
ATOM     17  C   UNL     1       0.537  10.037  19.708  0.00  0.00    +0.000 A 
ATOM     18  C   UNL     1      -0.627  10.418  19.035  0.00  0.00    +0.000 A 
ATOM     19  C   UNL     1      -1.522  11.349  19.571  0.00  0.00    +0.000 A 
ATOM     20  C   UNL     1      -1.291  11.953  20.805  0.00  0.00    +0.000 A 
ATOM     21  C   UNL     1      -0.103  11.597  21.460  0.00  0.00    +0.000 A 
ATOM     22  C   UNL     1       0.793  10.655  20.932  0.00  0.00    +0.000 A 
BRANCH  20  23
ATOM     23  N   UNL     1      -2.200  12.830  21.366  0.00  0.00    +0.000 N 
ATOM     24  C   UNL     1      -3.370  13.288  20.619  0.00  0.00    +0.000 C 
ATOM     25  C   UNL     1      -4.635  12.814  21.322  0.00  0.00    +0.000 C 
ATOM     26  C   UNL     1      -4.642  13.207  22.799  0.00  0.00    +0.000 C 
ATOM     27  C   UNL     1      -3.356  12.799  23.516  0.00  0.00    +0.000 C 
ATOM     28  C   UNL     1      -2.106  13.252  22.763  0.00  0.00    +0.000 C 
BRANCH  26  29
ATOM     29  O   UNL     1      -4.874  14.609  22.944  0.00  0.00    +0.000 OA
ATOM     30  H   UNL     1      -5.831  14.775  22.915  0.00  0.00    +0.000 HD
ENDBRANCH  26  29
ENDBRANCH  20  23
ENDBRANCH  12  17
BRANCH  15  31
ATOM     31  C   UNL     1       5.006   5.788  17.843  0.00  0.00    +0.000 C 
ATOM     32  C   UNL     1       6.485   5.964  18.185  0.00  0.00    +0.000 C 
ATOM     33  C   UNL     1       7.112   6.291  16.833  0.00  0.00    +0.000 C 
ATOM     34  C   UNL     1       6.244   5.602  15.776  0.00  0.00    +0.000 C 
ATOM     35  C   UNL     1       5.007   5.071  16.495  0.00  0.00    +0.000 C 
ENDBRANCH  15  31
TORSDOF 4
ENDMDL
MODEL 2
REMARK VINA RESULT:      -8.6      2.419      4.332
REMARK  Name = 
REMARK  4 active torsions:
REMARK  status: ('A' for Active; 'I' for Inactive)
REMARK    1  A    between atoms: N_12  and  C_13
REMARK    2  A    between atoms: C_16  and  N_17
REMARK    3  A    between atoms: C_20  and  O_21
REMARK    4  A    between atoms: N_28  and  C_29
REMARK                            x       y       z     vdW  Elec       q    Type
REMARK                         _______ _______ _______ _____ _____    ______ ____
ROOT
ATOM      1  O   UNL     1       4.593   2.661  17.610  0.00  0.00    +0.000 OA
ATOM      2  C   UNL     1       4.371   3.869  17.564  0.00  0.00    +0.000 A 
ATOM      3  C   UNL     1       4.984   4.724  16.597  0.00  0.00    +0.000 A 
ATOM      4  N   UNL     1       5.835   4.428  15.639  0.00  0.00    +0.000 NA
ATOM      5  N   UNL     1       6.075   5.620  14.982  0.00  0.00    +0.000 NA
ATOM      6  N   UNL     1       5.385   6.615  15.529  0.00  0.00    +0.000 NA
ATOM      7  N   UNL     1       4.705   6.047  16.536  0.00  0.00    +0.000 N 
ATOM      8  C   UNL     1       3.829   6.673  17.386  0.00  0.00    +0.000 A 
ATOM      9  C   UNL     1       3.541   7.997  17.287  0.00  0.00    +0.000 A 
ATOM     10  N   UNL     1       2.675   8.574  18.118  0.00  0.00    +0.000 NA
ATOM     11  C   UNL     1       2.093   7.828  19.075  0.00  0.00    +0.000 A 
ATOM     12  N   UNL     1       1.227   8.445  19.969  0.00  0.00    +0.000 N 
ATOM     13  N   UNL     1       2.341   6.512  19.221  0.00  0.00    +0.000 NA
ATOM     14  C   UNL     1       3.205   5.920  18.369  0.00  0.00    +0.000 A 
ATOM     15  N   UNL     1       3.479   4.514  18.463  0.00  0.00    +0.000 N 
ATOM     16  H   UNL     1       1.056   7.876  20.784  0.00  0.00    +0.000 HD
ENDROOT
BRANCH  12  17
ATOM     17  C   UNL     1       0.732   9.756  19.972  0.00  0.00    +0.000 A 
ATOM     18  C   UNL     1       1.097  10.702  20.935  0.00  0.00    +0.000 A 
ATOM     19  C   UNL     1       0.590  12.005  20.923  0.00  0.00    +0.000 A 
ATOM     20  C   UNL     1      -0.315  12.425  19.950  0.00  0.00    +0.000 A 
ATOM     21  C   UNL     1      -0.708  11.463  19.008  0.00  0.00    +0.000 A 
ATOM     22  C   UNL     1      -0.194  10.157  19.010  0.00  0.00    +0.000 A 
BRANCH  20  23
ATOM     23  N   UNL     1      -0.774  13.728  19.899  0.00  0.00    +0.000 N 
ATOM     24  C   UNL     1      -1.799  14.207  20.824  0.00  0.00    +0.000 C 
ATOM     25  C   UNL     1      -1.216  15.313  21.695  0.00  0.00    +0.000 C 
ATOM     26  C   UNL     1      -0.568  16.412  20.854  0.00  0.00    +0.000 C 
ATOM     27  C   UNL     1       0.421  15.855  19.830  0.00  0.00    +0.000 C 
ATOM     28  C   UNL     1      -0.181  14.720  19.003  0.00  0.00    +0.000 C 
BRANCH  26  29
ATOM     29  O   UNL     1      -1.566  17.203  20.208  0.00  0.00    +0.000 OA
ATOM     30  H   UNL     1      -1.213  17.531  19.364  0.00  0.00    +0.000 HD
ENDBRANCH  26  29
ENDBRANCH  20  23
ENDBRANCH  12  17
BRANCH  15  31
ATOM     31  C   UNL     1       2.756   3.666  19.411  0.00  0.00    +0.000 C 
ATOM     32  C   UNL     1       2.720   4.119  20.869  0.00  0.00    +0.000 C 
ATOM     33  C   UNL     1       1.648   3.222  21.480  0.00  0.00    +0.000 C 
ATOM     34  C   UNL     1       0.671   2.885  20.350  0.00  0.00    +0.000 C 
ATOM     35  C   UNL     1       1.295   3.400  19.055  0.00  0.00    +0.000 C 
ENDBRANCH  15  31
TORSDOF 4
ENDMDL
MODEL 3
REMARK VINA RESULT:      -8.6      1.867      3.857
REMARK  Name = 
REMARK  4 active torsions:
REMARK  status: ('A' for Active; 'I' for Inactive)
REMARK    1  A    between atoms: N_12  and  C_13
REMARK    2  A    between atoms: C_16  and  N_17
REMARK    3  A    between atoms: C_20  and  O_21
REMARK    4  A    between atoms: N_28  and  C_29
REMARK                            x       y       z     vdW  Elec       q    Type
REMARK                         _______ _______ _______ _____ _____    ______ ____
ROOT
ATOM      1  O   UNL     1       4.587   3.067  17.485  0.00  0.00    +0.000 OA
ATOM      2  C   UNL     1       4.211   4.223  17.670  0.00  0.00    +0.000 A 
ATOM      3  C   UNL     1       4.579   5.296  16.801  0.00  0.00    +0.000 A 
ATOM      4  N   UNL     1       5.326   5.277  15.719  0.00  0.00    +0.000 NA
ATOM      5  N   UNL     1       5.325   6.578  15.252  0.00  0.00    +0.000 NA
ATOM      6  N   UNL     1       4.595   7.366  16.033  0.00  0.00    +0.000 NA
ATOM      7  N   UNL     1       4.131   6.558  16.998  0.00  0.00    +0.000 N 
ATOM      8  C   UNL     1       3.304   6.912  18.033  0.00  0.00    +0.000 A 
ATOM      9  C   UNL     1       2.841   8.179  18.193  0.00  0.00    +0.000 A 
ATOM     10  N   UNL     1       2.028   8.490  19.201  0.00  0.00    +0.000 NA
ATOM     11  C   UNL     1       1.677   7.530  20.075  0.00  0.00    +0.000 A 
ATOM     12  N   UNL     1       0.866   7.869  21.151  0.00  0.00    +0.000 N 
ATOM     13  N   UNL     1       2.104   6.257  19.967  0.00  0.00    +0.000 NA
ATOM     14  C   UNL     1       2.915   5.935  18.936  0.00  0.00    +0.000 A 
ATOM     15  N   UNL     1       3.373   4.586  18.759  0.00  0.00    +0.000 N 
ATOM     16  H   UNL     1       0.877   7.163  21.871  0.00  0.00    +0.000 HD
ENDROOT
BRANCH  12  17
ATOM     17  C   UNL     1       0.215   9.079  21.432  0.00  0.00    +0.000 A 
ATOM     18  C   UNL     1      -0.017  10.058  20.461  0.00  0.00    +0.000 A 
ATOM     19  C   UNL     1      -0.665  11.260  20.762  0.00  0.00    +0.000 A 
ATOM     20  C   UNL     1      -1.107  11.545  22.053  0.00  0.00    +0.000 A 
ATOM     21  C   UNL     1      -0.839  10.577  23.031  0.00  0.00    +0.000 A 
ATOM     22  C   UNL     1      -0.198   9.365  22.733  0.00  0.00    +0.000 A 
BRANCH  20  23
ATOM     23  N   UNL     1      -1.800  12.706  22.342  0.00  0.00    +0.000 N 
ATOM     24  C   UNL     1      -3.247  12.695  22.542  0.00  0.00    +0.000 C 
ATOM     25  C   UNL     1      -3.562  13.124  23.970  0.00  0.00    +0.000 C 
ATOM     26  C   UNL     1      -2.892  14.451  24.322  0.00  0.00    +0.000 C 
ATOM     27  C   UNL     1      -1.398  14.452  24.000  0.00  0.00    +0.000 C 
ATOM     28  C   UNL     1      -1.113  13.977  22.576  0.00  0.00    +0.000 C 
BRANCH  26  29
ATOM     29  O   UNL     1      -3.548  15.535  23.663  0.00  0.00    +0.000 OA
ATOM     30  H   UNL     1      -2.892  16.219  23.449  0.00  0.00    +0.000 HD
ENDBRANCH  26  29
ENDBRANCH  20  23
ENDBRANCH  12  17
BRANCH  15  31
ATOM     31  C   UNL     1       2.894   3.506  19.622  0.00  0.00    +0.000 C 
ATOM     32  C   UNL     1       2.810   3.794  21.120  0.00  0.00    +0.000 C 
ATOM     33  C   UNL     1       1.989   2.620  21.648  0.00  0.00    +0.000 C 
ATOM     34  C   UNL     1       1.073   2.183  20.502  0.00  0.00    +0.000 C 
ATOM     35  C   UNL     1       1.518   2.951  19.260  0.00  0.00    +0.000 C 
ENDBRANCH  15  31
TORSDOF 4
ENDMDL
MODEL 4
REMARK VINA RESULT:      -8.4      1.882      3.878
REMARK  Name = 
REMARK  4 active torsions:
REMARK  status: ('A' for Active; 'I' for Inactive)
REMARK    1  A    between atoms: N_12  and  C_13
REMARK    2  A    between atoms: C_16  and  N_17
REMARK    3  A    between atoms: C_20  and  O_21
REMARK    4  A    between atoms: N_28  and  C_29
REMARK                            x       y       z     vdW  Elec       q    Type
REMARK                         _______ _______ _______ _____ _____    ______ ____
ROOT
ATOM      1  O   UNL     1       4.552   2.816  17.436  0.00  0.00    +0.000 OA
ATOM      2  C   UNL     1       4.244   3.998  17.579  0.00  0.00    +0.000 A 
ATOM      3  C   UNL     1       4.719   5.024  16.706  0.00  0.00    +0.000 A 
ATOM      4  N   UNL     1       5.510   4.932  15.659  0.00  0.00    +0.000 NA
ATOM      5  N   UNL     1       5.615   6.218  15.166  0.00  0.00    +0.000 NA
ATOM      6  N   UNL     1       4.904   7.070  15.897  0.00  0.00    +0.000 NA
ATOM      7  N   UNL     1       4.346   6.316  16.856  0.00  0.00    +0.000 N 
ATOM      8  C   UNL     1       3.498   6.747  17.845  0.00  0.00    +0.000 A 
ATOM      9  C   UNL     1       3.113   8.045  17.957  0.00  0.00    +0.000 A 
ATOM     10  N   UNL     1       2.278   8.431  18.920  0.00  0.00    +0.000 NA
ATOM     11  C   UNL     1       1.826   7.516  19.797  0.00  0.00    +0.000 A 
ATOM     12  N   UNL     1       0.993   7.932  20.828  0.00  0.00    +0.000 N 
ATOM     13  N   UNL     1       2.174   6.216  19.735  0.00  0.00    +0.000 NA
ATOM     14  C   UNL     1       3.007   5.819  18.749  0.00  0.00    +0.000 A 
ATOM     15  N   UNL     1       3.384   4.439  18.621  0.00  0.00    +0.000 N 
ATOM     16  H   UNL     1       0.926   7.245  21.562  0.00  0.00    +0.000 HD
ENDROOT
BRANCH  12  17
ATOM     17  C   UNL     1       0.411   9.188  21.053  0.00  0.00    +0.000 A 
ATOM     18  C   UNL     1       0.192   9.702  22.335  0.00  0.00    +0.000 A 
ATOM     19  C   UNL     1      -0.393  10.956  22.540  0.00  0.00    +0.000 A 
ATOM     20  C   UNL     1      -0.796  11.754  21.471  0.00  0.00    +0.000 A 
ATOM     21  C   UNL     1      -0.609  11.219  20.188  0.00  0.00    +0.000 A 
ATOM     22  C   UNL     1      -0.013   9.966  19.977  0.00  0.00    +0.000 A 
BRANCH  20  23
ATOM     23  N   UNL     1      -1.321  13.018  21.666  0.00  0.00    +0.000 N 
ATOM     24  C   UNL     1      -2.607  13.402  21.091  0.00  0.00    +0.000 C 
ATOM     25  C   UNL     1      -3.590  13.714  22.212  0.00  0.00    +0.000 C 
ATOM     26  C   UNL     1      -3.016  14.731  23.199  0.00  0.00    +0.000 C 
ATOM     27  C   UNL     1      -1.626  14.340  23.696  0.00  0.00    +0.000 C 
ATOM     28  C   UNL     1      -0.678  13.992  22.549  0.00  0.00    +0.000 C 
BRANCH  26  29
ATOM     29  O   UNL     1      -2.993  16.035  22.617  0.00  0.00    +0.000 OA
ATOM     30  H   UNL     1      -2.154  16.469  22.847  0.00  0.00    +0.000 HD
ENDBRANCH  26  29
ENDBRANCH  20  23
ENDBRANCH  12  17
BRANCH  15  31
ATOM     31  C   UNL     1       2.798   3.413  19.484  0.00  0.00    +0.000 C 
ATOM     32  C   UNL     1       2.887   3.634  20.993  0.00  0.00    +0.000 C 
ATOM     33  C   UNL     1       1.922   2.591  21.549  0.00  0.00    +0.000 C 
ATOM     34  C   UNL     1       0.854   2.373  20.473  0.00  0.00    +0.000 C 
ATOM     35  C   UNL     1       1.322   3.117  19.226  0.00  0.00    +0.000 C 
ENDBRANCH  15  31
TORSDOF 4
ENDMDL
MODEL 5
REMARK VINA RESULT:      -8.4      2.025      2.426
REMARK  Name = 
REMARK  4 active torsions:
REMARK  status: ('A' for Active; 'I' for Inactive)
REMARK    1  A    between atoms: N_12  and  C_13
REMARK    2  A    between atoms: C_16  and  N_17
REMARK    3  A    between atoms: C_20  and  O_21
REMARK    4  A    between atoms: N_28  and  C_29
REMARK                            x       y       z     vdW  Elec       q    Type
REMARK                         _______ _______ _______ _____ _____    ______ ____
ROOT
ATOM      1  O   UNL     1       4.992   2.737  18.472  0.00  0.00    +0.000 OA
ATOM      2  C   UNL     1       4.241   3.627  18.867  0.00  0.00    +0.000 A 
ATOM      3  C   UNL     1       3.457   3.497  20.053  0.00  0.00    +0.000 A 
ATOM      4  N   UNL     1       3.381   2.492  20.900  0.00  0.00    +0.000 NA
ATOM      5  N   UNL     1       2.503   2.908  21.882  0.00  0.00    +0.000 NA
ATOM      6  N   UNL     1       2.058   4.135  21.638  0.00  0.00    +0.000 NA
ATOM      7  N   UNL     1       2.660   4.497  20.495  0.00  0.00    +0.000 N 
ATOM      8  C   UNL     1       2.532   5.700  19.849  0.00  0.00    +0.000 A 
ATOM      9  C   UNL     1       1.749   6.702  20.327  0.00  0.00    +0.000 A 
ATOM     10  N   UNL     1       1.656   7.865  19.685  0.00  0.00    +0.000 NA
ATOM     11  C   UNL     1       2.341   8.034  18.540  0.00  0.00    +0.000 A 
ATOM     12  N   UNL     1       2.204   9.232  17.849  0.00  0.00    +0.000 N 
ATOM     13  N   UNL     1       3.133   7.077  18.018  0.00  0.00    +0.000 NA
ATOM     14  C   UNL     1       3.242   5.903  18.676  0.00  0.00    +0.000 A 
ATOM     15  N   UNL     1       4.097   4.862  18.179  0.00  0.00    +0.000 N 
ATOM     16  H   UNL     1       2.536   9.162  16.900  0.00  0.00    +0.000 HD
ENDROOT
BRANCH  12  17
ATOM     17  C   UNL     1       1.534  10.406  18.221  0.00  0.00    +0.000 A 
ATOM     18  C   UNL     1       0.180  10.427  18.573  0.00  0.00    +0.000 A 
ATOM     19  C   UNL     1      -0.471  11.608  18.940  0.00  0.00    +0.000 A 
ATOM     20  C   UNL     1       0.198  12.831  18.964  0.00  0.00    +0.000 A 
ATOM     21  C   UNL     1       1.545  12.812  18.575  0.00  0.00    +0.000 A 
ATOM     22  C   UNL     1       2.206  11.627  18.216  0.00  0.00    +0.000 A 
BRANCH  20  23
ATOM     23  N   UNL     1      -0.427  13.991  19.381  0.00  0.00    +0.000 N 
ATOM     24  C   UNL     1      -1.484  13.963  20.390  0.00  0.00    +0.000 C 
ATOM     25  C   UNL     1      -1.029  14.738  21.620  0.00  0.00    +0.000 C 
ATOM     26  C   UNL     1      -0.548  16.142  21.257  0.00  0.00    +0.000 C 
ATOM     27  C   UNL     1       0.481  16.131  20.127  0.00  0.00    +0.000 C 
ATOM     28  C   UNL     1       0.012  15.311  18.927  0.00  0.00    +0.000 C 
BRANCH  26  29
ATOM     29  O   UNL     1      -1.655  16.980  20.919  0.00  0.00    +0.000 OA
ATOM     30  H   UNL     1      -2.030  16.682  20.074  0.00  0.00    +0.000 HD
ENDBRANCH  26  29
ENDBRANCH  20  23
ENDBRANCH  12  17
BRANCH  15  31
ATOM     31  C   UNL     1       4.949   5.079  17.009  0.00  0.00    +0.000 C 
ATOM     32  C   UNL     1       6.448   5.237  17.255  0.00  0.00    +0.000 C 
ATOM     33  C   UNL     1       7.040   5.112  15.854  0.00  0.00    +0.000 C 
ATOM     34  C   UNL     1       6.087   4.213  15.061  0.00  0.00    +0.000 C 
ATOM     35  C   UNL     1       4.848   4.005  15.928  0.00  0.00    +0.000 C 
ENDBRANCH  15  31
TORSDOF 4
ENDMDL
MODEL 6
REMARK VINA RESULT:      -8.3      2.089      4.093
REMARK  Name = 
REMARK  4 active torsions:
REMARK  status: ('A' for Active; 'I' for Inactive)
REMARK    1  A    between atoms: N_12  and  C_13
REMARK    2  A    between atoms: C_16  and  N_17
REMARK    3  A    between atoms: C_20  and  O_21
REMARK    4  A    between atoms: N_28  and  C_29
REMARK                            x       y       z     vdW  Elec       q    Type
REMARK                         _______ _______ _______ _____ _____    ______ ____
ROOT
ATOM      1  O   UNL     1       4.532   2.703  17.477  0.00  0.00    +0.000 OA
ATOM      2  C   UNL     1       4.257   3.897  17.576  0.00  0.00    +0.000 A 
ATOM      3  C   UNL     1       4.770   4.878  16.673  0.00  0.00    +0.000 A 
ATOM      4  N   UNL     1       5.566   4.726  15.637  0.00  0.00    +0.000 NA
ATOM      5  N   UNL     1       5.713   5.991  15.101  0.00  0.00    +0.000 NA
ATOM      6  N   UNL     1       5.022   6.888  15.795  0.00  0.00    +0.000 NA
ATOM      7  N   UNL     1       4.434   6.185  16.774  0.00  0.00    +0.000 N 
ATOM      8  C   UNL     1       3.592   6.674  17.740  0.00  0.00    +0.000 A 
ATOM      9  C   UNL     1       3.244   7.986  17.804  0.00  0.00    +0.000 A 
ATOM     10  N   UNL     1       2.412   8.430  18.746  0.00  0.00    +0.000 NA
ATOM     11  C   UNL     1       1.927   7.560  19.649  0.00  0.00    +0.000 A 
ATOM     12  N   UNL     1       1.098   8.035  20.657  0.00  0.00    +0.000 N 
ATOM     13  N   UNL     1       2.237   6.249  19.635  0.00  0.00    +0.000 NA
ATOM     14  C   UNL     1       3.066   5.793  18.671  0.00  0.00    +0.000 A 
ATOM     15  N   UNL     1       3.402   4.399  18.594  0.00  0.00    +0.000 N 
ATOM     16  H   UNL     1       1.005   7.376  21.414  0.00  0.00    +0.000 HD
ENDROOT
BRANCH  12  17
ATOM     17  C   UNL     1       0.551   9.314  20.834  0.00  0.00    +0.000 A 
ATOM     18  C   UNL     1       0.256  10.167  19.766  0.00  0.00    +0.000 A 
ATOM     19  C   UNL     1      -0.287  11.440  19.963  0.00  0.00    +0.000 A 
ATOM     20  C   UNL     1      -0.553  11.928  21.241  0.00  0.00    +0.000 A 
ATOM     21  C   UNL     1      -0.222  11.085  22.311  0.00  0.00    +0.000 A 
ATOM     22  C   UNL     1       0.314   9.802  22.119  0.00  0.00    +0.000 A 
BRANCH  20  23
ATOM     23  N   UNL     1      -1.143  13.162  21.438  0.00  0.00    +0.000 N 
ATOM     24  C   UNL     1      -1.404  13.672  22.782  0.00  0.00    +0.000 C 
ATOM     25  C   UNL     1      -0.590  14.940  23.008  0.00  0.00    +0.000 C 
ATOM     26  C   UNL     1      -0.818  15.963  21.896  0.00  0.00    +0.000 C 
ATOM     27  C   UNL     1      -0.635  15.360  20.504  0.00  0.00    +0.000 C 
ATOM     28  C   UNL     1      -1.430  14.067  20.325  0.00  0.00    +0.000 C 
BRANCH  26  29
ATOM     29  O   UNL     1      -2.110  16.558  22.019  0.00  0.00    +0.000 OA
ATOM     30  H   UNL     1      -2.036  17.366  22.554  0.00  0.00    +0.000 HD
ENDBRANCH  26  29
ENDBRANCH  20  23
ENDBRANCH  12  17
BRANCH  15  31
ATOM     31  C   UNL     1       2.779   3.421  19.487  0.00  0.00    +0.000 C 
ATOM     32  C   UNL     1       3.054   3.565  20.983  0.00  0.00    +0.000 C 
ATOM     33  C   UNL     1       2.023   2.632  21.611  0.00  0.00    +0.000 C 
ATOM     34  C   UNL     1       0.829   2.599  20.652  0.00  0.00    +0.000 C 
ATOM     35  C   UNL     1       1.259   3.328  19.382  0.00  0.00    +0.000 C 
ENDBRANCH  15  31
TORSDOF 4
ENDMDL
MODEL 7
REMARK VINA RESULT:      -8.3      1.716      2.257
REMARK  Name = 
REMARK  4 active torsions:
REMARK  status: ('A' for Active; 'I' for Inactive)
REMARK    1  A    between atoms: N_12  and  C_13
REMARK    2  A    between atoms: C_16  and  N_17
REMARK    3  A    between atoms: C_20  and  O_21
REMARK    4  A    between atoms: N_28  and  C_29
REMARK                            x       y       z     vdW  Elec       q    Type
REMARK                         _______ _______ _______ _____ _____    ______ ____
ROOT
ATOM      1  O   UNL     1       5.332   2.271  19.248  0.00  0.00    +0.000 OA
ATOM      2  C   UNL     1       4.484   3.126  19.497  0.00  0.00    +0.000 A 
ATOM      3  C   UNL     1       3.532   2.976  20.551  0.00  0.00    +0.000 A 
ATOM      4  N   UNL     1       3.376   1.985  21.402  0.00  0.00    +0.000 NA
ATOM      5  N   UNL     1       2.335   2.371  22.225  0.00  0.00    +0.000 NA
ATOM      6  N   UNL     1       1.871   3.567  21.881  0.00  0.00    +0.000 NA
ATOM      7  N   UNL     1       2.625   3.939  20.835  0.00  0.00    +0.000 N 
ATOM      8  C   UNL     1       2.539   5.121  20.144  0.00  0.00    +0.000 A 
ATOM      9  C   UNL     1       1.640   6.087  20.468  0.00  0.00    +0.000 A 
ATOM     10  N   UNL     1       1.589   7.231  19.787  0.00  0.00    +0.000 NA
ATOM     11  C   UNL     1       2.435   7.415  18.757  0.00  0.00    +0.000 A 
ATOM     12  N   UNL     1       2.347   8.590  18.021  0.00  0.00    +0.000 N 
ATOM     13  N   UNL     1       3.347   6.493  18.392  0.00  0.00    +0.000 NA
ATOM     14  C   UNL     1       3.412   5.339  19.091  0.00  0.00    +0.000 A 
ATOM     15  N   UNL     1       4.386   4.338  18.761  0.00  0.00    +0.000 N 
ATOM     16  H   UNL     1       2.827   8.520  17.137  0.00  0.00    +0.000 HD
ENDROOT
BRANCH  12  17
ATOM     17  C   UNL     1       1.567   9.732  18.253  0.00  0.00    +0.000 A 
ATOM     18  C   UNL     1       0.169   9.704  18.272  0.00  0.00    +0.000 A 
ATOM     19  C   UNL     1      -0.591  10.855  18.503  0.00  0.00    +0.000 A 
ATOM     20  C   UNL     1       0.011  12.094  18.716  0.00  0.00    +0.000 A 
ATOM     21  C   UNL     1       1.411  12.125  18.659  0.00  0.00    +0.000 A 
ATOM     22  C   UNL     1       2.179  10.971  18.438  0.00  0.00    +0.000 A 
BRANCH  20  23
ATOM     23  N   UNL     1      -0.735  13.223  19.002  0.00  0.00    +0.000 N 
ATOM     24  C   UNL     1      -1.980  13.136  19.760  0.00  0.00    +0.000 C 
ATOM     25  C   UNL     1      -1.831  13.905  21.067  0.00  0.00    +0.000 C 
ATOM     26  C   UNL     1      -1.340  15.333  20.829  0.00  0.00    +0.000 C 
ATOM     27  C   UNL     1      -0.094  15.381  19.946  0.00  0.00    +0.000 C 
ATOM     28  C   UNL     1      -0.262  14.566  18.665  0.00  0.00    +0.000 C 
BRANCH  26  29
ATOM     29  O   UNL     1      -2.382  16.135  20.271  0.00  0.00    +0.000 OA
ATOM     30  H   UNL     1      -3.199  15.988  20.776  0.00  0.00    +0.000 HD
ENDBRANCH  26  29
ENDBRANCH  20  23
ENDBRANCH  12  17
BRANCH  15  31
ATOM     31  C   UNL     1       5.398   4.579  17.732  0.00  0.00    +0.000 C 
ATOM     32  C   UNL     1       4.912   4.713  16.290  0.00  0.00    +0.000 C 
ATOM     33  C   UNL     1       6.135   5.270  15.567  0.00  0.00    +0.000 C 
ATOM     34  C   UNL     1       6.917   6.082  16.604  0.00  0.00    +0.000 C 
ATOM     35  C   UNL     1       6.270   5.812  17.960  0.00  0.00    +0.000 C 
ENDBRANCH  15  31
TORSDOF 4
ENDMDL
MODEL 8
REMARK VINA RESULT:      -8.3      0.675      1.238
REMARK  Name = 
REMARK  4 active torsions:
REMARK  status: ('A' for Active; 'I' for Inactive)
REMARK    1  A    between atoms: N_12  and  C_13
REMARK    2  A    between atoms: C_16  and  N_17
REMARK    3  A    between atoms: C_20  and  O_21
REMARK    4  A    between atoms: N_28  and  C_29
REMARK                            x       y       z     vdW  Elec       q    Type
REMARK                         _______ _______ _______ _____ _____    ______ ____
ROOT
ATOM      1  O   UNL     1       5.365   3.251  18.790  0.00  0.00    +0.000 OA
ATOM      2  C   UNL     1       4.444   3.899  19.285  0.00  0.00    +0.000 A 
ATOM      3  C   UNL     1       3.634   3.389  20.345  0.00  0.00    +0.000 A 
ATOM      4  N   UNL     1       3.696   2.229  20.962  0.00  0.00    +0.000 NA
ATOM      5  N   UNL     1       2.705   2.273  21.924  0.00  0.00    +0.000 NA
ATOM      6  N   UNL     1       2.058   3.432  21.891  0.00  0.00    +0.000 NA
ATOM      7  N   UNL     1       2.645   4.125  20.904  0.00  0.00    +0.000 N 
ATOM      8  C   UNL     1       2.335   5.399  20.503  0.00  0.00    +0.000 A 
ATOM      9  C   UNL     1       1.358   6.131  21.099  0.00  0.00    +0.000 A 
ATOM     10  N   UNL     1       1.089   7.372  20.697  0.00  0.00    +0.000 NA
ATOM     11  C   UNL     1       1.793   7.894  19.677  0.00  0.00    +0.000 A 
ATOM     12  N   UNL     1       1.477   9.171  19.230  0.00  0.00    +0.000 N 
ATOM     13  N   UNL     1       2.773   7.216  19.048  0.00  0.00    +0.000 NA
ATOM     14  C   UNL     1       3.059   5.963  19.465  0.00  0.00    +0.000 A 
ATOM     15  N   UNL     1       4.115   5.210  18.849  0.00  0.00    +0.000 N 
ATOM     16  H   UNL     1       1.868   9.362  18.321  0.00  0.00    +0.000 HD
ENDROOT
BRANCH  12  17
ATOM     17  C   UNL     1       0.585  10.110  19.768  0.00  0.00    +0.000 A 
ATOM     18  C   UNL     1      -0.504  10.616  19.053  0.00  0.00    +0.000 A 
ATOM     19  C   UNL     1      -1.382  11.553  19.606  0.00  0.00    +0.000 A 
ATOM     20  C   UNL     1      -1.207  12.038  20.901  0.00  0.00    +0.000 A 
ATOM     21  C   UNL     1      -0.092  11.556  21.601  0.00  0.00    +0.000 A 
ATOM     22  C   UNL     1       0.786  10.608  21.055  0.00  0.00    +0.000 A 
BRANCH  20  23
ATOM     23  N   UNL     1      -2.105  12.921  21.472  0.00  0.00    +0.000 N 
ATOM     24  C   UNL     1      -2.295  12.978  22.920  0.00  0.00    +0.000 C 
ATOM     25  C   UNL     1      -1.878  14.351  23.430  0.00  0.00    +0.000 C 
ATOM     26  C   UNL     1      -2.574  15.474  22.663  0.00  0.00    +0.000 C 
ATOM     27  C   UNL     1      -2.436  15.318  21.149  0.00  0.00    +0.000 C 
ATOM     28  C   UNL     1      -2.821  13.917  20.676  0.00  0.00    +0.000 C 
BRANCH  26  29
ATOM     29  O   UNL     1      -3.950  15.558  23.035  0.00  0.00    +0.000 OA
ATOM     30  H   UNL     1      -4.045  16.210  23.750  0.00  0.00    +0.000 HD
ENDBRANCH  26  29
ENDBRANCH  20  23
ENDBRANCH  12  17
BRANCH  15  31
ATOM     31  C   UNL     1       4.975   5.811  17.829  0.00  0.00    +0.000 C 
ATOM     32  C   UNL     1       6.455   5.972  18.169  0.00  0.00    +0.000 C 
ATOM     33  C   UNL     1       7.083   6.301  16.817  0.00  0.00    +0.000 C 
ATOM     34  C   UNL     1       6.207   5.625  15.758  0.00  0.00    +0.000 C 
ATOM     35  C   UNL     1       4.967   5.101  16.477  0.00  0.00    +0.000 C 
ENDBRANCH  15  31
TORSDOF 4
ENDMDL
MODEL 9
REMARK VINA RESULT:      -8.3      2.396     10.644
REMARK  Name = 
REMARK  4 active torsions:
REMARK  status: ('A' for Active; 'I' for Inactive)
REMARK    1  A    between atoms: N_12  and  C_13
REMARK    2  A    between atoms: C_16  and  N_17
REMARK    3  A    between atoms: C_20  and  O_21
REMARK    4  A    between atoms: N_28  and  C_29
REMARK                            x       y       z     vdW  Elec       q    Type
REMARK                         _______ _______ _______ _____ _____    ______ ____
ROOT
ATOM      1  O   UNL     1      -5.110  14.430  20.585  0.00  0.00    +0.000 OA
ATOM      2  C   UNL     1      -4.536  13.490  20.038  0.00  0.00    +0.000 A 
ATOM      3  C   UNL     1      -5.083  12.813  18.905  0.00  0.00    +0.000 A 
ATOM      4  N   UNL     1      -6.211  13.033  18.264  0.00  0.00    +0.000 NA
ATOM      5  N   UNL     1      -6.228  12.116  17.230  0.00  0.00    +0.000 NA
ATOM      6  N   UNL     1      -5.137  11.359  17.245  0.00  0.00    +0.000 NA
ATOM      7  N   UNL     1      -4.426  11.802  18.293  0.00  0.00    +0.000 N 
ATOM      8  C   UNL     1      -3.200  11.341  18.703  0.00  0.00    +0.000 A 
ATOM      9  C   UNL     1      -2.544  10.344  18.053  0.00  0.00    +0.000 A 
ATOM     10  N   UNL     1      -1.349   9.927  18.467  0.00  0.00    +0.000 NA
ATOM     11  C   UNL     1      -0.798  10.500  19.552  0.00  0.00    +0.000 A 
ATOM     12  N   UNL     1       0.428  10.031  20.007  0.00  0.00    +0.000 N 
ATOM     13  N   UNL     1      -1.402  11.492  20.235  0.00  0.00    +0.000 NA
ATOM     14  C   UNL     1      -2.607  11.928  19.808  0.00  0.00    +0.000 A 
ATOM     15  N   UNL     1      -3.277  13.004  20.483  0.00  0.00    +0.000 N 
ATOM     16  H   UNL     1       0.623  10.333  20.949  0.00  0.00    +0.000 HD
ENDROOT
BRANCH  12  17
ATOM     17  C   UNL     1       1.295   9.094  19.428  0.00  0.00    +0.000 A 
ATOM     18  C   UNL     1       1.874   9.274  18.168  0.00  0.00    +0.000 A 
ATOM     19  C   UNL     1       2.735   8.327  17.606  0.00  0.00    +0.000 A 
ATOM     20  C   UNL     1       3.053   7.146  18.275  0.00  0.00    +0.000 A 
ATOM     21  C   UNL     1       2.442   6.951  19.521  0.00  0.00    +0.000 A 
ATOM     22  C   UNL     1       1.585   7.904  20.094  0.00  0.00    +0.000 A 
BRANCH  20  23
ATOM     23  N   UNL     1       3.949   6.234  17.749  0.00  0.00    +0.000 N 
ATOM     24  C   UNL     1       5.107   6.670  16.972  0.00  0.00    +0.000 C 
ATOM     25  C   UNL     1       6.384   6.267  17.699  0.00  0.00    +0.000 C 
ATOM     26  C   UNL     1       6.389   4.779  18.049  0.00  0.00    +0.000 C 
ATOM     27  C   UNL     1       5.114   4.346  18.770  0.00  0.00    +0.000 C 
ATOM     28  C   UNL     1       3.853   4.803  18.038  0.00  0.00    +0.000 C 
BRANCH  26  29
ATOM     29  O   UNL     1       6.597   3.990  16.877  0.00  0.00    +0.000 OA
ATOM     30  H   UNL     1       6.818   3.082  17.143  0.00  0.00    +0.000 HD
ENDBRANCH  26  29
ENDBRANCH  20  23
ENDBRANCH  12  17
BRANCH  15  31
ATOM     31  C   UNL     1      -2.633  13.724  21.582  0.00  0.00    +0.000 C 
ATOM     32  C   UNL     1      -2.325  12.933  22.851  0.00  0.00    +0.000 C 
ATOM     33  C   UNL     1      -1.393  13.866  23.619  0.00  0.00    +0.000 C 
ATOM     34  C   UNL     1      -0.653  14.699  22.567  0.00  0.00    +0.000 C 
ATOM     35  C   UNL     1      -1.313  14.404  21.223  0.00  0.00    +0.000 C 
ENDBRANCH  15  31
TORSDOF 4
ENDMDL
