MODEL 1
REMARK VINA RESULT:      -8.3      0.000      0.000
REMARK  Name = 
REMARK  9 active torsions:
REMARK  status: ('A' for Active; 'I' for Inactive)
REMARK    1  A    between atoms: C_1  and  C_2
REMARK    2  A    between atoms: C_2  and  C_3
REMARK    3  A    between atoms: C_3  and  C_4
REMARK    4  A    between atoms: C_4  and  C_5
REMARK    5  A    between atoms: C_5  and  C_6
REMARK    6  A    between atoms: C_6  and  C_7
REMARK    7  A    between atoms: N_11  and  C_12
REMARK    8  A    between atoms: C_12  and  C_13
REMARK    9  A    between atoms: N_15  and  C_16
REMARK                            x       y       z     vdW  Elec       q    Type
REMARK                         _______ _______ _______ _____ _____    ______ ____
ROOT
ATOM      1  C   UNL     1       6.883   4.636  14.177  0.00  0.00    +0.000 A 
ATOM      2  C   UNL     1       5.790   4.029  14.656  0.00  0.00    +0.000 A 
ATOM      3  C   UNL     1       5.874   4.221  16.048  0.00  0.00    +0.000 A 
ATOM      4  C   UNL     1       5.126   3.906  17.099  0.00  0.00    +0.000 A 
ATOM      5  N   UNL     1       5.535   4.293  18.367  0.00  0.00    +0.000 N 
ATOM      6  C   UNL     1       6.750   4.976  18.590  0.00  0.00    +0.000 A 
ATOM      7  O   UNL     1       7.108   5.261  19.726  0.00  0.00    +0.000 OA
ATOM      8  N   UNL     1       7.529   5.327  17.500  0.00  0.00    +0.000 NA
ATOM      9  C   UNL     1       7.091   4.968  16.355  0.00  0.00    +0.000 A 
ATOM     10  O   UNL     1       7.718   5.234  15.156  0.00  0.00    +0.000 OA
ENDROOT
BRANCH   1  11
ATOM     11  C   UNL     1       7.290   4.756  12.741  0.00  0.00    +0.000 C 
BRANCH  11  12
ATOM     12  C   UNL     1       6.260   4.134  11.798  0.00  0.00    +0.000 C 
BRANCH  12  13
ATOM     13  C   UNL     1       5.901   2.706  12.214  0.00  0.00    +0.000 C 
BRANCH  13  14
ATOM     14  C   UNL     1       6.829   1.696  11.539  0.00  0.00    +0.000 C 
BRANCH  14  16
ATOM     15  C   UNL     1       6.135  -0.717  11.415  0.00  0.00    +0.000 C 
ATOM     16  C   UNL     1       6.048   0.648  10.749  0.00  0.00    +0.000 C 
ENDBRANCH  14  16
ENDBRANCH  13  14
ENDBRANCH  12  13
ENDBRANCH  11  12
ENDBRANCH   1  11
BRANCH   5  17
ATOM     17  C   UNL     1       4.691   3.959  19.520  0.00  0.00    +0.000 C 
BRANCH  17  18
ATOM     18  C   UNL     1       3.553   4.911  19.613  0.00  0.00    +0.000 A 
ATOM     19  C   UNL     1       3.491   6.213  19.179  0.00  0.00    +0.000 A 
ATOM     20  N   UNL     1       2.292   6.698  19.638  0.00  0.00    +0.000 N 
ATOM     21  N   UNL     1       1.598   5.672  20.205  0.00  0.00    +0.000 NA
ATOM     22  N   UNL     1       2.366   4.589  20.209  0.00  0.00    +0.000 NA
BRANCH  20  23
ATOM     23  C   UNL     1       1.816   8.028  19.646  0.00  0.00    +0.000 A 
ATOM     24  C   UNL     1       1.767   8.767  18.451  0.00  0.00    +0.000 A 
ATOM     25  C   UNL     1       1.183  10.039  18.440  0.00  0.00    +0.000 A 
ATOM     26  C   UNL     1       0.707  10.609  19.621  0.00  0.00    +0.000 A 
ATOM     27  C   UNL     1       0.797   9.900  20.813  0.00  0.00    +0.000 A 
ATOM     28  C   UNL     1       1.325   8.611  20.818  0.00  0.00    +0.000 A 
ATOM     29  F   UNL     1       1.326   7.967  21.990  0.00  0.00    +0.000 F 
ENDBRANCH  20  23
ENDBRANCH  17  18
ENDBRANCH   5  17
TORSDOF 8
ENDMDL
MODEL 2
REMARK VINA RESULT:      -8.2      4.965      7.973
REMARK  Name = 
REMARK  9 active torsions:
REMARK  status: ('A' for Active; 'I' for Inactive)
REMARK    1  A    between atoms: C_1  and  C_2
REMARK    2  A    between atoms: C_2  and  C_3
REMARK    3  A    between atoms: C_3  and  C_4
REMARK    4  A    between atoms: C_4  and  C_5
REMARK    5  A    between atoms: C_5  and  C_6
REMARK    6  A    between atoms: C_6  and  C_7
REMARK    7  A    between atoms: N_11  and  C_12
REMARK    8  A    between atoms: C_12  and  C_13
REMARK    9  A    between atoms: N_15  and  C_16
REMARK                            x       y       z     vdW  Elec       q    Type
REMARK                         _______ _______ _______ _____ _____    ______ ____
ROOT
ATOM      1  C   UNL     1       2.968   6.860  18.274  0.00  0.00    +0.000 A 
ATOM      2  C   UNL     1       2.716   7.978  17.582  0.00  0.00    +0.000 A 
ATOM      3  C   UNL     1       2.013   8.792  18.492  0.00  0.00    +0.000 A 
ATOM      4  C   UNL     1       1.494  10.014  18.472  0.00  0.00    +0.000 A 
ATOM      5  N   UNL     1       0.867  10.507  19.606  0.00  0.00    +0.000 N 
ATOM      6  C   UNL     1       0.716   9.734  20.779  0.00  0.00    +0.000 A 
ATOM      7  O   UNL     1       0.114  10.179  21.747  0.00  0.00    +0.000 OA
ATOM      8  N   UNL     1       1.271   8.466  20.818  0.00  0.00    +0.000 NA
ATOM      9  C   UNL     1       1.860   8.074  19.755  0.00  0.00    +0.000 A 
ATOM     10  O   UNL     1       2.479   6.852  19.605  0.00  0.00    +0.000 OA
ENDROOT
BRANCH   1  11
ATOM     11  C   UNL     1       3.712   5.653  17.793  0.00  0.00    +0.000 C 
BRANCH  11  12
ATOM     12  C   UNL     1       3.161   4.360  18.394  0.00  0.00    +0.000 C 
BRANCH  12  13
ATOM     13  C   UNL     1       1.778   4.020  17.834  0.00  0.00    +0.000 C 
BRANCH  13  14
ATOM     14  C   UNL     1       1.000   3.139  18.811  0.00  0.00    +0.000 C 
BRANCH  14  16
ATOM     15  C   UNL     1       1.375   2.829  21.277  0.00  0.00    +0.000 C 
ATOM     16  C   UNL     1       0.893   3.781  20.193  0.00  0.00    +0.000 C 
ENDBRANCH  14  16
ENDBRANCH  13  14
ENDBRANCH  12  13
ENDBRANCH  11  12
ENDBRANCH   1  11
BRANCH   5  17
ATOM     17  C   UNL     1       0.315  11.866  19.580  0.00  0.00    +0.000 C 
BRANCH  17  18
ATOM     18  C   UNL     1      -1.073  11.844  19.047  0.00  0.00    +0.000 A 
ATOM     19  C   UNL     1      -2.242  12.165  19.693  0.00  0.00    +0.000 A 
ATOM     20  N   UNL     1      -3.248  11.833  18.820  0.00  0.00    +0.000 N 
ATOM     21  N   UNL     1      -2.689  11.459  17.636  0.00  0.00    +0.000 NA
ATOM     22  N   UNL     1      -1.368  11.446  17.773  0.00  0.00    +0.000 NA
BRANCH  20  23
ATOM     23  C   UNL     1      -4.640  11.771  19.053  0.00  0.00    +0.000 A 
ATOM     24  C   UNL     1      -5.459  10.981  18.226  0.00  0.00    +0.000 A 
ATOM     25  C   UNL     1      -6.816  10.825  18.531  0.00  0.00    +0.000 A 
ATOM     26  C   UNL     1      -7.379  11.500  19.614  0.00  0.00    +0.000 A 
ATOM     27  C   UNL     1      -6.583  12.320  20.405  0.00  0.00    +0.000 A 
ATOM     28  C   UNL     1      -5.221  12.432  20.139  0.00  0.00    +0.000 A 
ATOM     29  F   UNL     1      -4.505  13.190  20.977  0.00  0.00    +0.000 F 
ENDBRANCH  20  23
ENDBRANCH  17  18
ENDBRANCH   5  17
TORSDOF 8
ENDMDL
MODEL 3
REMARK VINA RESULT:      -8.2      4.702      7.528
REMARK  Name = 
REMARK  9 active torsions:
REMARK  status: ('A' for Active; 'I' for Inactive)
REMARK    1  A    between atoms: C_1  and  C_2
REMARK    2  A    between atoms: C_2  and  C_3
REMARK    3  A    between atoms: C_3  and  C_4
REMARK    4  A    between atoms: C_4  and  C_5
REMARK    5  A    between atoms: C_5  and  C_6
REMARK    6  A    between atoms: C_6  and  C_7
REMARK    7  A    between atoms: N_11  and  C_12
REMARK    8  A    between atoms: C_12  and  C_13
REMARK    9  A    between atoms: N_15  and  C_16
REMARK                            x       y       z     vdW  Elec       q    Type
REMARK                         _______ _______ _______ _____ _____    ______ ____
ROOT
ATOM      1  C   UNL     1       3.257   6.688  18.342  0.00  0.00    +0.000 A 
ATOM      2  C   UNL     1       2.720   7.791  17.805  0.00  0.00    +0.000 A 
ATOM      3  C   UNL     1       1.898   8.303  18.828  0.00  0.00    +0.000 A 
ATOM      4  C   UNL     1       1.112   9.363  18.975  0.00  0.00    +0.000 A 
ATOM      5  N   UNL     1       0.449   9.558  20.177  0.00  0.00    +0.000 N 
ATOM      6  C   UNL     1       0.541   8.638  21.245  0.00  0.00    +0.000 A 
ATOM      7  O   UNL     1      -0.095   8.812  22.276  0.00  0.00    +0.000 OA
ATOM      8  N   UNL     1       1.373   7.539  21.110  0.00  0.00    +0.000 NA
ATOM      9  C   UNL     1       1.979   7.425  19.992  0.00  0.00    +0.000 A 
ATOM     10  O   UNL     1       2.854   6.408  19.673  0.00  0.00    +0.000 OA
ENDROOT
BRANCH   1  11
ATOM     11  C   UNL     1       4.232   5.755  17.694  0.00  0.00    +0.000 C 
BRANCH  11  12
ATOM     12  C   UNL     1       3.847   4.289  17.898  0.00  0.00    +0.000 C 
BRANCH  12  13
ATOM     13  C   UNL     1       2.429   4.003  17.399  0.00  0.00    +0.000 C 
BRANCH  13  14
ATOM     14  C   UNL     1       1.790   2.871  18.205  0.00  0.00    +0.000 C 
BRANCH  14  16
ATOM     15  C   UNL     1       1.001   3.682  20.449  0.00  0.00    +0.000 C 
ATOM     16  C   UNL     1       2.118   2.979  19.693  0.00  0.00    +0.000 C 
ENDBRANCH  14  16
ENDBRANCH  13  14
ENDBRANCH  12  13
ENDBRANCH  11  12
ENDBRANCH   1  11
BRANCH   5  17
ATOM     17  C   UNL     1      -0.400  10.744  20.338  0.00  0.00    +0.000 C 
BRANCH  17  18
ATOM     18  C   UNL     1       0.429  11.976  20.286  0.00  0.00    +0.000 A 
ATOM     19  C   UNL     1       0.378  13.002  19.374  0.00  0.00    +0.000 A 
ATOM     20  N   UNL     1       1.444  13.814  19.673  0.00  0.00    +0.000 N 
ATOM     21  N   UNL     1       2.026  13.362  20.818  0.00  0.00    +0.000 NA
ATOM     22  N   UNL     1       1.425  12.235  21.185  0.00  0.00    +0.000 NA
BRANCH  20  23
ATOM     23  C   UNL     1       1.972  14.895  18.932  0.00  0.00    +0.000 A 
ATOM     24  C   UNL     1       3.099  14.705  18.113  0.00  0.00    +0.000 A 
ATOM     25  C   UNL     1       3.546  15.743  17.288  0.00  0.00    +0.000 A 
ATOM     26  C   UNL     1       2.921  16.990  17.319  0.00  0.00    +0.000 A 
ATOM     27  C   UNL     1       1.836  17.196  18.163  0.00  0.00    +0.000 A 
ATOM     28  C   UNL     1       1.353  16.148  18.943  0.00  0.00    +0.000 A 
ATOM     29  F   UNL     1       0.269  16.402  19.685  0.00  0.00    +0.000 F 
ENDBRANCH  20  23
ENDBRANCH  17  18
ENDBRANCH   5  17
TORSDOF 8
ENDMDL
MODEL 4
REMARK VINA RESULT:      -8.1      4.728      7.674
REMARK  Name = 
REMARK  9 active torsions:
REMARK  status: ('A' for Active; 'I' for Inactive)
REMARK    1  A    between atoms: C_1  and  C_2
REMARK    2  A    between atoms: C_2  and  C_3
REMARK    3  A    between atoms: C_3  and  C_4
REMARK    4  A    between atoms: C_4  and  C_5
REMARK    5  A    between atoms: C_5  and  C_6
REMARK    6  A    between atoms: C_6  and  C_7
REMARK    7  A    between atoms: N_11  and  C_12
REMARK    8  A    between atoms: C_12  and  C_13
REMARK    9  A    between atoms: N_15  and  C_16
REMARK                            x       y       z     vdW  Elec       q    Type
REMARK                         _______ _______ _______ _____ _____    ______ ____
ROOT
ATOM      1  C   UNL     1       3.271   6.425  18.587  0.00  0.00    +0.000 A 
ATOM      2  C   UNL     1       3.063   7.420  17.716  0.00  0.00    +0.000 A 
ATOM      3  C   UNL     1       2.232   8.317  18.415  0.00  0.00    +0.000 A 
ATOM      4  C   UNL     1       1.676   9.496  18.160  0.00  0.00    +0.000 A 
ATOM      5  N   UNL     1       0.906  10.112  19.135  0.00  0.00    +0.000 N 
ATOM      6  C   UNL     1       0.648   9.507  20.384  0.00  0.00    +0.000 A 
ATOM      7  O   UNL     1      -0.076  10.053  21.206  0.00  0.00    +0.000 OA
ATOM      8  N   UNL     1       1.238   8.286  20.669  0.00  0.00    +0.000 NA
ATOM      9  C   UNL     1       1.959   7.779  19.745  0.00  0.00    +0.000 A 
ATOM     10  O   UNL     1       2.633   6.580  19.845  0.00  0.00    +0.000 OA
ENDROOT
BRANCH   1  11
ATOM     11  C   UNL     1       4.107   5.201  18.372  0.00  0.00    +0.000 C 
BRANCH  11  12
ATOM     12  C   UNL     1       5.519   5.546  17.896  0.00  0.00    +0.000 C 
BRANCH  12  13
ATOM     13  C   UNL     1       6.540   5.440  19.031  0.00  0.00    +0.000 C 
BRANCH  13  14
ATOM     14  C   UNL     1       7.785   6.270  18.718  0.00  0.00    +0.000 C 
BRANCH  14  16
ATOM     15  C   UNL     1       7.998   8.611  17.830  0.00  0.00    +0.000 C 
ATOM     16  C   UNL     1       7.568   7.186  17.515  0.00  0.00    +0.000 C 
ENDBRANCH  14  16
ENDBRANCH  13  14
ENDBRANCH  12  13
ENDBRANCH  11  12
ENDBRANCH   1  11
BRANCH   5  17
ATOM     17  C   UNL     1       0.314  11.424  18.850  0.00  0.00    +0.000 C 
BRANCH  17  18
ATOM     18  C   UNL     1      -1.124  11.272  18.508  0.00  0.00    +0.000 A 
ATOM     19  C   UNL     1      -2.167  12.115  18.807  0.00  0.00    +0.000 A 
ATOM     20  N   UNL     1      -3.302  11.453  18.410  0.00  0.00    +0.000 N 
ATOM     21  N   UNL     1      -2.934  10.311  17.764  0.00  0.00    +0.000 NA
ATOM     22  N   UNL     1      -1.613  10.187  17.836  0.00  0.00    +0.000 NA
BRANCH  20  23
ATOM     23  C   UNL     1      -4.653  11.776  18.663  0.00  0.00    +0.000 A 
ATOM     24  C   UNL     1      -5.619  11.613  17.654  0.00  0.00    +0.000 A 
ATOM     25  C   UNL     1      -6.973  11.818  17.943  0.00  0.00    +0.000 A 
ATOM     26  C   UNL     1      -7.368  12.246  19.210  0.00  0.00    +0.000 A 
ATOM     27  C   UNL     1      -6.412  12.454  20.197  0.00  0.00    +0.000 A 
ATOM     28  C   UNL     1      -5.070  12.197  19.930  0.00  0.00    +0.000 A 
ATOM     29  F   UNL     1      -4.213  12.362  20.943  0.00  0.00    +0.000 F 
ENDBRANCH  20  23
ENDBRANCH  17  18
ENDBRANCH   5  17
TORSDOF 8
ENDMDL
MODEL 5
REMARK VINA RESULT:      -8.0      4.586      7.491
REMARK  Name = 
REMARK  9 active torsions:
REMARK  status: ('A' for Active; 'I' for Inactive)
REMARK    1  A    between atoms: C_1  and  C_2
REMARK    2  A    between atoms: C_2  and  C_3
REMARK    3  A    between atoms: C_3  and  C_4
REMARK    4  A    between atoms: C_4  and  C_5
REMARK    5  A    between atoms: C_5  and  C_6
REMARK    6  A    between atoms: C_6  and  C_7
REMARK    7  A    between atoms: N_11  and  C_12
REMARK    8  A    between atoms: C_12  and  C_13
REMARK    9  A    between atoms: N_15  and  C_16
REMARK                            x       y       z     vdW  Elec       q    Type
REMARK                         _______ _______ _______ _____ _____    ______ ____
ROOT
ATOM      1  C   UNL     1       3.169   5.854  18.937  0.00  0.00    +0.000 A 
ATOM      2  C   UNL     1       3.023   6.787  17.988  0.00  0.00    +0.000 A 
ATOM      3  C   UNL     1       2.298   7.812  18.627  0.00  0.00    +0.000 A 
ATOM      4  C   UNL     1       1.843   9.011  18.283  0.00  0.00    +0.000 A 
ATOM      5  N   UNL     1       1.162   9.775  19.219  0.00  0.00    +0.000 N 
ATOM      6  C   UNL     1       0.890   9.304  20.522  0.00  0.00    +0.000 A 
ATOM      7  O   UNL     1       0.244   9.981  21.310  0.00  0.00    +0.000 OA
ATOM      8  N   UNL     1       1.377   8.062  20.898  0.00  0.00    +0.000 NA
ATOM      9  C   UNL     1       2.020   7.415  20.004  0.00  0.00    +0.000 A 
ATOM     10  O   UNL     1       2.587   6.172  20.191  0.00  0.00    +0.000 OA
ENDROOT
BRANCH   1  11
ATOM     11  C   UNL     1       3.885   4.545  18.809  0.00  0.00    +0.000 C 
BRANCH  11  12
ATOM     12  C   UNL     1       5.396   4.696  18.986  0.00  0.00    +0.000 C 
BRANCH  12  13
ATOM     13  C   UNL     1       6.141   4.520  17.661  0.00  0.00    +0.000 C 
BRANCH  13  14
ATOM     14  C   UNL     1       7.590   4.993  17.787  0.00  0.00    +0.000 C 
BRANCH  14  16
ATOM     15  C   UNL     1       7.605   7.500  17.621  0.00  0.00    +0.000 C 
ATOM     16  C   UNL     1       7.692   6.307  18.559  0.00  0.00    +0.000 C 
ENDBRANCH  14  16
ENDBRANCH  13  14
ENDBRANCH  12  13
ENDBRANCH  11  12
ENDBRANCH   1  11
BRANCH   5  17
ATOM     17  C   UNL     1       0.681  11.108  18.836  0.00  0.00    +0.000 C 
BRANCH  17  18
ATOM     18  C   UNL     1      -0.746  11.038  18.427  0.00  0.00    +0.000 A 
ATOM     19  C   UNL     1      -1.762  11.916  18.717  0.00  0.00    +0.000 A 
ATOM     20  N   UNL     1      -2.907  11.324  18.244  0.00  0.00    +0.000 N 
ATOM     21  N   UNL     1      -2.563  10.194  17.566  0.00  0.00    +0.000 NA
ATOM     22  N   UNL     1      -1.253  10.006  17.689  0.00  0.00    +0.000 NA
BRANCH  20  23
ATOM     23  C   UNL     1      -4.252  11.700  18.454  0.00  0.00    +0.000 A 
ATOM     24  C   UNL     1      -4.647  12.251  19.686  0.00  0.00    +0.000 A 
ATOM     25  C   UNL     1      -5.951  12.733  19.850  0.00  0.00    +0.000 A 
ATOM     26  C   UNL     1      -6.883  12.614  18.819  0.00  0.00    +0.000 A 
ATOM     27  C   UNL     1      -6.510  12.026  17.616  0.00  0.00    +0.000 A 
ATOM     28  C   UNL     1      -5.198  11.597  17.430  0.00  0.00    +0.000 A 
ATOM     29  F   UNL     1      -4.895  11.096  16.227  0.00  0.00    +0.000 F 
ENDBRANCH  20  23
ENDBRANCH  17  18
ENDBRANCH   5  17
TORSDOF 8
ENDMDL
MODEL 6
REMARK VINA RESULT:      -7.9      4.865      7.718
REMARK  Name = 
REMARK  9 active torsions:
REMARK  status: ('A' for Active; 'I' for Inactive)
REMARK    1  A    between atoms: C_1  and  C_2
REMARK    2  A    between atoms: C_2  and  C_3
REMARK    3  A    between atoms: C_3  and  C_4
REMARK    4  A    between atoms: C_4  and  C_5
REMARK    5  A    between atoms: C_5  and  C_6
REMARK    6  A    between atoms: C_6  and  C_7
REMARK    7  A    between atoms: N_11  and  C_12
REMARK    8  A    between atoms: C_12  and  C_13
REMARK    9  A    between atoms: N_15  and  C_16
REMARK                            x       y       z     vdW  Elec       q    Type
REMARK                         _______ _______ _______ _____ _____    ______ ____
ROOT
ATOM      1  C   UNL     1       3.200   6.293  18.508  0.00  0.00    +0.000 A 
ATOM      2  C   UNL     1       2.942   7.283  17.645  0.00  0.00    +0.000 A 
ATOM      3  C   UNL     1       2.199   8.210  18.401  0.00  0.00    +0.000 A 
ATOM      4  C   UNL     1       1.654   9.400  18.179  0.00  0.00    +0.000 A 
ATOM      5  N   UNL     1       0.988  10.048  19.208  0.00  0.00    +0.000 N 
ATOM      6  C   UNL     1       0.825   9.464  20.484  0.00  0.00    +0.000 A 
ATOM      7  O   UNL     1       0.189  10.039  21.358  0.00  0.00    +0.000 OA
ATOM      8  N   UNL     1       1.405   8.232  20.733  0.00  0.00    +0.000 NA
ATOM      9  C   UNL     1       2.029   7.694  19.757  0.00  0.00    +0.000 A 
ATOM     10  O   UNL     1       2.679   6.479  19.814  0.00  0.00    +0.000 OA
ENDROOT
BRANCH   1  11
ATOM     11  C   UNL     1       3.982   5.044  18.237  0.00  0.00    +0.000 C 
BRANCH  11  12
ATOM     12  C   UNL     1       4.322   4.289  19.523  0.00  0.00    +0.000 C 
BRANCH  12  13
ATOM     13  C   UNL     1       3.615   2.934  19.586  0.00  0.00    +0.000 C 
BRANCH  13  14
ATOM     14  C   UNL     1       2.553   2.927  20.686  0.00  0.00    +0.000 C 
BRANCH  14  16
ATOM     15  C   UNL     1       0.826   2.498  18.911  0.00  0.00    +0.000 C 
ATOM     16  C   UNL     1       1.176   3.312  20.147  0.00  0.00    +0.000 C 
ENDBRANCH  14  16
ENDBRANCH  13  14
ENDBRANCH  12  13
ENDBRANCH  11  12
ENDBRANCH   1  11
BRANCH   5  17
ATOM     17  C   UNL     1       0.407  11.372  18.958  0.00  0.00    +0.000 C 
BRANCH  17  18
ATOM     18  C   UNL     1      -1.023  11.239  18.575  0.00  0.00    +0.000 A 
ATOM     19  C   UNL     1      -2.075  12.058  18.902  0.00  0.00    +0.000 A 
ATOM     20  N   UNL     1      -3.198  11.420  18.438  0.00  0.00    +0.000 N 
ATOM     21  N   UNL     1      -2.811  10.323  17.729  0.00  0.00    +0.000 NA
ATOM     22  N   UNL     1      -1.492  10.198  17.824  0.00  0.00    +0.000 NA
BRANCH  20  23
ATOM     23  C   UNL     1      -4.556  11.723  18.681  0.00  0.00    +0.000 A 
ATOM     24  C   UNL     1      -5.537  11.373  17.736  0.00  0.00    +0.000 A 
ATOM     25  C   UNL     1      -6.892  11.564  18.031  0.00  0.00    +0.000 A 
ATOM     26  C   UNL     1      -7.276  12.161  19.232  0.00  0.00    +0.000 A 
ATOM     27  C   UNL     1      -6.306  12.552  20.148  0.00  0.00    +0.000 A 
ATOM     28  C   UNL     1      -4.961  12.312  19.883  0.00  0.00    +0.000 A 
ATOM     29  F   UNL     1      -4.088  12.661  20.835  0.00  0.00    +0.000 F 
ENDBRANCH  20  23
ENDBRANCH  17  18
ENDBRANCH   5  17
TORSDOF 8
ENDMDL
MODEL 7
REMARK VINA RESULT:      -7.9      2.240      3.169
REMARK  Name = 
REMARK  9 active torsions:
REMARK  status: ('A' for Active; 'I' for Inactive)
REMARK    1  A    between atoms: C_1  and  C_2
REMARK    2  A    between atoms: C_2  and  C_3
REMARK    3  A    between atoms: C_3  and  C_4
REMARK    4  A    between atoms: C_4  and  C_5
REMARK    5  A    between atoms: C_5  and  C_6
REMARK    6  A    between atoms: C_6  and  C_7
REMARK    7  A    between atoms: N_11  and  C_12
REMARK    8  A    between atoms: C_12  and  C_13
REMARK    9  A    between atoms: N_15  and  C_16
REMARK                            x       y       z     vdW  Elec       q    Type
REMARK                         _______ _______ _______ _____ _____    ______ ____
ROOT
ATOM      1  C   UNL     1       5.839   4.818  15.018  0.00  0.00    +0.000 A 
ATOM      2  C   UNL     1       5.616   5.964  15.673  0.00  0.00    +0.000 A 
ATOM      3  C   UNL     1       4.742   5.597  16.715  0.00  0.00    +0.000 A 
ATOM      4  C   UNL     1       4.154   6.222  17.728  0.00  0.00    +0.000 A 
ATOM      5  N   UNL     1       3.345   5.504  18.595  0.00  0.00    +0.000 N 
ATOM      6  C   UNL     1       3.082   4.128  18.413  0.00  0.00    +0.000 A 
ATOM      7  O   UNL     1       2.324   3.532  19.166  0.00  0.00    +0.000 OA
ATOM      8  N   UNL     1       3.705   3.461  17.371  0.00  0.00    +0.000 NA
ATOM      9  C   UNL     1       4.460   4.168  16.622  0.00  0.00    +0.000 A 
ATOM     10  O   UNL     1       5.172   3.683  15.544  0.00  0.00    +0.000 OA
ENDROOT
BRANCH   1  11
ATOM     11  C   UNL     1       6.719   4.622  13.822  0.00  0.00    +0.000 C 
BRANCH  11  12
ATOM     12  C   UNL     1       6.223   3.490  12.923  0.00  0.00    +0.000 C 
BRANCH  12  13
ATOM     13  C   UNL     1       5.061   3.941  12.035  0.00  0.00    +0.000 C 
BRANCH  13  14
ATOM     14  C   UNL     1       4.541   2.777  11.190  0.00  0.00    +0.000 C 
BRANCH  14  16
ATOM     15  C   UNL     1       3.072   4.186   9.716  0.00  0.00    +0.000 C 
ATOM     16  C   UNL     1       3.117   3.026  10.698  0.00  0.00    +0.000 C 
ENDBRANCH  14  16
ENDBRANCH  13  14
ENDBRANCH  12  13
ENDBRANCH  11  12
ENDBRANCH   1  11
BRANCH   5  17
ATOM     17  C   UNL     1       2.716   6.199  19.724  0.00  0.00    +0.000 C 
BRANCH  17  18
ATOM     18  C   UNL     1       2.191   7.518  19.282  0.00  0.00    +0.000 A 
ATOM     19  C   UNL     1       1.782   8.577  20.056  0.00  0.00    +0.000 A 
ATOM     20  N   UNL     1       1.244   9.487  19.181  0.00  0.00    +0.000 N 
ATOM     21  N   UNL     1       1.456   9.044  17.910  0.00  0.00    +0.000 NA
ATOM     22  N   UNL     1       2.015   7.840  17.966  0.00  0.00    +0.000 NA
BRANCH  20  23
ATOM     23  C   UNL     1       0.503  10.656  19.459  0.00  0.00    +0.000 A 
ATOM     24  C   UNL     1       0.734  11.831  18.722  0.00  0.00    +0.000 A 
ATOM     25  C   UNL     1      -0.083  12.951  18.917  0.00  0.00    +0.000 A 
ATOM     26  C   UNL     1      -1.088  12.933  19.885  0.00  0.00    +0.000 A 
ATOM     27  C   UNL     1      -1.288  11.789  20.649  0.00  0.00    +0.000 A 
ATOM     28  C   UNL     1      -0.514  10.655  20.419  0.00  0.00    +0.000 A 
ATOM     29  F   UNL     1      -0.803   9.572  21.150  0.00  0.00    +0.000 F 
ENDBRANCH  20  23
ENDBRANCH  17  18
ENDBRANCH   5  17
TORSDOF 8
ENDMDL
MODEL 8
REMARK VINA RESULT:      -7.9      4.876      7.234
REMARK  Name = 
REMARK  9 active torsions:
REMARK  status: ('A' for Active; 'I' for Inactive)
REMARK    1  A    between atoms: C_1  and  C_2
REMARK    2  A    between atoms: C_2  and  C_3
REMARK    3  A    between atoms: C_3  and  C_4
REMARK    4  A    between atoms: C_4  and  C_5
REMARK    5  A    between atoms: C_5  and  C_6
REMARK    6  A    between atoms: C_6  and  C_7
REMARK    7  A    between atoms: N_11  and  C_12
REMARK    8  A    between atoms: C_12  and  C_13
REMARK    9  A    between atoms: N_15  and  C_16
REMARK                            x       y       z     vdW  Elec       q    Type
REMARK                         _______ _______ _______ _____ _____    ______ ____
ROOT
ATOM      1  C   UNL     1       3.025   4.882  20.266  0.00  0.00    +0.000 A 
ATOM      2  C   UNL     1       3.190   6.033  19.602  0.00  0.00    +0.000 A 
ATOM      3  C   UNL     1       4.457   5.902  19.000  0.00  0.00    +0.000 A 
ATOM      4  C   UNL     1       5.212   6.646  18.202  0.00  0.00    +0.000 A 
ATOM      5  N   UNL     1       6.442   6.163  17.782  0.00  0.00    +0.000 N 
ATOM      6  C   UNL     1       6.948   4.917  18.213  0.00  0.00    +0.000 A 
ATOM      7  O   UNL     1       8.059   4.539  17.864  0.00  0.00    +0.000 OA
ATOM      8  N   UNL     1       6.161   4.124  19.031  0.00  0.00    +0.000 NA
ATOM      9  C   UNL     1       5.027   4.608  19.364  0.00  0.00    +0.000 A 
ATOM     10  O   UNL     1       4.103   3.966  20.160  0.00  0.00    +0.000 OA
ENDROOT
BRANCH   1  11
ATOM     11  C   UNL     1       1.834   4.473  21.076  0.00  0.00    +0.000 C 
BRANCH  11  12
ATOM     12  C   UNL     1       0.677   3.998  20.197  0.00  0.00    +0.000 C 
BRANCH  12  13
ATOM     13  C   UNL     1       1.116   2.895  19.231  0.00  0.00    +0.000 C 
BRANCH  13  14
ATOM     14  C   UNL     1       1.230   3.437  17.806  0.00  0.00    +0.000 C 
BRANCH  14  16
ATOM     15  C   UNL     1       3.167   1.836  17.795  0.00  0.00    +0.000 C 
ATOM     16  C   UNL     1       2.578   3.093  17.175  0.00  0.00    +0.000 C 
ENDBRANCH  14  16
ENDBRANCH  13  14
ENDBRANCH  12  13
ENDBRANCH  11  12
ENDBRANCH   1  11
BRANCH   5  17
ATOM     17  C   UNL     1       7.260   6.984  16.882  0.00  0.00    +0.000 C 
BRANCH  17  18
ATOM     18  C   UNL     1       7.849   8.127  17.627  0.00  0.00    +0.000 A 
ATOM     19  C   UNL     1       7.817   9.463  17.307  0.00  0.00    +0.000 A 
ATOM     20  N   UNL     1       8.630  10.081  18.224  0.00  0.00    +0.000 N 
ATOM     21  N   UNL     1       9.020   9.160  19.149  0.00  0.00    +0.000 NA
ATOM     22  N   UNL     1       8.563   7.968  18.781  0.00  0.00    +0.000 NA
BRANCH  20  23
ATOM     23  C   UNL     1       9.107  11.411  18.234  0.00  0.00    +0.000 A 
ATOM     24  C   UNL     1       8.301  12.453  17.745  0.00  0.00    +0.000 A 
ATOM     25  C   UNL     1       8.725  13.781  17.867  0.00  0.00    +0.000 A 
ATOM     26  C   UNL     1       9.974  14.077  18.414  0.00  0.00    +0.000 A 
ATOM     27  C   UNL     1      10.795  13.045  18.855  0.00  0.00    +0.000 A 
ATOM     28  C   UNL     1      10.352  11.727  18.787  0.00  0.00    +0.000 A 
ATOM     29  F   UNL     1      11.169  10.792  19.284  0.00  0.00    +0.000 F 
ENDBRANCH  20  23
ENDBRANCH  17  18
ENDBRANCH   5  17
TORSDOF 8
ENDMDL
MODEL 9
REMARK VINA RESULT:      -7.8      5.185     10.814
REMARK  Name = 
REMARK  9 active torsions:
REMARK  status: ('A' for Active; 'I' for Inactive)
REMARK    1  A    between atoms: C_1  and  C_2
REMARK    2  A    between atoms: C_2  and  C_3
REMARK    3  A    between atoms: C_3  and  C_4
REMARK    4  A    between atoms: C_4  and  C_5
REMARK    5  A    between atoms: C_5  and  C_6
REMARK    6  A    between atoms: C_6  and  C_7
REMARK    7  A    between atoms: N_11  and  C_12
REMARK    8  A    between atoms: C_12  and  C_13
REMARK    9  A    between atoms: N_15  and  C_16
REMARK                            x       y       z     vdW  Elec       q    Type
REMARK                         _______ _______ _______ _____ _____    ______ ____
ROOT
ATOM      1  C   UNL     1      -3.635  10.844  17.983  0.00  0.00    +0.000 A 
ATOM      2  C   UNL     1      -2.846   9.965  17.354  0.00  0.00    +0.000 A 
ATOM      3  C   UNL     1      -1.555  10.263  17.831  0.00  0.00    +0.000 A 
ATOM      4  C   UNL     1      -0.335   9.774  17.643  0.00  0.00    +0.000 A 
ATOM      5  N   UNL     1       0.736  10.333  18.324  0.00  0.00    +0.000 N 
ATOM      6  C   UNL     1       0.585  11.444  19.183  0.00  0.00    +0.000 A 
ATOM      7  O   UNL     1       1.556  11.947  19.732  0.00  0.00    +0.000 OA
ATOM      8  N   UNL     1      -0.686  11.950  19.401  0.00  0.00    +0.000 NA
ATOM      9  C   UNL     1      -1.637  11.379  18.769  0.00  0.00    +0.000 A 
ATOM     10  O   UNL     1      -2.967  11.733  18.864  0.00  0.00    +0.000 OA
ENDROOT
BRANCH   1  11
ATOM     11  C   UNL     1      -5.123  10.966  17.862  0.00  0.00    +0.000 C 
BRANCH  11  12
ATOM     12  C   UNL     1      -5.745  11.647  19.081  0.00  0.00    +0.000 C 
BRANCH  12  13
ATOM     13  C   UNL     1      -7.201  12.044  18.826  0.00  0.00    +0.000 C 
BRANCH  13  14
ATOM     14  C   UNL     1      -7.319  12.882  17.553  0.00  0.00    +0.000 C 
BRANCH  14  16
ATOM     15  C   UNL     1      -7.018  15.149  16.510  0.00  0.00    +0.000 C 
ATOM     16  C   UNL     1      -6.911  14.334  17.790  0.00  0.00    +0.000 C 
ENDBRANCH  14  16
ENDBRANCH  13  14
ENDBRANCH  12  13
ENDBRANCH  11  12
ENDBRANCH   1  11
BRANCH   5  17
ATOM     17  C   UNL     1       2.077   9.772  18.126  0.00  0.00    +0.000 C 
BRANCH  17  18
ATOM     18  C   UNL     1       2.138   8.390  18.671  0.00  0.00    +0.000 A 
ATOM     19  C   UNL     1       2.392   7.218  18.001  0.00  0.00    +0.000 A 
ATOM     20  N   UNL     1       2.182   6.217  18.916  0.00  0.00    +0.000 N 
ATOM     21  N   UNL     1       1.949   6.784  20.133  0.00  0.00    +0.000 NA
ATOM     22  N   UNL     1       1.903   8.104  19.986  0.00  0.00    +0.000 NA
BRANCH  20  23
ATOM     23  C   UNL     1       2.110   4.822  18.706  0.00  0.00    +0.000 A 
ATOM     24  C   UNL     1       2.900   4.216  17.714  0.00  0.00    +0.000 A 
ATOM     25  C   UNL     1       2.918   2.822  17.589  0.00  0.00    +0.000 A 
ATOM     26  C   UNL     1       2.106   2.030  18.401  0.00  0.00    +0.000 A 
ATOM     27  C   UNL     1       1.287   2.628  19.351  0.00  0.00    +0.000 A 
ATOM     28  C   UNL     1       1.310   4.011  19.516  0.00  0.00    +0.000 A 
ATOM     29  F   UNL     1       0.541   4.512  20.490  0.00  0.00    +0.000 F 
ENDBRANCH  20  23
ENDBRANCH  17  18
ENDBRANCH   5  17
TORSDOF 8
ENDMDL
