MODEL 1
REMARK VINA RESULT:      -6.6      0.000      0.000
REMARK  Name = 
REMARK  12 active torsions:
REMARK  status: ('A' for Active; 'I' for Inactive)
REMARK    1  A    between atoms: C_1  and  C_2
REMARK    2  A    between atoms: C_2  and  C_3
REMARK    3  A    between atoms: C_3  and  C_4
REMARK    4  A    between atoms: C_4  and  C_5
REMARK    5  A    between atoms: C_5  and  N_6
REMARK    6  A    between atoms: N_6  and  C_7
REMARK    7  A    between atoms: C_7  and  C_8
REMARK    8  A    between atoms: C_8  and  O_9
REMARK    9  A    between atoms: C_10  and  C_12
REMARK   10  A    between atoms: C_12  and  C_13
REMARK   11  A    between atoms: C_13  and  C_14
REMARK   12  A    between atoms: N_19  and  C_20
REMARK                            x       y       z     vdW  Elec       q    Type
REMARK                         _______ _______ _______ _____ _____    ______ ____
ROOT
ATOM      1  N   UNL     1       6.909   6.083  17.935  0.00  0.00    +0.000 N 
ATOM      2  C   UNL     1       6.404   5.188  18.886  0.00  0.00    +0.000 C 
ATOM      3  O   UNL     1       6.883   5.096  20.019  0.00  0.00    +0.000 OA
ENDROOT
BRANCH   1   4
ATOM      4  C   UNL     1       7.997   6.966  18.369  0.00  0.00    +0.000 C 
BRANCH   4   5
ATOM      5  C   UNL     1       7.979   8.405  17.849  0.00  0.00    +0.000 C 
BRANCH   5   6
ATOM      6  C   UNL     1       8.764   9.438  18.662  0.00  0.00    +0.000 C 
BRANCH   6   8
ATOM      7  C   UNL     1      10.152  11.472  17.979  0.00  0.00    +0.000 C 
ATOM      8  C   UNL     1       8.824  10.749  17.862  0.00  0.00    +0.000 C 
ENDBRANCH   6   8
ENDBRANCH   5   6
ENDBRANCH   4   5
ENDBRANCH   1   4
BRANCH   1   9
ATOM      9  C   UNL     1       6.304   6.225  16.597  0.00  0.00    +0.000 C 
BRANCH   9  10
ATOM     10  C   UNL     1       6.640   5.202  15.508  0.00  0.00    +0.000 C 
BRANCH  10  11
ATOM     11  O   UNL     1       7.832   5.547  14.813  0.00  0.00    +0.000 OA
ATOM     12  H   UNL     1       7.709   5.299  13.881  0.00  0.00    +0.000 HD
ENDBRANCH  10  11
ENDBRANCH   9  10
ENDBRANCH   1   9
BRANCH   2  13
ATOM     13  C   UNL     1       5.259   4.267  18.478  0.00  0.00    +0.000 C 
BRANCH  13  14
ATOM     14  C   UNL     1       4.066   4.381  19.430  0.00  0.00    +0.000 C 
BRANCH  14  15
ATOM     15  C   UNL     1       2.725   4.677  18.701  0.00  0.00    +0.000 C 
ATOM     16  C   UNL     1       2.469   3.742  17.497  0.00  0.00    +0.000 C 
ATOM     17  C   UNL     1       2.194   2.309  17.938  0.00  0.00    +0.000 C 
ATOM     18  C   UNL     1       1.039   2.286  18.932  0.00  0.00    +0.000 C 
ATOM     19  C   UNL     1       1.240   3.281  20.079  0.00  0.00    +0.000 C 
ATOM     20  N   UNL     1       1.535   4.624  19.572  0.00  0.00    +0.000 NA
ATOM     21  C   UNL     1       1.581   5.610  20.649  0.00  0.00    +0.000 C 
ENDBRANCH  14  15
ENDBRANCH  13  14
ENDBRANCH   2  13
TORSDOF 10
ENDMDL
MODEL 2
REMARK VINA RESULT:      -6.6      1.477      2.736
REMARK  Name = 
REMARK  12 active torsions:
REMARK  status: ('A' for Active; 'I' for Inactive)
REMARK    1  A    between atoms: C_1  and  C_2
REMARK    2  A    between atoms: C_2  and  C_3
REMARK    3  A    between atoms: C_3  and  C_4
REMARK    4  A    between atoms: C_4  and  C_5
REMARK    5  A    between atoms: C_5  and  N_6
REMARK    6  A    between atoms: N_6  and  C_7
REMARK    7  A    between atoms: C_7  and  C_8
REMARK    8  A    between atoms: C_8  and  O_9
REMARK    9  A    between atoms: C_10  and  C_12
REMARK   10  A    between atoms: C_12  and  C_13
REMARK   11  A    between atoms: C_13  and  C_14
REMARK   12  A    between atoms: N_19  and  C_20
REMARK                            x       y       z     vdW  Elec       q    Type
REMARK                         _______ _______ _______ _____ _____    ______ ____
ROOT
ATOM      1  N   UNL     1       6.944   6.264  17.393  0.00  0.00    +0.000 N 
ATOM      2  C   UNL     1       6.077   5.702  16.448  0.00  0.00    +0.000 C 
ATOM      3  O   UNL     1       5.491   6.387  15.605  0.00  0.00    +0.000 OA
ENDROOT
BRANCH   1   4
ATOM      4  C   UNL     1       7.183   7.708  17.294  0.00  0.00    +0.000 C 
BRANCH   4   5
ATOM      5  C   UNL     1       8.239   8.306  18.225  0.00  0.00    +0.000 C 
BRANCH   5   6
ATOM      6  C   UNL     1       8.535   9.799  18.058  0.00  0.00    +0.000 C 
BRANCH   6   8
ATOM      7  C   UNL     1       9.611  11.772  19.276  0.00  0.00    +0.000 C 
ATOM      8  C   UNL     1       9.341  10.279  19.275  0.00  0.00    +0.000 C 
ENDBRANCH   6   8
ENDBRANCH   5   6
ENDBRANCH   4   5
ENDBRANCH   1   4
BRANCH   1   9
ATOM      9  C   UNL     1       7.679   5.437  18.369  0.00  0.00    +0.000 C 
BRANCH   9  10
ATOM     10  C   UNL     1       7.164   5.336  19.808  0.00  0.00    +0.000 C 
BRANCH  10  11
ATOM     11  O   UNL     1       8.225   5.407  20.752  0.00  0.00    +0.000 OA
ATOM     12  H   UNL     1       8.568   4.506  20.875  0.00  0.00    +0.000 HD
ENDBRANCH  10  11
ENDBRANCH   9  10
ENDBRANCH   1   9
BRANCH   2  13
ATOM     13  C   UNL     1       5.818   4.200  16.507  0.00  0.00    +0.000 C 
BRANCH  13  14
ATOM     14  C   UNL     1       4.351   3.883  16.801  0.00  0.00    +0.000 C 
BRANCH  14  15
ATOM     15  C   UNL     1       3.859   4.460  18.158  0.00  0.00    +0.000 C 
ATOM     16  C   UNL     1       2.629   5.385  18.015  0.00  0.00    +0.000 C 
ATOM     17  C   UNL     1       1.378   4.612  17.615  0.00  0.00    +0.000 C 
ATOM     18  C   UNL     1       1.128   3.482  18.606  0.00  0.00    +0.000 C 
ATOM     19  C   UNL     1       2.373   2.617  18.827  0.00  0.00    +0.000 C 
ATOM     20  N   UNL     1       3.537   3.437  19.174  0.00  0.00    +0.000 NA
ATOM     21  C   UNL     1       4.691   2.616  19.531  0.00  0.00    +0.000 C 
ENDBRANCH  14  15
ENDBRANCH  13  14
ENDBRANCH   2  13
TORSDOF 10
ENDMDL
MODEL 3
REMARK VINA RESULT:      -6.5      3.116      4.653
REMARK  Name = 
REMARK  12 active torsions:
REMARK  status: ('A' for Active; 'I' for Inactive)
REMARK    1  A    between atoms: C_1  and  C_2
REMARK    2  A    between atoms: C_2  and  C_3
REMARK    3  A    between atoms: C_3  and  C_4
REMARK    4  A    between atoms: C_4  and  C_5
REMARK    5  A    between atoms: C_5  and  N_6
REMARK    6  A    between atoms: N_6  and  C_7
REMARK    7  A    between atoms: C_7  and  C_8
REMARK    8  A    between atoms: C_8  and  O_9
REMARK    9  A    between atoms: C_10  and  C_12
REMARK   10  A    between atoms: C_12  and  C_13
REMARK   11  A    between atoms: C_13  and  C_14
REMARK   12  A    between atoms: N_19  and  C_20
REMARK                            x       y       z     vdW  Elec       q    Type
REMARK                         _______ _______ _______ _____ _____    ______ ____
ROOT
ATOM      1  N   UNL     1       5.449   5.336  16.782  0.00  0.00    +0.000 N 
ATOM      2  C   UNL     1       4.645   6.104  17.632  0.00  0.00    +0.000 C 
ATOM      3  O   UNL     1       3.897   6.988  17.205  0.00  0.00    +0.000 OA
ENDROOT
BRANCH   1   4
ATOM      4  C   UNL     1       5.314   5.580  15.342  0.00  0.00    +0.000 C 
BRANCH   4   5
ATOM      5  C   UNL     1       5.421   4.368  14.414  0.00  0.00    +0.000 C 
BRANCH   5   6
ATOM      6  C   UNL     1       6.710   4.240  13.599  0.00  0.00    +0.000 C 
BRANCH   6   8
ATOM      7  C   UNL     1       4.906   3.381  12.006  0.00  0.00    +0.000 C 
ATOM      8  C   UNL     1       6.391   3.501  12.290  0.00  0.00    +0.000 C 
ENDBRANCH   6   8
ENDBRANCH   5   6
ENDBRANCH   4   5
ENDBRANCH   1   4
BRANCH   1   9
ATOM      9  C   UNL     1       6.307   4.248  17.290  0.00  0.00    +0.000 C 
BRANCH   9  10
ATOM     10  C   UNL     1       7.794   4.517  17.540  0.00  0.00    +0.000 C 
BRANCH  10  11
ATOM     11  O   UNL     1       8.052   4.811  18.907  0.00  0.00    +0.000 OA
ATOM     12  H   UNL     1       8.957   5.162  18.965  0.00  0.00    +0.000 HD
ENDBRANCH  10  11
ENDBRANCH   9  10
ENDBRANCH   1   9
BRANCH   2  13
ATOM     13  C   UNL     1       4.744   5.864  19.135  0.00  0.00    +0.000 C 
BRANCH  13  14
ATOM     14  C   UNL     1       3.454   5.273  19.706  0.00  0.00    +0.000 C 
BRANCH  14  15
ATOM     15  C   UNL     1       3.212   3.798  19.277  0.00  0.00    +0.000 C 
ATOM     16  C   UNL     1       3.583   2.777  20.376  0.00  0.00    +0.000 C 
ATOM     17  C   UNL     1       2.626   2.843  21.561  0.00  0.00    +0.000 C 
ATOM     18  C   UNL     1       1.192   2.665  21.079  0.00  0.00    +0.000 C 
ATOM     19  C   UNL     1       0.845   3.608  19.923  0.00  0.00    +0.000 C 
ATOM     20  N   UNL     1       1.831   3.510  18.842  0.00  0.00    +0.000 NA
ATOM     21  C   UNL     1       1.433   4.292  17.674  0.00  0.00    +0.000 C 
ENDBRANCH  14  15
ENDBRANCH  13  14
ENDBRANCH   2  13
TORSDOF 10
ENDMDL
MODEL 4
REMARK VINA RESULT:      -6.5      1.593      2.903
REMARK  Name = 
REMARK  12 active torsions:
REMARK  status: ('A' for Active; 'I' for Inactive)
REMARK    1  A    between atoms: C_1  and  C_2
REMARK    2  A    between atoms: C_2  and  C_3
REMARK    3  A    between atoms: C_3  and  C_4
REMARK    4  A    between atoms: C_4  and  C_5
REMARK    5  A    between atoms: C_5  and  N_6
REMARK    6  A    between atoms: N_6  and  C_7
REMARK    7  A    between atoms: C_7  and  C_8
REMARK    8  A    between atoms: C_8  and  O_9
REMARK    9  A    between atoms: C_10  and  C_12
REMARK   10  A    between atoms: C_12  and  C_13
REMARK   11  A    between atoms: C_13  and  C_14
REMARK   12  A    between atoms: N_19  and  C_20
REMARK                            x       y       z     vdW  Elec       q    Type
REMARK                         _______ _______ _______ _____ _____    ______ ____
ROOT
ATOM      1  N   UNL     1       6.270   6.299  18.048  0.00  0.00    +0.000 N 
ATOM      2  C   UNL     1       4.972   6.403  17.534  0.00  0.00    +0.000 C 
ATOM      3  O   UNL     1       4.736   6.955  16.456  0.00  0.00    +0.000 OA
ENDROOT
BRANCH   1   4
ATOM      4  C   UNL     1       7.357   6.817  17.210  0.00  0.00    +0.000 C 
BRANCH   4   5
ATOM      5  C   UNL     1       7.669   8.311  17.315  0.00  0.00    +0.000 C 
BRANCH   5   6
ATOM      6  C   UNL     1       8.589   8.741  18.462  0.00  0.00    +0.000 C 
BRANCH   6   8
ATOM      7  C   UNL     1       9.688  10.819  19.465  0.00  0.00    +0.000 C 
ATOM      8  C   UNL     1       8.900  10.238  18.305  0.00  0.00    +0.000 C 
ENDBRANCH   6   8
ENDBRANCH   5   6
ENDBRANCH   4   5
ENDBRANCH   1   4
BRANCH   1   9
ATOM      9  C   UNL     1       6.555   5.598  19.314  0.00  0.00    +0.000 C 
BRANCH   9  10
ATOM     10  C   UNL     1       8.006   5.286  19.692  0.00  0.00    +0.000 C 
BRANCH  10  11
ATOM     11  O   UNL     1       8.203   5.330  21.099  0.00  0.00    +0.000 OA
ATOM     12  H   UNL     1       8.086   4.427  21.439  0.00  0.00    +0.000 HD
ENDBRANCH  10  11
ENDBRANCH   9  10
ENDBRANCH   1   9
BRANCH   2  13
ATOM     13  C   UNL     1       3.817   5.858  18.367  0.00  0.00    +0.000 C 
BRANCH  13  14
ATOM     14  C   UNL     1       3.572   4.371  18.103  0.00  0.00    +0.000 C 
BRANCH  14  15
ATOM     15  C   UNL     1       3.483   3.523  19.402  0.00  0.00    +0.000 C 
ATOM     16  C   UNL     1       2.740   4.245  20.549  0.00  0.00    +0.000 C 
ATOM     17  C   UNL     1       1.251   4.396  20.257  0.00  0.00    +0.000 C 
ATOM     18  C   UNL     1       0.642   3.032  19.953  0.00  0.00    +0.000 C 
ATOM     19  C   UNL     1       1.430   2.269  18.885  0.00  0.00    +0.000 C 
ATOM     20  N   UNL     1       2.855   2.199  19.223  0.00  0.00    +0.000 NA
ATOM     21  C   UNL     1       3.590   1.349  18.290  0.00  0.00    +0.000 C 
ENDBRANCH  14  15
ENDBRANCH  13  14
ENDBRANCH   2  13
TORSDOF 10
ENDMDL
MODEL 5
REMARK VINA RESULT:      -6.4      1.039      1.859
REMARK  Name = 
REMARK  12 active torsions:
REMARK  status: ('A' for Active; 'I' for Inactive)
REMARK    1  A    between atoms: C_1  and  C_2
REMARK    2  A    between atoms: C_2  and  C_3
REMARK    3  A    between atoms: C_3  and  C_4
REMARK    4  A    between atoms: C_4  and  C_5
REMARK    5  A    between atoms: C_5  and  N_6
REMARK    6  A    between atoms: N_6  and  C_7
REMARK    7  A    between atoms: C_7  and  C_8
REMARK    8  A    between atoms: C_8  and  O_9
REMARK    9  A    between atoms: C_10  and  C_12
REMARK   10  A    between atoms: C_12  and  C_13
REMARK   11  A    between atoms: C_13  and  C_14
REMARK   12  A    between atoms: N_19  and  C_20
REMARK                            x       y       z     vdW  Elec       q    Type
REMARK                         _______ _______ _______ _____ _____    ______ ____
ROOT
ATOM      1  N   UNL     1       6.919   5.983  17.722  0.00  0.00    +0.000 N 
ATOM      2  C   UNL     1       6.277   5.229  18.712  0.00  0.00    +0.000 C 
ATOM      3  O   UNL     1       6.629   5.264  19.894  0.00  0.00    +0.000 OA
ENDROOT
BRANCH   1   4
ATOM      4  C   UNL     1       7.993   6.878  18.164  0.00  0.00    +0.000 C 
BRANCH   4   5
ATOM      5  C   UNL     1       7.853   8.362  17.819  0.00  0.00    +0.000 C 
BRANCH   5   6
ATOM      6  C   UNL     1       8.676   9.343  18.659  0.00  0.00    +0.000 C 
BRANCH   6   8
ATOM      7  C   UNL     1      10.094  11.399  18.116  0.00  0.00    +0.000 C 
ATOM      8  C   UNL     1       8.779  10.673  17.897  0.00  0.00    +0.000 C 
ENDBRANCH   6   8
ENDBRANCH   5   6
ENDBRANCH   4   5
ENDBRANCH   1   4
BRANCH   1   9
ATOM      9  C   UNL     1       6.466   5.975  16.318  0.00  0.00    +0.000 C 
BRANCH   9  10
ATOM     10  C   UNL     1       7.052   4.949  15.344  0.00  0.00    +0.000 C 
BRANCH  10  11
ATOM     11  O   UNL     1       7.791   5.574  14.303  0.00  0.00    +0.000 OA
ATOM     12  H   UNL     1       7.308   5.428  13.472  0.00  0.00    +0.000 HD
ENDBRANCH  10  11
ENDBRANCH   9  10
ENDBRANCH   1   9
BRANCH   2  13
ATOM     13  C   UNL     1       5.141   4.301  18.294  0.00  0.00    +0.000 C 
BRANCH  13  14
ATOM     14  C   UNL     1       4.046   4.221  19.359  0.00  0.00    +0.000 C 
BRANCH  14  15
ATOM     15  C   UNL     1       3.577   2.767  19.648  0.00  0.00    +0.000 C 
ATOM     16  C   UNL     1       3.356   2.488  21.152  0.00  0.00    +0.000 C 
ATOM     17  C   UNL     1       2.150   3.244  21.700  0.00  0.00    +0.000 C 
ATOM     18  C   UNL     1       0.914   2.917  20.872  0.00  0.00    +0.000 C 
ATOM     19  C   UNL     1       1.155   3.098  19.370  0.00  0.00    +0.000 C 
ATOM     20  N   UNL     1       2.349   2.370  18.931  0.00  0.00    +0.000 NA
ATOM     21  C   UNL     1       2.505   2.414  17.479  0.00  0.00    +0.000 C 
ENDBRANCH  14  15
ENDBRANCH  13  14
ENDBRANCH   2  13
TORSDOF 10
ENDMDL
MODEL 6
REMARK VINA RESULT:      -6.3      2.671      4.609
REMARK  Name = 
REMARK  12 active torsions:
REMARK  status: ('A' for Active; 'I' for Inactive)
REMARK    1  A    between atoms: C_1  and  C_2
REMARK    2  A    between atoms: C_2  and  C_3
REMARK    3  A    between atoms: C_3  and  C_4
REMARK    4  A    between atoms: C_4  and  C_5
REMARK    5  A    between atoms: C_5  and  N_6
REMARK    6  A    between atoms: N_6  and  C_7
REMARK    7  A    between atoms: C_7  and  C_8
REMARK    8  A    between atoms: C_8  and  O_9
REMARK    9  A    between atoms: C_10  and  C_12
REMARK   10  A    between atoms: C_12  and  C_13
REMARK   11  A    between atoms: C_13  and  C_14
REMARK   12  A    between atoms: N_19  and  C_20
REMARK                            x       y       z     vdW  Elec       q    Type
REMARK                         _______ _______ _______ _____ _____    ______ ____
ROOT
ATOM      1  N   UNL     1       5.982   5.729  17.444  0.00  0.00    +0.000 N 
ATOM      2  C   UNL     1       4.755   6.217  17.911  0.00  0.00    +0.000 C 
ATOM      3  O   UNL     1       3.998   6.879  17.197  0.00  0.00    +0.000 OA
ENDROOT
BRANCH   1   4
ATOM      4  C   UNL     1       6.301   5.983  16.036  0.00  0.00    +0.000 C 
BRANCH   4   5
ATOM      5  C   UNL     1       5.529   5.178  14.988  0.00  0.00    +0.000 C 
BRANCH   5   6
ATOM      6  C   UNL     1       6.176   3.874  14.510  0.00  0.00    +0.000 C 
BRANCH   6   8
ATOM      7  C   UNL     1       5.683   3.102  12.125  0.00  0.00    +0.000 C 
ATOM      8  C   UNL     1       6.508   4.011  13.016  0.00  0.00    +0.000 C 
ENDBRANCH   6   8
ENDBRANCH   5   6
ENDBRANCH   4   5
ENDBRANCH   1   4
BRANCH   1   9
ATOM      9  C   UNL     1       6.864   4.898  18.286  0.00  0.00    +0.000 C 
BRANCH   9  10
ATOM     10  C   UNL     1       8.026   5.555  19.036  0.00  0.00    +0.000 C 
BRANCH  10  11
ATOM     11  O   UNL     1       7.868   5.448  20.445  0.00  0.00    +0.000 OA
ATOM     12  H   UNL     1       7.170   4.792  20.613  0.00  0.00    +0.000 HD
ENDBRANCH  10  11
ENDBRANCH   9  10
ENDBRANCH   1   9
BRANCH   2  13
ATOM     13  C   UNL     1       4.379   5.956  19.366  0.00  0.00    +0.000 C 
BRANCH  13  14
ATOM     14  C   UNL     1       3.068   5.177  19.487  0.00  0.00    +0.000 C 
BRANCH  14  15
ATOM     15  C   UNL     1       3.274   3.639  19.584  0.00  0.00    +0.000 C 
ATOM     16  C   UNL     1       2.741   3.036  20.903  0.00  0.00    +0.000 C 
ATOM     17  C   UNL     1       1.219   3.080  20.976  0.00  0.00    +0.000 C 
ATOM     18  C   UNL     1       0.623   2.393  19.754  0.00  0.00    +0.000 C 
ATOM     19  C   UNL     1       1.217   2.918  18.443  0.00  0.00    +0.000 C 
ATOM     20  N   UNL     1       2.682   2.875  18.468  0.00  0.00    +0.000 NA
ATOM     21  C   UNL     1       3.255   3.232  17.173  0.00  0.00    +0.000 C 
ENDBRANCH  14  15
ENDBRANCH  13  14
ENDBRANCH   2  13
TORSDOF 10
ENDMDL
MODEL 7
REMARK VINA RESULT:      -6.2      2.425      4.889
REMARK  Name = 
REMARK  12 active torsions:
REMARK  status: ('A' for Active; 'I' for Inactive)
REMARK    1  A    between atoms: C_1  and  C_2
REMARK    2  A    between atoms: C_2  and  C_3
REMARK    3  A    between atoms: C_3  and  C_4
REMARK    4  A    between atoms: C_4  and  C_5
REMARK    5  A    between atoms: C_5  and  N_6
REMARK    6  A    between atoms: N_6  and  C_7
REMARK    7  A    between atoms: C_7  and  C_8
REMARK    8  A    between atoms: C_8  and  O_9
REMARK    9  A    between atoms: C_10  and  C_12
REMARK   10  A    between atoms: C_12  and  C_13
REMARK   11  A    between atoms: C_13  and  C_14
REMARK   12  A    between atoms: N_19  and  C_20
REMARK                            x       y       z     vdW  Elec       q    Type
REMARK                         _______ _______ _______ _____ _____    ______ ____
ROOT
ATOM      1  N   UNL     1       6.304   5.307  16.303  0.00  0.00    +0.000 N 
ATOM      2  C   UNL     1       4.992   4.860  16.500  0.00  0.00    +0.000 C 
ATOM      3  O   UNL     1       4.533   3.889  15.894  0.00  0.00    +0.000 OA
ENDROOT
BRANCH   1   4
ATOM      4  C   UNL     1       7.141   4.522  15.390  0.00  0.00    +0.000 C 
BRANCH   4   5
ATOM      5  C   UNL     1       6.956   4.763  13.891  0.00  0.00    +0.000 C 
BRANCH   5   6
ATOM      6  C   UNL     1       6.216   3.675  13.107  0.00  0.00    +0.000 C 
BRANCH   6   8
ATOM      7  C   UNL     1       7.162   2.162  11.277  0.00  0.00    +0.000 C 
ATOM      8  C   UNL     1       6.829   3.580  11.701  0.00  0.00    +0.000 C 
ENDBRANCH   6   8
ENDBRANCH   5   6
ENDBRANCH   4   5
ENDBRANCH   1   4
BRANCH   1   9
ATOM      9  C   UNL     1       6.866   6.440  17.064  0.00  0.00    +0.000 C 
BRANCH   9  10
ATOM     10  C   UNL     1       7.562   6.176  18.402  0.00  0.00    +0.000 C 
BRANCH  10  11
ATOM     11  O   UNL     1       7.763   4.787  18.625  0.00  0.00    +0.000 OA
ATOM     12  H   UNL     1       8.328   4.454  17.908  0.00  0.00    +0.000 HD
ENDBRANCH  10  11
ENDBRANCH   9  10
ENDBRANCH   1   9
BRANCH   2  13
ATOM     13  C   UNL     1       4.097   5.640  17.458  0.00  0.00    +0.000 C 
BRANCH  13  14
ATOM     14  C   UNL     1       2.921   4.798  17.955  0.00  0.00    +0.000 C 
BRANCH  14  15
ATOM     15  C   UNL     1       3.245   3.990  19.243  0.00  0.00    +0.000 C 
ATOM     16  C   UNL     1       2.712   4.659  20.530  0.00  0.00    +0.000 C 
ATOM     17  C   UNL     1       1.189   4.623  20.600  0.00  0.00    +0.000 C 
ATOM     18  C   UNL     1       0.697   3.188  20.458  0.00  0.00    +0.000 C 
ATOM     19  C   UNL     1       1.298   2.486  19.237  0.00  0.00    +0.000 C 
ATOM     20  N   UNL     1       2.760   2.596  19.225  0.00  0.00    +0.000 NA
ATOM     21  C   UNL     1       3.353   1.806  18.149  0.00  0.00    +0.000 C 
ENDBRANCH  14  15
ENDBRANCH  13  14
ENDBRANCH   2  13
TORSDOF 10
ENDMDL
MODEL 8
REMARK VINA RESULT:      -6.2      2.308      4.616
REMARK  Name = 
REMARK  12 active torsions:
REMARK  status: ('A' for Active; 'I' for Inactive)
REMARK    1  A    between atoms: C_1  and  C_2
REMARK    2  A    between atoms: C_2  and  C_3
REMARK    3  A    between atoms: C_3  and  C_4
REMARK    4  A    between atoms: C_4  and  C_5
REMARK    5  A    between atoms: C_5  and  N_6
REMARK    6  A    between atoms: N_6  and  C_7
REMARK    7  A    between atoms: C_7  and  C_8
REMARK    8  A    between atoms: C_8  and  O_9
REMARK    9  A    between atoms: C_10  and  C_12
REMARK   10  A    between atoms: C_12  and  C_13
REMARK   11  A    between atoms: C_13  and  C_14
REMARK   12  A    between atoms: N_19  and  C_20
REMARK                            x       y       z     vdW  Elec       q    Type
REMARK                         _______ _______ _______ _____ _____    ______ ____
ROOT
ATOM      1  N   UNL     1       6.364   5.383  16.588  0.00  0.00    +0.000 N 
ATOM      2  C   UNL     1       5.067   5.018  16.969  0.00  0.00    +0.000 C 
ATOM      3  O   UNL     1       4.496   4.034  16.493  0.00  0.00    +0.000 OA
ENDROOT
BRANCH   1   4
ATOM      4  C   UNL     1       7.049   4.497  15.641  0.00  0.00    +0.000 C 
BRANCH   4   5
ATOM      5  C   UNL     1       6.722   4.674  14.157  0.00  0.00    +0.000 C 
BRANCH   5   6
ATOM      6  C   UNL     1       5.572   3.827  13.602  0.00  0.00    +0.000 C 
BRANCH   6   8
ATOM      7  C   UNL     1       4.769   2.967  11.334  0.00  0.00    +0.000 C 
ATOM      8  C   UNL     1       5.960   3.333  12.200  0.00  0.00    +0.000 C 
ENDBRANCH   6   8
ENDBRANCH   5   6
ENDBRANCH   4   5
ENDBRANCH   1   4
BRANCH   1   9
ATOM      9  C   UNL     1       7.063   6.533  17.194  0.00  0.00    +0.000 C 
BRANCH   9  10
ATOM     10  C   UNL     1       7.742   6.367  18.557  0.00  0.00    +0.000 C 
BRANCH  10  11
ATOM     11  O   UNL     1       7.901   4.997  18.902  0.00  0.00    +0.000 OA
ATOM     12  H   UNL     1       7.724   4.472  18.103  0.00  0.00    +0.000 HD
ENDBRANCH  10  11
ENDBRANCH   9  10
ENDBRANCH   1   9
BRANCH   2  13
ATOM     13  C   UNL     1       4.330   5.904  17.968  0.00  0.00    +0.000 C 
BRANCH  13  14
ATOM     14  C   UNL     1       3.759   5.097  19.136  0.00  0.00    +0.000 C 
BRANCH  14  15
ATOM     15  C   UNL     1       2.217   4.913  19.058  0.00  0.00    +0.000 C 
ATOM     16  C   UNL     1       1.797   3.528  18.518  0.00  0.00    +0.000 C 
ATOM     17  C   UNL     1       2.124   2.410  19.501  0.00  0.00    +0.000 C 
ATOM     18  C   UNL     1       1.491   2.708  20.854  0.00  0.00    +0.000 C 
ATOM     19  C   UNL     1       1.824   4.117  21.353  0.00  0.00    +0.000 C 
ATOM     20  N   UNL     1       1.513   5.129  20.339  0.00  0.00    +0.000 NA
ATOM     21  C   UNL     1       1.687   6.484  20.855  0.00  0.00    +0.000 C 
ENDBRANCH  14  15
ENDBRANCH  13  14
ENDBRANCH   2  13
TORSDOF 10
ENDMDL
MODEL 9
REMARK VINA RESULT:      -6.1      2.750      4.209
REMARK  Name = 
REMARK  12 active torsions:
REMARK  status: ('A' for Active; 'I' for Inactive)
REMARK    1  A    between atoms: C_1  and  C_2
REMARK    2  A    between atoms: C_2  and  C_3
REMARK    3  A    between atoms: C_3  and  C_4
REMARK    4  A    between atoms: C_4  and  C_5
REMARK    5  A    between atoms: C_5  and  N_6
REMARK    6  A    between atoms: N_6  and  C_7
REMARK    7  A    between atoms: C_7  and  C_8
REMARK    8  A    between atoms: C_8  and  O_9
REMARK    9  A    between atoms: C_10  and  C_12
REMARK   10  A    between atoms: C_12  and  C_13
REMARK   11  A    between atoms: C_13  and  C_14
REMARK   12  A    between atoms: N_19  and  C_20
REMARK                            x       y       z     vdW  Elec       q    Type
REMARK                         _______ _______ _______ _____ _____    ______ ____
ROOT
ATOM      1  N   UNL     1       4.801   6.346  17.943  0.00  0.00    +0.000 N 
ATOM      2  C   UNL     1       3.534   6.875  18.219  0.00  0.00    +0.000 C 
ATOM      3  O   UNL     1       2.948   7.619  17.428  0.00  0.00    +0.000 OA
ENDROOT
BRANCH   1   4
ATOM      4  C   UNL     1       5.379   6.662  16.633  0.00  0.00    +0.000 C 
BRANCH   4   5
ATOM      5  C   UNL     1       5.168   5.642  15.512  0.00  0.00    +0.000 C 
BRANCH   5   6
ATOM      6  C   UNL     1       6.430   5.045  14.881  0.00  0.00    +0.000 C 
BRANCH   6   8
ATOM      7  C   UNL     1       6.507   3.776  12.664  0.00  0.00    +0.000 C 
ATOM      8  C   UNL     1       6.038   3.777  14.107  0.00  0.00    +0.000 C 
ENDBRANCH   6   8
ENDBRANCH   5   6
ENDBRANCH   4   5
ENDBRANCH   1   4
BRANCH   1   9
ATOM      9  C   UNL     1       5.479   5.419  18.869  0.00  0.00    +0.000 C 
BRANCH   9  10
ATOM     10  C   UNL     1       7.009   5.382  18.911  0.00  0.00    +0.000 C 
BRANCH  10  11
ATOM     11  O   UNL     1       7.529   4.290  18.164  0.00  0.00    +0.000 OA
ATOM     12  H   UNL     1       7.916   4.651  17.348  0.00  0.00    +0.000 HD
ENDBRANCH  10  11
ENDBRANCH   9  10
ENDBRANCH   1   9
BRANCH   2  13
ATOM     13  C   UNL     1       2.891   6.552  19.564  0.00  0.00    +0.000 C 
BRANCH  13  14
ATOM     14  C   UNL     1       2.889   5.049  19.851  0.00  0.00    +0.000 C 
BRANCH  14  15
ATOM     15  C   UNL     1       1.636   4.320  19.292  0.00  0.00    +0.000 C 
ATOM     16  C   UNL     1       1.590   4.288  17.748  0.00  0.00    +0.000 C 
ATOM     17  C   UNL     1       2.673   3.388  17.164  0.00  0.00    +0.000 C 
ATOM     18  C   UNL     1       2.566   1.992  17.765  0.00  0.00    +0.000 C 
ATOM     19  C   UNL     1       2.514   2.021  19.296  0.00  0.00    +0.000 C 
ATOM     20  N   UNL     1       1.472   2.934  19.775  0.00  0.00    +0.000 NA
ATOM     21  C   UNL     1       1.313   2.859  21.225  0.00  0.00    +0.000 C 
ENDBRANCH  14  15
ENDBRANCH  13  14
ENDBRANCH   2  13
TORSDOF 10
ENDMDL
