MODEL 1
REMARK VINA RESULT:      -7.6      0.000      0.000
REMARK  Name = 
REMARK  6 active torsions:
REMARK  status: ('A' for Active; 'I' for Inactive)
REMARK    1  A    between atoms: C_4  and  C_5
REMARK    2  A    between atoms: C_11  and  C_12
REMARK    3  A    between atoms: N_14  and  C_15
REMARK    4  A    between atoms: C_20  and  O_21
REMARK    5  A    between atoms: O_21  and  C_22
REMARK    6  A    between atoms: C_22  and  C_23
REMARK                            x       y       z     vdW  Elec       q    Type
REMARK                         _______ _______ _______ _____ _____    ______ ____
ROOT
ATOM      1  C   UNL     1       5.507   2.486  11.797  0.00  0.00    +0.000 C 
ATOM      2  C   UNL     1       5.963   3.360  12.698  0.00  0.00    +0.000 C 
ATOM      3  C   UNL     1       7.058   4.262  12.328  0.00  0.00    +0.000 C 
ATOM      4  C   UNL     1       7.580   5.119  13.233  0.00  0.00    +0.000 C 
ATOM      5  N   UNL     1       7.068   5.146  14.537  0.00  0.00    +0.000 N 
ATOM      6  N   UNL     1       7.504   5.880  15.593  0.00  0.00    +0.000 NA
ATOM      7  C   UNL     1       6.664   5.581  16.582  0.00  0.00    +0.000 A 
ATOM      8  C   UNL     1       5.661   4.652  16.228  0.00  0.00    +0.000 A 
ATOM      9  C   UNL     1       5.982   4.342  14.916  0.00  0.00    +0.000 A 
ATOM     10  N   UNL     1       5.465   3.481  13.992  0.00  0.00    +0.000 N 
ATOM     11  H   UNL     1       4.716   2.839  14.246  0.00  0.00    +0.000 HD
ENDROOT
BRANCH   8  12
ATOM     12  C   UNL     1       4.589   4.104  17.055  0.00  0.00    +0.000 C 
ATOM     13  O   UNL     1       3.689   3.423  16.580  0.00  0.00    +0.000 OA
ATOM     14  N   UNL     1       4.687   4.465  18.404  0.00  0.00    +0.000 N 
ATOM     15  H   UNL     1       4.969   5.432  18.516  0.00  0.00    +0.000 HD
BRANCH  14  16
ATOM     16  C   UNL     1       3.727   4.027  19.353  0.00  0.00    +0.000 A 
ATOM     17  C   UNL     1       4.018   2.879  20.106  0.00  0.00    +0.000 A 
ATOM     18  C   UNL     1       3.112   2.403  21.059  0.00  0.00    +0.000 A 
ATOM     19  C   UNL     1       1.903   3.059  21.260  0.00  0.00    +0.000 A 
ATOM     20  C   UNL     1       1.589   4.181  20.490  0.00  0.00    +0.000 A 
ATOM     21  C   UNL     1       2.479   4.661  19.515  0.00  0.00    +0.000 A 
BRANCH  21  22
ATOM     22  O   UNL     1       1.995   5.739  18.812  0.00  0.00    +0.000 OA
BRANCH  22  23
ATOM     23  C   UNL     1       2.394   7.022  19.291  0.00  0.00    +0.000 C 
ATOM     24  C   UNL     1       2.607   7.961  18.116  0.00  0.00    +0.000 C 
ENDBRANCH  22  23
ENDBRANCH  21  22
ENDBRANCH  14  16
ENDBRANCH   8  12
BRANCH   4  25
ATOM     25  C   UNL     1       8.692   6.059  12.931  0.00  0.00    +0.000 C 
ATOM     26  F   UNL     1       9.892   5.410  12.868  0.00  0.00    +0.000 F 
ATOM     27  F   UNL     1       8.537   6.636  11.706  0.00  0.00    +0.000 F 
ENDBRANCH   4  25
TORSDOF 5
ENDMDL
MODEL 2
REMARK VINA RESULT:      -7.4      6.224      9.445
REMARK  Name = 
REMARK  6 active torsions:
REMARK  status: ('A' for Active; 'I' for Inactive)
REMARK    1  A    between atoms: C_4  and  C_5
REMARK    2  A    between atoms: C_11  and  C_12
REMARK    3  A    between atoms: N_14  and  C_15
REMARK    4  A    between atoms: C_20  and  O_21
REMARK    5  A    between atoms: O_21  and  C_22
REMARK    6  A    between atoms: C_22  and  C_23
REMARK                            x       y       z     vdW  Elec       q    Type
REMARK                         _______ _______ _______ _____ _____    ______ ____
ROOT
ATOM      1  C   UNL     1      -1.724  11.738  18.008  0.00  0.00    +0.000 C 
ATOM      2  C   UNL     1      -1.156  11.221  19.099  0.00  0.00    +0.000 C 
ATOM      3  C   UNL     1      -1.514  11.760  20.415  0.00  0.00    +0.000 C 
ATOM      4  C   UNL     1      -0.915  11.299  21.535  0.00  0.00    +0.000 C 
ATOM      5  N   UNL     1       0.055  10.292  21.437  0.00  0.00    +0.000 N 
ATOM      6  N   UNL     1       0.809   9.755  22.431  0.00  0.00    +0.000 NA
ATOM      7  C   UNL     1       1.538   8.815  21.832  0.00  0.00    +0.000 A 
ATOM      8  C   UNL     1       1.304   8.699  20.445  0.00  0.00    +0.000 A 
ATOM      9  C   UNL     1       0.384   9.707  20.204  0.00  0.00    +0.000 A 
ATOM     10  N   UNL     1      -0.228  10.183  19.082  0.00  0.00    +0.000 N 
ATOM     11  H   UNL     1       0.027   9.826  18.162  0.00  0.00    +0.000 HD
ENDROOT
BRANCH   8  12
ATOM     12  C   UNL     1       1.924   7.787  19.486  0.00  0.00    +0.000 C 
ATOM     13  O   UNL     1       1.932   8.019  18.284  0.00  0.00    +0.000 OA
ATOM     14  N   UNL     1       2.459   6.637  20.078  0.00  0.00    +0.000 N 
ATOM     15  H   UNL     1       1.855   6.272  20.807  0.00  0.00    +0.000 HD
BRANCH  14  16
ATOM     16  C   UNL     1       3.095   5.636  19.297  0.00  0.00    +0.000 A 
ATOM     17  C   UNL     1       4.380   5.903  18.803  0.00  0.00    +0.000 A 
ATOM     18  C   UNL     1       5.057   4.953  18.031  0.00  0.00    +0.000 A 
ATOM     19  C   UNL     1       4.453   3.736  17.735  0.00  0.00    +0.000 A 
ATOM     20  C   UNL     1       3.160   3.477  18.193  0.00  0.00    +0.000 A 
ATOM     21  C   UNL     1       2.458   4.427  18.952  0.00  0.00    +0.000 A 
BRANCH  21  22
ATOM     22  O   UNL     1       1.180   4.037  19.277  0.00  0.00    +0.000 OA
BRANCH  22  23
ATOM     23  C   UNL     1       1.067   2.787  19.956  0.00  0.00    +0.000 C 
ATOM     24  C   UNL     1       1.407   2.972  21.424  0.00  0.00    +0.000 C 
ENDBRANCH  22  23
ENDBRANCH  21  22
ENDBRANCH  14  16
ENDBRANCH   8  12
BRANCH   4  25
ATOM     25  C   UNL     1      -1.223  11.801  22.901  0.00  0.00    +0.000 C 
ATOM     26  F   UNL     1      -1.947  12.958  22.856  0.00  0.00    +0.000 F 
ATOM     27  F   UNL     1      -2.003  10.920  23.590  0.00  0.00    +0.000 F 
ENDBRANCH   4  25
TORSDOF 5
ENDMDL
MODEL 3
REMARK VINA RESULT:      -7.3      5.296      8.394
REMARK  Name = 
REMARK  6 active torsions:
REMARK  status: ('A' for Active; 'I' for Inactive)
REMARK    1  A    between atoms: C_4  and  C_5
REMARK    2  A    between atoms: C_11  and  C_12
REMARK    3  A    between atoms: N_14  and  C_15
REMARK    4  A    between atoms: C_20  and  O_21
REMARK    5  A    between atoms: O_21  and  C_22
REMARK    6  A    between atoms: C_22  and  C_23
REMARK                            x       y       z     vdW  Elec       q    Type
REMARK                         _______ _______ _______ _____ _____    ______ ____
ROOT
ATOM      1  C   UNL     1      -0.452   9.870  23.063  0.00  0.00    +0.000 C 
ATOM      2  C   UNL     1       0.125  10.004  21.867  0.00  0.00    +0.000 C 
ATOM      3  C   UNL     1       0.149  11.324  21.229  0.00  0.00    +0.000 C 
ATOM      4  C   UNL     1       0.675  11.483  19.994  0.00  0.00    +0.000 C 
ATOM      5  N   UNL     1       1.205  10.375  19.319  0.00  0.00    +0.000 N 
ATOM      6  N   UNL     1       1.706  10.323  18.058  0.00  0.00    +0.000 NA
ATOM      7  C   UNL     1       2.116   9.065  17.908  0.00  0.00    +0.000 A 
ATOM      8  C   UNL     1       1.901   8.249  19.040  0.00  0.00    +0.000 A 
ATOM      9  C   UNL     1       1.255   9.106  19.917  0.00  0.00    +0.000 A 
ATOM     10  N   UNL     1       0.720   8.960  21.163  0.00  0.00    +0.000 N 
ATOM     11  H   UNL     1       0.684   8.043  21.606  0.00  0.00    +0.000 HD
ENDROOT
BRANCH   8  12
ATOM     12  C   UNL     1       2.221   6.835  19.222  0.00  0.00    +0.000 C 
ATOM     13  O   UNL     1       2.387   6.347  20.332  0.00  0.00    +0.000 OA
ATOM     14  N   UNL     1       2.345   6.133  18.017  0.00  0.00    +0.000 N 
ATOM     15  H   UNL     1       2.832   6.676  17.313  0.00  0.00    +0.000 HD
BRANCH  14  16
ATOM     16  C   UNL     1       2.658   4.749  18.002  0.00  0.00    +0.000 A 
ATOM     17  C   UNL     1       1.603   3.831  18.108  0.00  0.00    +0.000 A 
ATOM     18  C   UNL     1       1.851   2.455  18.095  0.00  0.00    +0.000 A 
ATOM     19  C   UNL     1       3.154   1.983  17.989  0.00  0.00    +0.000 A 
ATOM     20  C   UNL     1       4.214   2.889  17.919  0.00  0.00    +0.000 A 
ATOM     21  C   UNL     1       3.984   4.274  17.951  0.00  0.00    +0.000 A 
BRANCH  21  22
ATOM     22  O   UNL     1       5.137   5.023  17.927  0.00  0.00    +0.000 OA
BRANCH  22  23
ATOM     23  C   UNL     1       5.759   5.247  19.192  0.00  0.00    +0.000 C 
ATOM     24  C   UNL     1       7.205   5.659  18.984  0.00  0.00    +0.000 C 
ENDBRANCH  22  23
ENDBRANCH  21  22
ENDBRANCH  14  16
ENDBRANCH   8  12
BRANCH   4  25
ATOM     25  C   UNL     1       0.729  12.789  19.284  0.00  0.00    +0.000 C 
ATOM     26  F   UNL     1      -0.378  13.545  19.542  0.00  0.00    +0.000 F 
ATOM     27  F   UNL     1       1.782  13.543  19.710  0.00  0.00    +0.000 F 
ENDBRANCH   4  25
TORSDOF 5
ENDMDL
MODEL 4
REMARK VINA RESULT:      -7.2      5.079      8.363
REMARK  Name = 
REMARK  6 active torsions:
REMARK  status: ('A' for Active; 'I' for Inactive)
REMARK    1  A    between atoms: C_4  and  C_5
REMARK    2  A    between atoms: C_11  and  C_12
REMARK    3  A    between atoms: N_14  and  C_15
REMARK    4  A    between atoms: C_20  and  O_21
REMARK    5  A    between atoms: O_21  and  C_22
REMARK    6  A    between atoms: C_22  and  C_23
REMARK                            x       y       z     vdW  Elec       q    Type
REMARK                         _______ _______ _______ _____ _____    ______ ____
ROOT
ATOM      1  C   UNL     1      -0.326   9.664  23.014  0.00  0.00    +0.000 C 
ATOM      2  C   UNL     1       0.211   9.823  21.803  0.00  0.00    +0.000 C 
ATOM      3  C   UNL     1       0.157  11.141  21.164  0.00  0.00    +0.000 C 
ATOM      4  C   UNL     1       0.641  11.323  19.915  0.00  0.00    +0.000 C 
ATOM      5  N   UNL     1       1.202  10.239  19.227  0.00  0.00    +0.000 N 
ATOM      6  N   UNL     1       1.671  10.209  17.952  0.00  0.00    +0.000 NA
ATOM      7  C   UNL     1       2.134   8.971  17.792  0.00  0.00    +0.000 A 
ATOM      8  C   UNL     1       1.988   8.147  18.929  0.00  0.00    +0.000 A 
ATOM      9  C   UNL     1       1.328   8.975  19.823  0.00  0.00    +0.000 A 
ATOM     10  N   UNL     1       0.834   8.806  21.083  0.00  0.00    +0.000 N 
ATOM     11  H   UNL     1       0.852   7.889  21.528  0.00  0.00    +0.000 HD
ENDROOT
BRANCH   8  12
ATOM     12  C   UNL     1       2.377   6.749  19.102  0.00  0.00    +0.000 C 
ATOM     13  O   UNL     1       2.857   6.336  20.150  0.00  0.00    +0.000 OA
ATOM     14  N   UNL     1       2.176   5.970  17.957  0.00  0.00    +0.000 N 
ATOM     15  H   UNL     1       2.435   6.467  17.113  0.00  0.00    +0.000 HD
BRANCH  14  16
ATOM     16  C   UNL     1       2.503   4.589  17.942  0.00  0.00    +0.000 A 
ATOM     17  C   UNL     1       1.519   3.672  18.337  0.00  0.00    +0.000 A 
ATOM     18  C   UNL     1       1.783   2.299  18.337  0.00  0.00    +0.000 A 
ATOM     19  C   UNL     1       3.035   1.829  17.957  0.00  0.00    +0.000 A 
ATOM     20  C   UNL     1       4.033   2.737  17.597  0.00  0.00    +0.000 A 
ATOM     21  C   UNL     1       3.791   4.120  17.610  0.00  0.00    +0.000 A 
BRANCH  21  22
ATOM     22  O   UNL     1       4.893   4.875  17.281  0.00  0.00    +0.000 OA
BRANCH  22  23
ATOM     23  C   UNL     1       5.346   4.755  15.933  0.00  0.00    +0.000 C 
ATOM     24  C   UNL     1       6.859   4.875  15.892  0.00  0.00    +0.000 C 
ENDBRANCH  22  23
ENDBRANCH  21  22
ENDBRANCH  14  16
ENDBRANCH   8  12
BRANCH   4  25
ATOM     25  C   UNL     1       0.616  12.628  19.204  0.00  0.00    +0.000 C 
ATOM     26  F   UNL     1      -0.625  12.901  18.703  0.00  0.00    +0.000 F 
ATOM     27  F   UNL     1       0.892  13.661  20.049  0.00  0.00    +0.000 F 
ENDBRANCH   4  25
TORSDOF 5
ENDMDL
MODEL 5
REMARK VINA RESULT:      -7.1      3.870      7.862
REMARK  Name = 
REMARK  6 active torsions:
REMARK  status: ('A' for Active; 'I' for Inactive)
REMARK    1  A    between atoms: C_4  and  C_5
REMARK    2  A    between atoms: C_11  and  C_12
REMARK    3  A    between atoms: N_14  and  C_15
REMARK    4  A    between atoms: C_20  and  O_21
REMARK    5  A    between atoms: O_21  and  C_22
REMARK    6  A    between atoms: C_22  and  C_23
REMARK                            x       y       z     vdW  Elec       q    Type
REMARK                         _______ _______ _______ _____ _____    ______ ____
ROOT
ATOM      1  C   UNL     1       1.875   7.913  20.115  0.00  0.00    +0.000 C 
ATOM      2  C   UNL     1       2.156   6.627  19.891  0.00  0.00    +0.000 C 
ATOM      3  C   UNL     1       1.644   5.612  20.816  0.00  0.00    +0.000 C 
ATOM      4  C   UNL     1       1.957   4.307  20.650  0.00  0.00    +0.000 C 
ATOM      5  N   UNL     1       2.777   3.924  19.580  0.00  0.00    +0.000 N 
ATOM      6  N   UNL     1       3.254   2.684  19.293  0.00  0.00    +0.000 NA
ATOM      7  C   UNL     1       3.941   2.840  18.163  0.00  0.00    +0.000 A 
ATOM      8  C   UNL     1       3.950   4.163  17.670  0.00  0.00    +0.000 A 
ATOM      9  C   UNL     1       3.240   4.855  18.638  0.00  0.00    +0.000 A 
ATOM     10  N   UNL     1       2.917   6.168  18.819  0.00  0.00    +0.000 N 
ATOM     11  H   UNL     1       3.283   6.882  18.191  0.00  0.00    +0.000 HD
ENDROOT
BRANCH   8  12
ATOM     12  C   UNL     1       4.600   4.688  16.471  0.00  0.00    +0.000 C 
ATOM     13  O   UNL     1       4.474   5.856  16.125  0.00  0.00    +0.000 OA
ATOM     14  N   UNL     1       5.331   3.724  15.767  0.00  0.00    +0.000 N 
ATOM     15  H   UNL     1       4.846   2.834  15.732  0.00  0.00    +0.000 HD
BRANCH  14  16
ATOM     16  C   UNL     1       6.024   4.054  14.573  0.00  0.00    +0.000 A 
ATOM     17  C   UNL     1       5.637   3.415  13.387  0.00  0.00    +0.000 A 
ATOM     18  C   UNL     1       6.281   3.704  12.179  0.00  0.00    +0.000 A 
ATOM     19  C   UNL     1       7.324   4.622  12.147  0.00  0.00    +0.000 A 
ATOM     20  C   UNL     1       7.740   5.236  13.330  0.00  0.00    +0.000 A 
ATOM     21  C   UNL     1       7.118   4.943  14.555  0.00  0.00    +0.000 A 
BRANCH  21  22
ATOM     22  O   UNL     1       7.682   5.592  15.628  0.00  0.00    +0.000 OA
BRANCH  22  23
ATOM     23  C   UNL     1       7.730   4.851  16.846  0.00  0.00    +0.000 C 
ATOM     24  C   UNL     1       7.552   5.793  18.024  0.00  0.00    +0.000 C 
ENDBRANCH  22  23
ENDBRANCH  21  22
ENDBRANCH  14  16
ENDBRANCH   8  12
BRANCH   4  25
ATOM     25  C   UNL     1       1.478   3.224  21.549  0.00  0.00    +0.000 C 
ATOM     26  F   UNL     1       0.624   2.378  20.901  0.00  0.00    +0.000 F 
ATOM     27  F   UNL     1       2.508   2.436  21.970  0.00  0.00    +0.000 F 
ENDBRANCH   4  25
TORSDOF 5
ENDMDL
MODEL 6
REMARK VINA RESULT:      -7.1      6.129      9.287
REMARK  Name = 
REMARK  6 active torsions:
REMARK  status: ('A' for Active; 'I' for Inactive)
REMARK    1  A    between atoms: C_4  and  C_5
REMARK    2  A    between atoms: C_11  and  C_12
REMARK    3  A    between atoms: N_14  and  C_15
REMARK    4  A    between atoms: C_20  and  O_21
REMARK    5  A    between atoms: O_21  and  C_22
REMARK    6  A    between atoms: C_22  and  C_23
REMARK                            x       y       z     vdW  Elec       q    Type
REMARK                         _______ _______ _______ _____ _____    ______ ____
ROOT
ATOM      1  C   UNL     1      -1.634  11.656  18.034  0.00  0.00    +0.000 C 
ATOM      2  C   UNL     1      -1.044  11.089  19.088  0.00  0.00    +0.000 C 
ATOM      3  C   UNL     1      -1.379  11.563  20.435  0.00  0.00    +0.000 C 
ATOM      4  C   UNL     1      -0.759  11.050  21.520  0.00  0.00    +0.000 C 
ATOM      5  N   UNL     1       0.212  10.053  21.356  0.00  0.00    +0.000 N 
ATOM      6  N   UNL     1       0.986   9.472  22.309  0.00  0.00    +0.000 NA
ATOM      7  C   UNL     1       1.707   8.565  21.652  0.00  0.00    +0.000 A 
ATOM      8  C   UNL     1       1.447   8.515  20.265  0.00  0.00    +0.000 A 
ATOM      9  C   UNL     1       0.520   9.529  20.090  0.00  0.00    +0.000 A 
ATOM     10  N   UNL     1      -0.113  10.057  19.004  0.00  0.00    +0.000 N 
ATOM     11  H   UNL     1       0.126   9.746  18.064  0.00  0.00    +0.000 HD
ENDROOT
BRANCH   8  12
ATOM     12  C   UNL     1       2.052   7.652  19.253  0.00  0.00    +0.000 C 
ATOM     13  O   UNL     1       2.329   8.064  18.134  0.00  0.00    +0.000 OA
ATOM     14  N   UNL     1       2.241   6.334  19.685  0.00  0.00    +0.000 N 
ATOM     15  H   UNL     1       1.454   6.000  20.230  0.00  0.00    +0.000 HD
BRANCH  14  16
ATOM     16  C   UNL     1       2.811   5.355  18.830  0.00  0.00    +0.000 A 
ATOM     17  C   UNL     1       1.946   4.478  18.160  0.00  0.00    +0.000 A 
ATOM     18  C   UNL     1       2.451   3.497  17.301  0.00  0.00    +0.000 A 
ATOM     19  C   UNL     1       3.823   3.373  17.114  0.00  0.00    +0.000 A 
ATOM     20  C   UNL     1       4.693   4.218  17.804  0.00  0.00    +0.000 A 
ATOM     21  C   UNL     1       4.204   5.196  18.685  0.00  0.00    +0.000 A 
BRANCH  21  22
ATOM     22  O   UNL     1       5.194   5.906  19.323  0.00  0.00    +0.000 OA
BRANCH  22  23
ATOM     23  C   UNL     1       6.487   5.302  19.326  0.00  0.00    +0.000 C 
ATOM     24  C   UNL     1       7.500   6.263  18.728  0.00  0.00    +0.000 C 
ENDBRANCH  22  23
ENDBRANCH  21  22
ENDBRANCH  14  16
ENDBRANCH   8  12
BRANCH   4  25
ATOM     25  C   UNL     1      -1.043  11.485  22.914  0.00  0.00    +0.000 C 
ATOM     26  F   UNL     1      -0.768  12.811  23.090  0.00  0.00    +0.000 F 
ATOM     27  F   UNL     1      -2.365  11.353  23.216  0.00  0.00    +0.000 F 
ENDBRANCH   4  25
TORSDOF 5
ENDMDL
MODEL 7
REMARK VINA RESULT:      -7.1      3.837      6.425
REMARK  Name = 
REMARK  6 active torsions:
REMARK  status: ('A' for Active; 'I' for Inactive)
REMARK    1  A    between atoms: C_4  and  C_5
REMARK    2  A    between atoms: C_11  and  C_12
REMARK    3  A    between atoms: N_14  and  C_15
REMARK    4  A    between atoms: C_20  and  O_21
REMARK    5  A    between atoms: O_21  and  C_22
REMARK    6  A    between atoms: C_22  and  C_23
REMARK                            x       y       z     vdW  Elec       q    Type
REMARK                         _______ _______ _______ _____ _____    ______ ____
ROOT
ATOM      1  C   UNL     1       1.146   2.654  18.719  0.00  0.00    +0.000 C 
ATOM      2  C   UNL     1       1.976   3.591  18.256  0.00  0.00    +0.000 C 
ATOM      3  C   UNL     1       3.095   3.193  17.396  0.00  0.00    +0.000 C 
ATOM      4  C   UNL     1       3.986   4.108  16.956  0.00  0.00    +0.000 C 
ATOM      5  N   UNL     1       3.837   5.452  17.326  0.00  0.00    +0.000 N 
ATOM      6  N   UNL     1       4.662   6.494  17.046  0.00  0.00    +0.000 NA
ATOM      7  C   UNL     1       4.059   7.555  17.579  0.00  0.00    +0.000 A 
ATOM      8  C   UNL     1       2.839   7.262  18.226  0.00  0.00    +0.000 A 
ATOM      9  C   UNL     1       2.749   5.885  18.099  0.00  0.00    +0.000 A 
ATOM     10  N   UNL     1       1.858   4.949  18.536  0.00  0.00    +0.000 N 
ATOM     11  H   UNL     1       1.087   5.215  19.149  0.00  0.00    +0.000 HD
ENDROOT
BRANCH   8  12
ATOM     12  C   UNL     1       1.927   8.173  18.914  0.00  0.00    +0.000 C 
ATOM     13  O   UNL     1       1.588   7.992  20.077  0.00  0.00    +0.000 OA
ATOM     14  N   UNL     1       1.473   9.221  18.106  0.00  0.00    +0.000 N 
ATOM     15  H   UNL     1       1.261   8.908  17.166  0.00  0.00    +0.000 HD
BRANCH  14  16
ATOM     16  C   UNL     1       0.575  10.199  18.608  0.00  0.00    +0.000 A 
ATOM     17  C   UNL     1       1.001  11.002  19.676  0.00  0.00    +0.000 A 
ATOM     18  C   UNL     1       0.161  11.985  20.209  0.00  0.00    +0.000 A 
ATOM     19  C   UNL     1      -1.116  12.166  19.690  0.00  0.00    +0.000 A 
ATOM     20  C   UNL     1      -1.562  11.347  18.651  0.00  0.00    +0.000 A 
ATOM     21  C   UNL     1      -0.739  10.343  18.118  0.00  0.00    +0.000 A 
BRANCH  21  22
ATOM     22  O   UNL     1      -1.349   9.593  17.139  0.00  0.00    +0.000 OA
BRANCH  22  23
ATOM     23  C   UNL     1      -2.711   9.922  16.865  0.00  0.00    +0.000 C 
ATOM     24  C   UNL     1      -2.907  10.070  15.366  0.00  0.00    +0.000 C 
ENDBRANCH  22  23
ENDBRANCH  21  22
ENDBRANCH  14  16
ENDBRANCH   8  12
BRANCH   4  25
ATOM     25  C   UNL     1       5.146   3.778  16.086  0.00  0.00    +0.000 C 
ATOM     26  F   UNL     1       5.120   4.497  14.925  0.00  0.00    +0.000 F 
ATOM     27  F   UNL     1       6.326   4.108  16.682  0.00  0.00    +0.000 F 
ENDBRANCH   4  25
TORSDOF 5
ENDMDL
MODEL 8
REMARK VINA RESULT:      -7.1      1.165      1.255
REMARK  Name = 
REMARK  6 active torsions:
REMARK  status: ('A' for Active; 'I' for Inactive)
REMARK    1  A    between atoms: C_4  and  C_5
REMARK    2  A    between atoms: C_11  and  C_12
REMARK    3  A    between atoms: N_14  and  C_15
REMARK    4  A    between atoms: C_20  and  O_21
REMARK    5  A    between atoms: O_21  and  C_22
REMARK    6  A    between atoms: C_22  and  C_23
REMARK                            x       y       z     vdW  Elec       q    Type
REMARK                         _______ _______ _______ _____ _____    ______ ____
ROOT
ATOM      1  C   UNL     1       5.056   2.682  12.227  0.00  0.00    +0.000 C 
ATOM      2  C   UNL     1       5.686   3.526  13.048  0.00  0.00    +0.000 C 
ATOM      3  C   UNL     1       6.727   4.406  12.507  0.00  0.00    +0.000 C 
ATOM      4  C   UNL     1       7.422   5.231  13.320  0.00  0.00    +0.000 C 
ATOM      5  N   UNL     1       7.143   5.247  14.694  0.00  0.00    +0.000 N 
ATOM      6  N   UNL     1       7.776   5.948  15.670  0.00  0.00    +0.000 NA
ATOM      7  C   UNL     1       7.110   5.653  16.784  0.00  0.00    +0.000 A 
ATOM      8  C   UNL     1       6.034   4.758  16.595  0.00  0.00    +0.000 A 
ATOM      9  C   UNL     1       6.115   4.464  15.243  0.00  0.00    +0.000 A 
ATOM     10  N   UNL     1       5.422   3.636  14.410  0.00  0.00    +0.000 N 
ATOM     11  H   UNL     1       4.709   3.009  14.780  0.00  0.00    +0.000 HD
ENDROOT
BRANCH   8  12
ATOM     12  C   UNL     1       5.104   4.223  17.587  0.00  0.00    +0.000 C 
ATOM     13  O   UNL     1       5.482   3.517  18.513  0.00  0.00    +0.000 OA
ATOM     14  N   UNL     1       3.770   4.571  17.344  0.00  0.00    +0.000 N 
ATOM     15  H   UNL     1       3.542   4.522  16.357  0.00  0.00    +0.000 HD
BRANCH  14  16
ATOM     16  C   UNL     1       2.729   4.133  18.203  0.00  0.00    +0.000 A 
ATOM     17  C   UNL     1       2.014   2.981  17.842  0.00  0.00    +0.000 A 
ATOM     18  C   UNL     1       0.981   2.500  18.652  0.00  0.00    +0.000 A 
ATOM     19  C   UNL     1       0.642   3.171  19.822  0.00  0.00    +0.000 A 
ATOM     20  C   UNL     1       1.324   4.338  20.170  0.00  0.00    +0.000 A 
ATOM     21  C   UNL     1       2.350   4.846  19.359  0.00  0.00    +0.000 A 
BRANCH  21  22
ATOM     22  O   UNL     1       2.880   6.029  19.818  0.00  0.00    +0.000 OA
BRANCH  22  23
ATOM     23  C   UNL     1       2.137   7.206  19.502  0.00  0.00    +0.000 C 
ATOM     24  C   UNL     1       2.692   7.835  18.236  0.00  0.00    +0.000 C 
ENDBRANCH  22  23
ENDBRANCH  21  22
ENDBRANCH  14  16
ENDBRANCH   8  12
BRANCH   4  25
ATOM     25  C   UNL     1       8.493   6.147  12.845  0.00  0.00    +0.000 C 
ATOM     26  F   UNL     1       9.713   5.531  12.844  0.00  0.00    +0.000 F 
ATOM     27  F   UNL     1       8.285   6.525  11.552  0.00  0.00    +0.000 F 
ENDBRANCH   4  25
TORSDOF 5
ENDMDL
MODEL 9
REMARK VINA RESULT:      -7.0      4.566      7.349
REMARK  Name = 
REMARK  6 active torsions:
REMARK  status: ('A' for Active; 'I' for Inactive)
REMARK    1  A    between atoms: C_4  and  C_5
REMARK    2  A    between atoms: C_11  and  C_12
REMARK    3  A    between atoms: N_14  and  C_15
REMARK    4  A    between atoms: C_20  and  O_21
REMARK    5  A    between atoms: O_21  and  C_22
REMARK    6  A    between atoms: C_22  and  C_23
REMARK                            x       y       z     vdW  Elec       q    Type
REMARK                         _______ _______ _______ _____ _____    ______ ____
ROOT
ATOM      1  C   UNL     1       5.205   4.980  15.849  0.00  0.00    +0.000 C 
ATOM      2  C   UNL     1       4.529   5.103  16.993  0.00  0.00    +0.000 C 
ATOM      3  C   UNL     1       4.573   4.010  17.970  0.00  0.00    +0.000 C 
ATOM      4  C   UNL     1       3.855   4.078  19.113  0.00  0.00    +0.000 C 
ATOM      5  N   UNL     1       3.064   5.207  19.367  0.00  0.00    +0.000 N 
ATOM      6  N   UNL     1       2.226   5.424  20.414  0.00  0.00    +0.000 NA
ATOM      7  C   UNL     1       1.748   6.651  20.216  0.00  0.00    +0.000 A 
ATOM      8  C   UNL     1       2.236   7.280  19.049  0.00  0.00    +0.000 A 
ATOM      9  C   UNL     1       3.039   6.300  18.487  0.00  0.00    +0.000 A 
ATOM     10  N   UNL     1       3.768   6.217  17.337  0.00  0.00    +0.000 N 
ATOM     11  H   UNL     1       3.729   6.964  16.645  0.00  0.00    +0.000 HD
ENDROOT
BRANCH   8  12
ATOM     12  C   UNL     1       1.924   8.608  18.528  0.00  0.00    +0.000 C 
ATOM     13  O   UNL     1       2.296   8.972  17.420  0.00  0.00    +0.000 OA
ATOM     14  N   UNL     1       1.204   9.404  19.427  0.00  0.00    +0.000 N 
ATOM     15  H   UNL     1       1.542   9.299  20.377  0.00  0.00    +0.000 HD
BRANCH  14  16
ATOM     16  C   UNL     1       0.820  10.728  19.091  0.00  0.00    +0.000 A 
ATOM     17  C   UNL     1       1.768  11.750  19.243  0.00  0.00    +0.000 A 
ATOM     18  C   UNL     1       1.447  13.073  18.923  0.00  0.00    +0.000 A 
ATOM     19  C   UNL     1       0.174  13.390  18.462  0.00  0.00    +0.000 A 
ATOM     20  C   UNL     1      -0.787  12.385  18.341  0.00  0.00    +0.000 A 
ATOM     21  C   UNL     1      -0.488  11.055  18.677  0.00  0.00    +0.000 A 
BRANCH  21  22
ATOM     22  O   UNL     1      -1.559  10.201  18.552  0.00  0.00    +0.000 OA
BRANCH  22  23
ATOM     23  C   UNL     1      -2.012   9.966  17.219  0.00  0.00    +0.000 C 
ATOM     24  C   UNL     1      -3.525  10.087  17.167  0.00  0.00    +0.000 C 
ENDBRANCH  22  23
ENDBRANCH  21  22
ENDBRANCH  14  16
ENDBRANCH   8  12
BRANCH   4  25
ATOM     25  C   UNL     1       3.847   3.008  20.146  0.00  0.00    +0.000 C 
ATOM     26  F   UNL     1       2.700   2.268  20.090  0.00  0.00    +0.000 F 
ATOM     27  F   UNL     1       4.857   2.115  19.944  0.00  0.00    +0.000 F 
ENDBRANCH   4  25
TORSDOF 5
ENDMDL
