MODEL 1
REMARK VINA RESULT:      -9.0      0.000      0.000
REMARK  Name = 
REMARK  6 active torsions:
REMARK  status: ('A' for Active; 'I' for Inactive)
REMARK    1  A    between atoms: O_1  and  C_2
REMARK    2  A    between atoms: C_5  and  C_6
REMARK    3  A    between atoms: C_16  and  C_17
REMARK    4  A    between atoms: C_17  and  N_18
REMARK    5  A    between atoms: N_18  and  C_19
REMARK    6  A    between atoms: C_19  and  C_20
REMARK                            x       y       z     vdW  Elec       q    Type
REMARK                         _______ _______ _______ _____ _____    ______ ____
ROOT
ATOM      1  C   UNL     1       1.342   3.539  19.363  0.00  0.00    +0.000 A 
ATOM      2  C   UNL     1       1.582   2.886  18.160  0.00  0.00    +0.000 A 
ATOM      3  C   UNL     1       2.686   3.260  17.386  0.00  0.00    +0.000 A 
ATOM      4  C   UNL     1       3.562   4.287  17.779  0.00  0.00    +0.000 A 
ATOM      5  C   UNL     1       3.279   4.938  18.981  0.00  0.00    +0.000 A 
ATOM      6  C   UNL     1       2.167   4.593  19.776  0.00  0.00    +0.000 A 
ENDROOT
BRANCH   4   7
ATOM      7  C   UNL     1       4.731   4.654  16.956  0.00  0.00    +0.000 A 
ATOM      8  C   UNL     1       5.748   5.515  17.430  0.00  0.00    +0.000 A 
ATOM      9  C   UNL     1       6.866   5.839  16.633  0.00  0.00    +0.000 A 
ATOM     10  C   UNL     1       6.945   5.297  15.357  0.00  0.00    +0.000 A 
ATOM     11  C   UNL     1       5.963   4.464  14.896  0.00  0.00    +0.000 A 
ATOM     12  C   UNL     1       4.867   4.131  15.659  0.00  0.00    +0.000 A 
ATOM     13  O   UNL     1       6.169   4.010  13.630  0.00  0.00    +0.000 OA
ATOM     14  C   UNL     1       7.378   4.707  13.292  0.00  0.00    +0.000 C 
ATOM     15  O   UNL     1       7.913   5.472  14.409  0.00  0.00    +0.000 OA
ENDBRANCH   4   7
BRANCH   1  16
ATOM     16  O   UNL     1       0.305   3.135  20.161  0.00  0.00    +0.000 OA
ATOM     17  H   UNL     1      -0.551   3.253  19.708  0.00  0.00    +0.000 HD
ENDBRANCH   1  16
BRANCH   6  18
ATOM     18  C   UNL     1       1.937   5.357  21.057  0.00  0.00    +0.000 C 
BRANCH  18  19
ATOM     19  N   UNL     1       1.962   6.790  20.807  0.00  0.00    +0.000 NA
ATOM     20  H   UNL     1       2.229   6.996  19.847  0.00  0.00    +0.000 HD
BRANCH  19  21
ATOM     21  C   UNL     1       0.744   7.462  21.199  0.00  0.00    +0.000 C 
BRANCH  21  22
ATOM     22  C   UNL     1       1.134   8.946  21.322  0.00  0.00    +0.000 C 
ATOM     23  C   UNL     1       0.108   9.718  22.710  0.00  0.00    +0.000 C 
ATOM     24  C   UNL     1      -0.637  11.138  21.976  0.00  0.00    +0.000 C 
ATOM     25  C   UNL     1       0.548  10.897  21.279  0.00  0.00    +0.000 C 
ATOM     26  C   UNL     1      -0.353   9.894  20.645  0.00  0.00    +0.000 C 
ATOM     27  C   UNL     1       0.783  10.029  19.881  0.00  0.00    +0.000 C 
ATOM     28  C   UNL     1      -0.476  11.389  20.235  0.00  0.00    +0.000 C 
ATOM     29  C   UNL     1      -0.532  12.536  19.291  0.00  0.00    +0.000 C 
ATOM     30  C   UNL     1      -1.808  11.770  19.603  0.00  0.00    +0.000 C 
ENDBRANCH  21  22
ENDBRANCH  19  21
ENDBRANCH  18  19
ENDBRANCH   6  18
TORSDOF 6
ENDMDL
MODEL 2
REMARK VINA RESULT:      -9.0      2.977      7.561
REMARK  Name = 
REMARK  6 active torsions:
REMARK  status: ('A' for Active; 'I' for Inactive)
REMARK    1  A    between atoms: O_1  and  C_2
REMARK    2  A    between atoms: C_5  and  C_6
REMARK    3  A    between atoms: C_16  and  C_17
REMARK    4  A    between atoms: C_17  and  N_18
REMARK    5  A    between atoms: N_18  and  C_19
REMARK    6  A    between atoms: C_19  and  C_20
REMARK                            x       y       z     vdW  Elec       q    Type
REMARK                         _______ _______ _______ _____ _____    ______ ____
ROOT
ATOM      1  C   UNL     1       2.091   3.357  20.492  0.00  0.00    +0.000 A 
ATOM      2  C   UNL     1       2.243   4.337  21.465  0.00  0.00    +0.000 A 
ATOM      3  C   UNL     1       2.144   5.685  21.101  0.00  0.00    +0.000 A 
ATOM      4  C   UNL     1       1.906   6.086  19.775  0.00  0.00    +0.000 A 
ATOM      5  C   UNL     1       1.781   5.078  18.819  0.00  0.00    +0.000 A 
ATOM      6  C   UNL     1       1.889   3.711  19.152  0.00  0.00    +0.000 A 
ENDROOT
BRANCH   4   7
ATOM      7  C   UNL     1       1.787   7.513  19.416  0.00  0.00    +0.000 A 
ATOM      8  C   UNL     1       2.146   8.003  18.139  0.00  0.00    +0.000 A 
ATOM      9  C   UNL     1       2.010   9.368  17.810  0.00  0.00    +0.000 A 
ATOM     10  C   UNL     1       1.518  10.233  18.779  0.00  0.00    +0.000 A 
ATOM     11  C   UNL     1       1.168   9.762  20.015  0.00  0.00    +0.000 A 
ATOM     12  C   UNL     1       1.290   8.434  20.354  0.00  0.00    +0.000 A 
ATOM     13  O   UNL     1       0.705  10.719  20.864  0.00  0.00    +0.000 OA
ATOM     14  C   UNL     1       0.859  11.892  20.050  0.00  0.00    +0.000 C 
ATOM     15  O   UNL     1       1.309  11.581  18.701  0.00  0.00    +0.000 OA
ENDBRANCH   4   7
BRANCH   1  16
ATOM     16  O   UNL     1       2.118   2.035  20.849  0.00  0.00    +0.000 OA
ATOM     17  H   UNL     1       1.884   1.465  20.093  0.00  0.00    +0.000 HD
ENDBRANCH   1  16
BRANCH   6  18
ATOM     18  C   UNL     1       1.748   2.692  18.049  0.00  0.00    +0.000 C 
BRANCH  18  19
ATOM     19  N   UNL     1       2.550   3.072  16.896  0.00  0.00    +0.000 NA
ATOM     20  H   UNL     1       2.202   3.927  16.467  0.00  0.00    +0.000 HD
BRANCH  19  21
ATOM     21  C   UNL     1       3.966   3.129  17.178  0.00  0.00    +0.000 C 
BRANCH  21  22
ATOM     22  C   UNL     1       4.486   4.313  16.340  0.00  0.00    +0.000 C 
ATOM     23  C   UNL     1       6.115   3.798  15.530  0.00  0.00    +0.000 C 
ATOM     24  C   UNL     1       7.254   5.069  15.972  0.00  0.00    +0.000 C 
ATOM     25  C   UNL     1       5.983   5.646  15.974  0.00  0.00    +0.000 C 
ATOM     26  C   UNL     1       5.979   4.964  17.299  0.00  0.00    +0.000 C 
ATOM     27  C   UNL     1       4.928   5.850  17.243  0.00  0.00    +0.000 C 
ATOM     28  C   UNL     1       6.757   6.299  17.138  0.00  0.00    +0.000 C 
ATOM     29  C   UNL     1       7.142   7.694  17.480  0.00  0.00    +0.000 C 
ATOM     30  C   UNL     1       7.836   6.540  18.185  0.00  0.00    +0.000 C 
ENDBRANCH  21  22
ENDBRANCH  19  21
ENDBRANCH  18  19
ENDBRANCH   6  18
TORSDOF 6
ENDMDL
MODEL 3
REMARK VINA RESULT:      -8.9      4.677      8.155
REMARK  Name = 
REMARK  6 active torsions:
REMARK  status: ('A' for Active; 'I' for Inactive)
REMARK    1  A    between atoms: O_1  and  C_2
REMARK    2  A    between atoms: C_5  and  C_6
REMARK    3  A    between atoms: C_16  and  C_17
REMARK    4  A    between atoms: C_17  and  N_18
REMARK    5  A    between atoms: N_18  and  C_19
REMARK    6  A    between atoms: C_19  and  C_20
REMARK                            x       y       z     vdW  Elec       q    Type
REMARK                         _______ _______ _______ _____ _____    ______ ____
ROOT
ATOM      1  C   UNL     1       6.808   5.297  15.851  0.00  0.00    +0.000 A 
ATOM      2  C   UNL     1       5.863   4.402  15.367  0.00  0.00    +0.000 A 
ATOM      3  C   UNL     1       4.815   3.994  16.200  0.00  0.00    +0.000 A 
ATOM      4  C   UNL     1       4.689   4.454  17.523  0.00  0.00    +0.000 A 
ATOM      5  C   UNL     1       5.667   5.334  17.986  0.00  0.00    +0.000 A 
ATOM      6  C   UNL     1       6.743   5.753  17.175  0.00  0.00    +0.000 A 
ENDROOT
BRANCH   4   7
ATOM      7  C   UNL     1       3.565   4.025  18.379  0.00  0.00    +0.000 A 
ATOM      8  C   UNL     1       2.221   4.077  17.943  0.00  0.00    +0.000 A 
ATOM      9  C   UNL     1       1.163   3.647  18.770  0.00  0.00    +0.000 A 
ATOM     10  C   UNL     1       1.469   3.174  20.040  0.00  0.00    +0.000 A 
ATOM     11  C   UNL     1       2.769   3.122  20.464  0.00  0.00    +0.000 A 
ATOM     12  C   UNL     1       3.815   3.532  19.671  0.00  0.00    +0.000 A 
ATOM     13  O   UNL     1       2.922   2.640  21.728  0.00  0.00    +0.000 OA
ATOM     14  C   UNL     1       1.550   2.448  22.105  0.00  0.00    +0.000 C 
ATOM     15  O   UNL     1       0.626   2.719  21.013  0.00  0.00    +0.000 OA
ENDBRANCH   4   7
BRANCH   1  16
ATOM     16  O   UNL     1       7.797   5.756  15.023  0.00  0.00    +0.000 OA
ATOM     17  H   UNL     1       7.468   6.471  14.448  0.00  0.00    +0.000 HD
ENDBRANCH   1  16
BRANCH   6  18
ATOM     18  C   UNL     1       7.757   6.702  17.764  0.00  0.00    +0.000 C 
BRANCH  18  19
ATOM     19  N   UNL     1       7.253   8.066  17.742  0.00  0.00    +0.000 NA
ATOM     20  H   UNL     1       6.841   8.324  18.636  0.00  0.00    +0.000 HD
BRANCH  19  21
ATOM     21  C   UNL     1       8.227   9.029  17.281  0.00  0.00    +0.000 C 
BRANCH  21  22
ATOM     22  C   UNL     1       8.215  10.141  18.346  0.00  0.00    +0.000 C 
ATOM     23  C   UNL     1       8.262  11.813  17.463  0.00  0.00    +0.000 C 
ATOM     24  C   UNL     1       9.613  12.670  18.202  0.00  0.00    +0.000 C 
ATOM     25  C   UNL     1       9.135  11.769  19.156  0.00  0.00    +0.000 C 
ATOM     26  C   UNL     1       9.962  10.863  18.310  0.00  0.00    +0.000 C 
ATOM     27  C   UNL     1       9.651  10.224  19.489  0.00  0.00    +0.000 C 
ATOM     28  C   UNL     1      10.669  11.805  19.324  0.00  0.00    +0.000 C 
ATOM     29  C   UNL     1      11.586  12.150  20.442  0.00  0.00    +0.000 C 
ATOM     30  C   UNL     1      12.137  12.077  19.026  0.00  0.00    +0.000 C 
ENDBRANCH  21  22
ENDBRANCH  19  21
ENDBRANCH  18  19
ENDBRANCH   6  18
TORSDOF 6
ENDMDL
MODEL 4
REMARK VINA RESULT:      -8.8      0.917      1.200
REMARK  Name = 
REMARK  6 active torsions:
REMARK  status: ('A' for Active; 'I' for Inactive)
REMARK    1  A    between atoms: O_1  and  C_2
REMARK    2  A    between atoms: C_5  and  C_6
REMARK    3  A    between atoms: C_16  and  C_17
REMARK    4  A    between atoms: C_17  and  N_18
REMARK    5  A    between atoms: N_18  and  C_19
REMARK    6  A    between atoms: C_19  and  C_20
REMARK                            x       y       z     vdW  Elec       q    Type
REMARK                         _______ _______ _______ _____ _____    ______ ____
ROOT
ATOM      1  C   UNL     1       1.348   3.655  19.588  0.00  0.00    +0.000 A 
ATOM      2  C   UNL     1       1.753   2.797  18.574  0.00  0.00    +0.000 A 
ATOM      3  C   UNL     1       2.833   3.156  17.761  0.00  0.00    +0.000 A 
ATOM      4  C   UNL     1       3.523   4.370  17.927  0.00  0.00    +0.000 A 
ATOM      5  C   UNL     1       3.077   5.220  18.940  0.00  0.00    +0.000 A 
ATOM      6  C   UNL     1       1.983   4.892  19.767  0.00  0.00    +0.000 A 
ENDROOT
BRANCH   4   7
ATOM      7  C   UNL     1       4.672   4.722  17.070  0.00  0.00    +0.000 A 
ATOM      8  C   UNL     1       5.651   5.662  17.468  0.00  0.00    +0.000 A 
ATOM      9  C   UNL     1       6.751   5.972  16.640  0.00  0.00    +0.000 A 
ATOM     10  C   UNL     1       6.850   5.335  15.410  0.00  0.00    +0.000 A 
ATOM     11  C   UNL     1       5.905   4.425  15.023  0.00  0.00    +0.000 A 
ATOM     12  C   UNL     1       4.828   4.106  15.817  0.00  0.00    +0.000 A 
ATOM     13  O   UNL     1       6.127   3.882  13.795  0.00  0.00    +0.000 OA
ATOM     14  C   UNL     1       7.302   4.604  13.395  0.00  0.00    +0.000 C 
ATOM     15  O   UNL     1       7.806   5.478  14.444  0.00  0.00    +0.000 OA
ENDBRANCH   4   7
BRANCH   1  16
ATOM     16  O   UNL     1       0.337   3.282  20.432  0.00  0.00    +0.000 OA
ATOM     17  H   UNL     1       0.451   3.686  21.313  0.00  0.00    +0.000 HD
ENDBRANCH   1  16
BRANCH   6  18
ATOM     18  C   UNL     1       1.568   5.877  20.831  0.00  0.00    +0.000 C 
BRANCH  18  19
ATOM     19  N   UNL     1       1.960   7.228  20.457  0.00  0.00    +0.000 NA
ATOM     20  H   UNL     1       2.009   7.334  19.446  0.00  0.00    +0.000 HD
BRANCH  19  21
ATOM     21  C   UNL     1       1.155   8.252  21.084  0.00  0.00    +0.000 C 
BRANCH  21  22
ATOM     22  C   UNL     1       1.211   9.445  20.112  0.00  0.00    +0.000 C 
ATOM     23  C   UNL     1       0.462  10.951  20.976  0.00  0.00    +0.000 C 
ATOM     24  C   UNL     1      -0.764  11.543  19.856  0.00  0.00    +0.000 C 
ATOM     25  C   UNL     1       0.203  10.891  19.090  0.00  0.00    +0.000 C 
ATOM     26  C   UNL     1      -0.583   9.728  19.590  0.00  0.00    +0.000 C 
ATOM     27  C   UNL     1       0.234   9.314  18.563  0.00  0.00    +0.000 C 
ATOM     28  C   UNL     1      -1.155  10.583  18.426  0.00  0.00    +0.000 C 
ATOM     29  C   UNL     1      -1.734  10.825  17.077  0.00  0.00    +0.000 C 
ATOM     30  C   UNL     1      -2.661  10.468  18.229  0.00  0.00    +0.000 C 
ENDBRANCH  21  22
ENDBRANCH  19  21
ENDBRANCH  18  19
ENDBRANCH   6  18
TORSDOF 6
ENDMDL
MODEL 5
REMARK VINA RESULT:      -8.8      4.743      7.761
REMARK  Name = 
REMARK  6 active torsions:
REMARK  status: ('A' for Active; 'I' for Inactive)
REMARK    1  A    between atoms: O_1  and  C_2
REMARK    2  A    between atoms: C_5  and  C_6
REMARK    3  A    between atoms: C_16  and  C_17
REMARK    4  A    between atoms: C_17  and  N_18
REMARK    5  A    between atoms: N_18  and  C_19
REMARK    6  A    between atoms: C_19  and  C_20
REMARK                            x       y       z     vdW  Elec       q    Type
REMARK                         _______ _______ _______ _____ _____    ______ ____
ROOT
ATOM      1  C   UNL     1       7.370   5.374  18.122  0.00  0.00    +0.000 A 
ATOM      2  C   UNL     1       8.180   5.784  19.173  0.00  0.00    +0.000 A 
ATOM      3  C   UNL     1       8.557   7.128  19.264  0.00  0.00    +0.000 A 
ATOM      4  C   UNL     1       8.151   8.085  18.316  0.00  0.00    +0.000 A 
ATOM      5  C   UNL     1       7.357   7.636  17.261  0.00  0.00    +0.000 A 
ATOM      6  C   UNL     1       6.972   6.285  17.135  0.00  0.00    +0.000 A 
ENDROOT
BRANCH   4   7
ATOM      7  C   UNL     1       8.546   9.502  18.441  0.00  0.00    +0.000 A 
ATOM      8  C   UNL     1       8.132  10.485  17.513  0.00  0.00    +0.000 A 
ATOM      9  C   UNL     1       8.506  11.837  17.659  0.00  0.00    +0.000 A 
ATOM     10  C   UNL     1       9.305  12.187  18.740  0.00  0.00    +0.000 A 
ATOM     11  C   UNL     1       9.706  11.238  19.640  0.00  0.00    +0.000 A 
ATOM     12  C   UNL     1       9.348   9.915  19.518  0.00  0.00    +0.000 A 
ATOM     13  O   UNL     1      10.485  11.720  20.646  0.00  0.00    +0.000 OA
ATOM     14  C   UNL     1      10.602  13.096  20.253  0.00  0.00    +0.000 C 
ATOM     15  O   UNL     1       9.798  13.414  19.082  0.00  0.00    +0.000 OA
ENDBRANCH   4   7
BRANCH   1  16
ATOM     16  O   UNL     1       6.939   4.076  18.062  0.00  0.00    +0.000 OA
ATOM     17  H   UNL     1       5.980   4.017  18.232  0.00  0.00    +0.000 HD
ENDBRANCH   1  16
BRANCH   6  18
ATOM     18  C   UNL     1       6.118   5.890  15.955  0.00  0.00    +0.000 C 
BRANCH  18  19
ATOM     19  N   UNL     1       5.219   4.804  16.316  0.00  0.00    +0.000 NA
ATOM     20  H   UNL     1       5.707   4.072  16.827  0.00  0.00    +0.000 HD
BRANCH  19  21
ATOM     21  C   UNL     1       4.024   5.252  16.995  0.00  0.00    +0.000 C 
BRANCH  21  22
ATOM     22  C   UNL     1       3.317   3.958  17.439  0.00  0.00    +0.000 C 
ATOM     23  C   UNL     1       1.471   4.325  17.630  0.00  0.00    +0.000 C 
ATOM     24  C   UNL     1       1.072   3.767  19.254  0.00  0.00    +0.000 C 
ATOM     25  C   UNL     1       2.160   3.007  18.821  0.00  0.00    +0.000 C 
ATOM     26  C   UNL     1       2.848   4.259  19.245  0.00  0.00    +0.000 C 
ATOM     27  C   UNL     1       3.783   3.264  19.074  0.00  0.00    +0.000 C 
ATOM     28  C   UNL     1       2.375   3.252  20.330  0.00  0.00    +0.000 C 
ATOM     29  C   UNL     1       2.522   2.369  21.517  0.00  0.00    +0.000 C 
ATOM     30  C   UNL     1       2.212   3.843  21.723  0.00  0.00    +0.000 C 
ENDBRANCH  21  22
ENDBRANCH  19  21
ENDBRANCH  18  19
ENDBRANCH   6  18
TORSDOF 6
ENDMDL
MODEL 6
REMARK VINA RESULT:      -8.7      4.481      7.322
REMARK  Name = 
REMARK  6 active torsions:
REMARK  status: ('A' for Active; 'I' for Inactive)
REMARK    1  A    between atoms: O_1  and  C_2
REMARK    2  A    between atoms: C_5  and  C_6
REMARK    3  A    between atoms: C_16  and  C_17
REMARK    4  A    between atoms: C_17  and  N_18
REMARK    5  A    between atoms: N_18  and  C_19
REMARK    6  A    between atoms: C_19  and  C_20
REMARK                            x       y       z     vdW  Elec       q    Type
REMARK                         _______ _______ _______ _____ _____    ______ ____
ROOT
ATOM      1  C   UNL     1       7.194   5.436  18.119  0.00  0.00    +0.000 A 
ATOM      2  C   UNL     1       8.114   5.790  19.098  0.00  0.00    +0.000 A 
ATOM      3  C   UNL     1       8.548   7.117  19.183  0.00  0.00    +0.000 A 
ATOM      4  C   UNL     1       8.092   8.111  18.299  0.00  0.00    +0.000 A 
ATOM      5  C   UNL     1       7.187   7.718  17.313  0.00  0.00    +0.000 A 
ATOM      6  C   UNL     1       6.740   6.385  17.194  0.00  0.00    +0.000 A 
ENDROOT
BRANCH   4   7
ATOM      7  C   UNL     1       8.549   9.510  18.417  0.00  0.00    +0.000 A 
ATOM      8  C   UNL     1       8.127  10.520  17.523  0.00  0.00    +0.000 A 
ATOM      9  C   UNL     1       8.562  11.855  17.663  0.00  0.00    +0.000 A 
ATOM     10  C   UNL     1       9.432  12.158  18.703  0.00  0.00    +0.000 A 
ATOM     11  C   UNL     1       9.842  11.183  19.570  0.00  0.00    +0.000 A 
ATOM     12  C   UNL     1       9.424   9.877  19.453  0.00  0.00    +0.000 A 
ATOM     13  O   UNL     1      10.693  11.621  20.537  0.00  0.00    +0.000 OA
ATOM     14  C   UNL     1      10.844  12.996  20.153  0.00  0.00    +0.000 C 
ATOM     15  O   UNL     1       9.992  13.360  19.030  0.00  0.00    +0.000 OA
ENDBRANCH   4   7
BRANCH   1  16
ATOM     16  O   UNL     1       6.711   4.155  18.071  0.00  0.00    +0.000 OA
ATOM     17  H   UNL     1       5.955   4.090  17.459  0.00  0.00    +0.000 HD
ENDBRANCH   1  16
BRANCH   6  18
ATOM     18  C   UNL     1       5.766   6.051  16.091  0.00  0.00    +0.000 C 
BRANCH  18  19
ATOM     19  N   UNL     1       4.478   5.665  16.648  0.00  0.00    +0.000 NA
ATOM     20  H   UNL     1       4.439   4.667  16.838  0.00  0.00    +0.000 HD
BRANCH  19  21
ATOM     21  C   UNL     1       4.086   6.462  17.788  0.00  0.00    +0.000 C 
BRANCH  21  22
ATOM     22  C   UNL     1       2.680   5.954  18.157  0.00  0.00    +0.000 C 
ATOM     23  C   UNL     1       2.127   6.831  19.739  0.00  0.00    +0.000 C 
ATOM     24  C   UNL     1       1.657   5.528  20.830  0.00  0.00    +0.000 C 
ATOM     25  C   UNL     1       1.473   5.053  19.530  0.00  0.00    +0.000 C 
ATOM     26  C   UNL     1       2.943   4.871  19.684  0.00  0.00    +0.000 C 
ATOM     27  C   UNL     1       2.514   4.174  18.578  0.00  0.00    +0.000 C 
ATOM     28  C   UNL     1       1.980   3.856  20.360  0.00  0.00    +0.000 C 
ATOM     29  C   UNL     1       1.440   2.509  20.684  0.00  0.00    +0.000 C 
ATOM     30  C   UNL     1       2.591   3.064  21.509  0.00  0.00    +0.000 C 
ENDBRANCH  21  22
ENDBRANCH  19  21
ENDBRANCH  18  19
ENDBRANCH   6  18
TORSDOF 6
ENDMDL
MODEL 7
REMARK VINA RESULT:      -8.7      1.294      1.478
REMARK  Name = 
REMARK  6 active torsions:
REMARK  status: ('A' for Active; 'I' for Inactive)
REMARK    1  A    between atoms: O_1  and  C_2
REMARK    2  A    between atoms: C_5  and  C_6
REMARK    3  A    between atoms: C_16  and  C_17
REMARK    4  A    between atoms: C_17  and  N_18
REMARK    5  A    between atoms: N_18  and  C_19
REMARK    6  A    between atoms: C_19  and  C_20
REMARK                            x       y       z     vdW  Elec       q    Type
REMARK                         _______ _______ _______ _____ _____    ______ ____
ROOT
ATOM      1  C   UNL     1       2.549   3.509  21.040  0.00  0.00    +0.000 A 
ATOM      2  C   UNL     1       3.483   2.597  20.564  0.00  0.00    +0.000 A 
ATOM      3  C   UNL     1       4.343   2.974  19.526  0.00  0.00    +0.000 A 
ATOM      4  C   UNL     1       4.288   4.248  18.935  0.00  0.00    +0.000 A 
ATOM      5  C   UNL     1       3.324   5.133  19.420  0.00  0.00    +0.000 A 
ATOM      6  C   UNL     1       2.434   4.777  20.456  0.00  0.00    +0.000 A 
ENDROOT
BRANCH   4   7
ATOM      7  C   UNL     1       5.217   4.632  17.854  0.00  0.00    +0.000 A 
ATOM      8  C   UNL     1       6.217   5.615  18.031  0.00  0.00    +0.000 A 
ATOM      9  C   UNL     1       7.106   5.955  16.989  0.00  0.00    +0.000 A 
ATOM     10  C   UNL     1       6.971   5.304  15.769  0.00  0.00    +0.000 A 
ATOM     11  C   UNL     1       6.004   4.352  15.595  0.00  0.00    +0.000 A 
ATOM     12  C   UNL     1       5.131   4.003  16.600  0.00  0.00    +0.000 A 
ATOM     13  O   UNL     1       5.986   3.800  14.352  0.00  0.00    +0.000 OA
ATOM     14  C   UNL     1       7.020   4.561  13.709  0.00  0.00    +0.000 C 
ATOM     15  O   UNL     1       7.696   5.469  14.624  0.00  0.00    +0.000 OA
ENDBRANCH   4   7
BRANCH   1  16
ATOM     16  O   UNL     1       1.751   3.174  22.100  0.00  0.00    +0.000 OA
ATOM     17  H   UNL     1       2.217   2.578  22.715  0.00  0.00    +0.000 HD
ENDBRANCH   1  16
BRANCH   6  18
ATOM     18  C   UNL     1       1.420   5.797  20.910  0.00  0.00    +0.000 C 
BRANCH  18  19
ATOM     19  N   UNL     1       1.858   7.141  20.567  0.00  0.00    +0.000 NA
ATOM     20  H   UNL     1       2.049   7.227  19.571  0.00  0.00    +0.000 HD
BRANCH  19  21
ATOM     21  C   UNL     1       0.971   8.174  21.053  0.00  0.00    +0.000 C 
BRANCH  21  22
ATOM     22  C   UNL     1       1.202   9.367  20.107  0.00  0.00    +0.000 C 
ATOM     23  C   UNL     1       1.017  10.963  21.106  0.00  0.00    +0.000 C 
ATOM     24  C   UNL     1      -0.156  11.920  20.203  0.00  0.00    +0.000 C 
ATOM     25  C   UNL     1       0.478  11.084  19.282  0.00  0.00    +0.000 C 
ATOM     26  C   UNL     1      -0.508  10.140  19.879  0.00  0.00    +0.000 C 
ATOM     27  C   UNL     1       0.008   9.589  18.729  0.00  0.00    +0.000 C 
ATOM     28  C   UNL     1      -0.996  11.183  18.835  0.00  0.00    +0.000 C 
ATOM     29  C   UNL     1      -1.680  11.647  17.599  0.00  0.00    +0.000 C 
ATOM     30  C   UNL     1      -2.489  11.477  18.876  0.00  0.00    +0.000 C 
ENDBRANCH  21  22
ENDBRANCH  19  21
ENDBRANCH  18  19
ENDBRANCH   6  18
TORSDOF 6
ENDMDL
MODEL 8
REMARK VINA RESULT:      -8.7      2.840      4.487
REMARK  Name = 
REMARK  6 active torsions:
REMARK  status: ('A' for Active; 'I' for Inactive)
REMARK    1  A    between atoms: O_1  and  C_2
REMARK    2  A    between atoms: C_5  and  C_6
REMARK    3  A    between atoms: C_16  and  C_17
REMARK    4  A    between atoms: C_17  and  N_18
REMARK    5  A    between atoms: N_18  and  C_19
REMARK    6  A    between atoms: C_19  and  C_20
REMARK                            x       y       z     vdW  Elec       q    Type
REMARK                         _______ _______ _______ _____ _____    ______ ____
ROOT
ATOM      1  C   UNL     1       1.328   8.427  20.304  0.00  0.00    +0.000 A 
ATOM      2  C   UNL     1       1.669   7.145  20.716  0.00  0.00    +0.000 A 
ATOM      3  C   UNL     1       2.414   6.326  19.862  0.00  0.00    +0.000 A 
ATOM      4  C   UNL     1       2.824   6.753  18.586  0.00  0.00    +0.000 A 
ATOM      5  C   UNL     1       2.445   8.037  18.193  0.00  0.00    +0.000 A 
ATOM      6  C   UNL     1       1.683   8.881  19.027  0.00  0.00    +0.000 A 
ENDROOT
BRANCH   4   7
ATOM      7  C   UNL     1       3.625   5.878  17.706  0.00  0.00    +0.000 A 
ATOM      8  C   UNL     1       3.429   4.479  17.651  0.00  0.00    +0.000 A 
ATOM      9  C   UNL     1       4.194   3.664  16.791  0.00  0.00    +0.000 A 
ATOM     10  C   UNL     1       5.161   4.267  15.998  0.00  0.00    +0.000 A 
ATOM     11  C   UNL     1       5.353   5.621  16.049  0.00  0.00    +0.000 A 
ATOM     12  C   UNL     1       4.614   6.434  16.877  0.00  0.00    +0.000 A 
ATOM     13  O   UNL     1       6.333   6.075  15.222  0.00  0.00    +0.000 OA
ATOM     14  C   UNL     1       6.808   4.837  14.670  0.00  0.00    +0.000 C 
ATOM     15  O   UNL     1       6.022   3.692  15.107  0.00  0.00    +0.000 OA
ENDBRANCH   4   7
BRANCH   1  16
ATOM     16  O   UNL     1       0.658   9.261  21.160  0.00  0.00    +0.000 OA
ATOM     17  H   UNL     1       1.259   9.932  21.535  0.00  0.00    +0.000 HD
ENDBRANCH   1  16
BRANCH   6  18
ATOM     18  C   UNL     1       1.314  10.251  18.515  0.00  0.00    +0.000 C 
BRANCH  18  19
ATOM     19  N   UNL     1       0.046  10.684  19.082  0.00  0.00    +0.000 NA
ATOM     20  H   UNL     1       0.185  11.216  19.939  0.00  0.00    +0.000 HD
BRANCH  19  21
ATOM     21  C   UNL     1      -0.801  11.371  18.134  0.00  0.00    +0.000 C 
BRANCH  21  22
ATOM     22  C   UNL     1      -2.021  10.449  17.956  0.00  0.00    +0.000 C 
ATOM     23  C   UNL     1      -2.421  10.341  16.111  0.00  0.00    +0.000 C 
ATOM     24  C   UNL     1      -4.132  10.754  16.001  0.00  0.00    +0.000 C 
ATOM     25  C   UNL     1      -3.926  10.215  17.273  0.00  0.00    +0.000 C 
ATOM     26  C   UNL     1      -3.437  11.607  17.480  0.00  0.00    +0.000 C 
ATOM     27  C   UNL     1      -3.606  11.000  18.703  0.00  0.00    +0.000 C 
ATOM     28  C   UNL     1      -4.968  11.341  17.442  0.00  0.00    +0.000 C 
ATOM     29  C   UNL     1      -6.367  11.400  17.942  0.00  0.00    +0.000 C 
ATOM     30  C   UNL     1      -5.820  12.564  17.130  0.00  0.00    +0.000 C 
ENDBRANCH  21  22
ENDBRANCH  19  21
ENDBRANCH  18  19
ENDBRANCH   6  18
TORSDOF 6
ENDMDL
MODEL 9
REMARK VINA RESULT:      -8.7      0.703      1.489
REMARK  Name = 
REMARK  6 active torsions:
REMARK  status: ('A' for Active; 'I' for Inactive)
REMARK    1  A    between atoms: O_1  and  C_2
REMARK    2  A    between atoms: C_5  and  C_6
REMARK    3  A    between atoms: C_16  and  C_17
REMARK    4  A    between atoms: C_17  and  N_18
REMARK    5  A    between atoms: N_18  and  C_19
REMARK    6  A    between atoms: C_19  and  C_20
REMARK                            x       y       z     vdW  Elec       q    Type
REMARK                         _______ _______ _______ _____ _____    ______ ____
ROOT
ATOM      1  C   UNL     1       1.389   3.712  19.650  0.00  0.00    +0.000 A 
ATOM      2  C   UNL     1       1.807   2.825  18.666  0.00  0.00    +0.000 A 
ATOM      3  C   UNL     1       2.887   3.169  17.846  0.00  0.00    +0.000 A 
ATOM      4  C   UNL     1       3.564   4.394  17.976  0.00  0.00    +0.000 A 
ATOM      5  C   UNL     1       3.105   5.272  18.959  0.00  0.00    +0.000 A 
ATOM      6  C   UNL     1       2.011   4.960  19.792  0.00  0.00    +0.000 A 
ENDROOT
BRANCH   4   7
ATOM      7  C   UNL     1       4.713   4.730  17.112  0.00  0.00    +0.000 A 
ATOM      8  C   UNL     1       5.755   5.584  17.541  0.00  0.00    +0.000 A 
ATOM      9  C   UNL     1       6.853   5.879  16.706  0.00  0.00    +0.000 A 
ATOM     10  C   UNL     1       6.887   5.315  15.437  0.00  0.00    +0.000 A 
ATOM     11  C   UNL     1       5.880   4.488  15.020  0.00  0.00    +0.000 A 
ATOM     12  C   UNL     1       4.803   4.184  15.821  0.00  0.00    +0.000 A 
ATOM     13  O   UNL     1       6.041   4.010  13.757  0.00  0.00    +0.000 OA
ATOM     14  C   UNL     1       7.249   4.684  13.370  0.00  0.00    +0.000 C 
ATOM     15  O   UNL     1       7.828   5.460  14.458  0.00  0.00    +0.000 OA
ENDBRANCH   4   7
BRANCH   1  16
ATOM     16  O   UNL     1       0.378   3.356  20.503  0.00  0.00    +0.000 OA
ATOM     17  H   UNL     1       0.734   3.022  21.347  0.00  0.00    +0.000 HD
ENDBRANCH   1  16
BRANCH   6  18
ATOM     18  C   UNL     1       1.581   5.975  20.822  0.00  0.00    +0.000 C 
BRANCH  18  19
ATOM     19  N   UNL     1       1.995   7.312  20.424  0.00  0.00    +0.000 NA
ATOM     20  H   UNL     1       1.641   7.552  19.501  0.00  0.00    +0.000 HD
BRANCH  19  21
ATOM     21  C   UNL     1       1.695   8.322  21.414  0.00  0.00    +0.000 C 
BRANCH  21  22
ATOM     22  C   UNL     1       0.289   8.829  21.043  0.00  0.00    +0.000 C 
ATOM     23  C   UNL     1       0.474  10.212  19.765  0.00  0.00    +0.000 C 
ATOM     24  C   UNL     1      -0.443  11.561  20.433  0.00  0.00    +0.000 C 
ATOM     25  C   UNL     1      -1.013  10.393  20.943  0.00  0.00    +0.000 C 
ATOM     26  C   UNL     1       0.167  10.538  21.841  0.00  0.00    +0.000 C 
ATOM     27  C   UNL     1      -0.700   9.614  22.377  0.00  0.00    +0.000 C 
ATOM     28  C   UNL     1      -1.079  11.438  22.077  0.00  0.00    +0.000 C 
ATOM     29  C   UNL     1      -2.180  12.049  22.867  0.00  0.00    +0.000 C 
ATOM     30  C   UNL     1      -0.808  12.707  22.874  0.00  0.00    +0.000 C 
ENDBRANCH  21  22
ENDBRANCH  19  21
ENDBRANCH  18  19
ENDBRANCH   6  18
TORSDOF 6
ENDMDL
