MODEL 1
REMARK VINA RESULT:      -7.6      0.000      0.000
REMARK  Name = 
REMARK  2 active torsions:
REMARK  status: ('A' for Active; 'I' for Inactive)
REMARK    1  A    between atoms: C_1  and  C_2
REMARK    2  A    between atoms: C_2  and  C_3
REMARK                            x       y       z     vdW  Elec       q    Type
REMARK                         _______ _______ _______ _____ _____    ______ ____
ROOT
ATOM      1  C   UNL     1       1.429   2.200  17.997  0.00  0.00    +0.000 C 
ATOM      2  C   UNL     1       2.851   2.589  18.442  0.00  0.00    +0.000 C 
ATOM      3  C   UNL     1       3.625   1.300  18.780  0.00  0.00    +0.000 C 
ATOM      4  O   UNL     1       3.471   3.170  17.257  0.00  0.00    +0.000 OA
ATOM      5  C   UNL     1       4.621   3.922  17.443  0.00  0.00    +0.000 C 
ATOM      6  C   UNL     1       5.027   4.346  18.649  0.00  0.00    +0.000 C 
ATOM      7  C   UNL     1       4.241   4.108  19.902  0.00  0.00    +0.000 C 
ATOM      8  C   UNL     1       2.819   3.646  19.574  0.00  0.00    +0.000 C 
ATOM      9  I   UNL     1       1.841   3.023  21.402  0.00  0.00    +0.000 I 
ATOM     10  C   UNL     1       6.299   5.088  18.810  0.00  0.00    +0.000 C 
ATOM     11  O   UNL     1       6.693   5.445  19.915  0.00  0.00    +0.000 OA
ATOM     12  C   UNL     1       7.116   5.386  17.571  0.00  0.00    +0.000 C 
ATOM     13  O   UNL     1       8.169   6.003  17.657  0.00  0.00    +0.000 OA
ATOM     14  C   UNL     1       6.605   4.914  16.274  0.00  0.00    +0.000 A 
ATOM     15  C   UNL     1       7.355   5.186  15.119  0.00  0.00    +0.000 A 
ATOM     16  C   UNL     1       6.897   4.758  13.878  0.00  0.00    +0.000 A 
ATOM     17  C   UNL     1       5.694   4.062  13.793  0.00  0.00    +0.000 A 
ATOM     18  C   UNL     1       4.949   3.791  14.948  0.00  0.00    +0.000 A 
ATOM     19  C   UNL     1       5.394   4.210  16.213  0.00  0.00    +0.000 A 
ENDROOT
TORSDOF 0
ENDMDL
MODEL 2
REMARK VINA RESULT:      -7.1      4.617      6.357
REMARK  Name = 
REMARK  2 active torsions:
REMARK  status: ('A' for Active; 'I' for Inactive)
REMARK    1  A    between atoms: C_1  and  C_2
REMARK    2  A    between atoms: C_2  and  C_3
REMARK                            x       y       z     vdW  Elec       q    Type
REMARK                         _______ _______ _______ _____ _____    ______ ____
ROOT
ATOM      1  C   UNL     1       2.116   3.429  21.829  0.00  0.00    +0.000 C 
ATOM      2  C   UNL     1       2.070   4.258  20.533  0.00  0.00    +0.000 C 
ATOM      3  C   UNL     1       0.905   3.743  19.666  0.00  0.00    +0.000 C 
ATOM      4  O   UNL     1       1.729   5.609  20.962  0.00  0.00    +0.000 OA
ATOM      5  C   UNL     1       1.955   6.641  20.063  0.00  0.00    +0.000 C 
ATOM      6  C   UNL     1       2.696   6.490  18.955  0.00  0.00    +0.000 C 
ATOM      7  C   UNL     1       3.406   5.215  18.616  0.00  0.00    +0.000 C 
ATOM      8  C   UNL     1       3.449   4.278  19.827  0.00  0.00    +0.000 C 
ATOM      9  I   UNL     1       4.201   2.349  19.197  0.00  0.00    +0.000 I 
ATOM     10  C   UNL     1       2.855   7.600  17.986  0.00  0.00    +0.000 C 
ATOM     11  O   UNL     1       3.500   7.457  16.954  0.00  0.00    +0.000 OA
ATOM     12  C   UNL     1       2.186   8.923  18.296  0.00  0.00    +0.000 C 
ATOM     13  O   UNL     1       2.298   9.868  17.528  0.00  0.00    +0.000 OA
ATOM     14  C   UNL     1       1.407   9.031  19.540  0.00  0.00    +0.000 A 
ATOM     15  C   UNL     1       0.784  10.253  19.837  0.00  0.00    +0.000 A 
ATOM     16  C   UNL     1       0.044  10.389  21.006  0.00  0.00    +0.000 A 
ATOM     17  C   UNL     1      -0.070   9.307  21.875  0.00  0.00    +0.000 A 
ATOM     18  C   UNL     1       0.552   8.088  21.575  0.00  0.00    +0.000 A 
ATOM     19  C   UNL     1       1.301   7.926  20.397  0.00  0.00    +0.000 A 
ENDROOT
TORSDOF 0
ENDMDL
MODEL 3
REMARK VINA RESULT:      -6.8      5.468      7.343
REMARK  Name = 
REMARK  2 active torsions:
REMARK  status: ('A' for Active; 'I' for Inactive)
REMARK    1  A    between atoms: C_1  and  C_2
REMARK    2  A    between atoms: C_2  and  C_3
REMARK                            x       y       z     vdW  Elec       q    Type
REMARK                         _______ _______ _______ _____ _____    ______ ____
ROOT
ATOM      1  C   UNL     1       2.569   4.148  21.547  0.00  0.00    +0.000 C 
ATOM      2  C   UNL     1       2.164   5.120  20.425  0.00  0.00    +0.000 C 
ATOM      3  C   UNL     1       0.941   4.535  19.691  0.00  0.00    +0.000 C 
ATOM      4  O   UNL     1       1.720   6.327  21.113  0.00  0.00    +0.000 OA
ATOM      5  C   UNL     1       1.626   7.491  20.365  0.00  0.00    +0.000 C 
ATOM      6  C   UNL     1       2.159   7.613  19.139  0.00  0.00    +0.000 C 
ATOM      7  C   UNL     1       2.967   6.531  18.491  0.00  0.00    +0.000 C 
ATOM      8  C   UNL     1       3.369   5.464  19.513  0.00  0.00    +0.000 C 
ATOM      9  I   UNL     1       4.255   3.788  18.470  0.00  0.00    +0.000 I 
ATOM     10  C   UNL     1       1.975   8.851  18.347  0.00  0.00    +0.000 C 
ATOM     11  O   UNL     1       2.428   8.954  17.213  0.00  0.00    +0.000 OA
ATOM     12  C   UNL     1       1.194   9.991  18.968  0.00  0.00    +0.000 C 
ATOM     13  O   UNL     1       1.025  11.033  18.352  0.00  0.00    +0.000 OA
ATOM     14  C   UNL     1       0.655   9.802  20.325  0.00  0.00    +0.000 A 
ATOM     15  C   UNL     1      -0.068  10.853  20.910  0.00  0.00    +0.000 A 
ATOM     16  C   UNL     1      -0.587  10.708  22.192  0.00  0.00    +0.000 A 
ATOM     17  C   UNL     1      -0.382   9.518  22.885  0.00  0.00    +0.000 A 
ATOM     18  C   UNL     1       0.339   8.471  22.297  0.00  0.00    +0.000 A 
ATOM     19  C   UNL     1       0.870   8.593  21.001  0.00  0.00    +0.000 A 
ENDROOT
TORSDOF 0
ENDMDL
MODEL 4
REMARK VINA RESULT:      -6.7      4.130      5.144
REMARK  Name = 
REMARK  2 active torsions:
REMARK  status: ('A' for Active; 'I' for Inactive)
REMARK    1  A    between atoms: C_1  and  C_2
REMARK    2  A    between atoms: C_2  and  C_3
REMARK                            x       y       z     vdW  Elec       q    Type
REMARK                         _______ _______ _______ _____ _____    ______ ____
ROOT
ATOM      1  C   UNL     1       2.171  10.753  18.041  0.00  0.00    +0.000 C 
ATOM      2  C   UNL     1       1.796   9.311  18.425  0.00  0.00    +0.000 C 
ATOM      3  C   UNL     1       0.512   8.923  17.666  0.00  0.00    +0.000 C 
ATOM      4  O   UNL     1       2.877   8.487  17.899  0.00  0.00    +0.000 OA
ATOM      5  C   UNL     1       2.991   7.194  18.389  0.00  0.00    +0.000 C 
ATOM      6  C   UNL     1       2.337   6.769  19.481  0.00  0.00    +0.000 C 
ATOM      7  C   UNL     1       1.477   7.668  20.315  0.00  0.00    +0.000 C 
ATOM      8  C   UNL     1       1.722   9.138  19.964  0.00  0.00    +0.000 C 
ATOM      9  I   UNL     1       0.243  10.358  20.967  0.00  0.00    +0.000 I 
ATOM     10  C   UNL     1       2.433   5.360  19.928  0.00  0.00    +0.000 C 
ATOM     11  O   UNL     1       1.809   4.958  20.903  0.00  0.00    +0.000 OA
ATOM     12  C   UNL     1       3.317   4.417  19.140  0.00  0.00    +0.000 C 
ATOM     13  O   UNL     1       3.431   3.247  19.479  0.00  0.00    +0.000 OA
ATOM     14  C   UNL     1       4.026   4.950  17.966  0.00  0.00    +0.000 A 
ATOM     15  C   UNL     1       4.848   4.083  17.229  0.00  0.00    +0.000 A 
ATOM     16  C   UNL     1       5.535   4.557  16.117  0.00  0.00    +0.000 A 
ATOM     17  C   UNL     1       5.401   5.893  15.745  0.00  0.00    +0.000 A 
ATOM     18  C   UNL     1       4.578   6.754  16.482  0.00  0.00    +0.000 A 
ATOM     19  C   UNL     1       3.871   6.297  17.607  0.00  0.00    +0.000 A 
ENDROOT
TORSDOF 0
ENDMDL
MODEL 5
REMARK VINA RESULT:      -6.6      4.309      6.086
REMARK  Name = 
REMARK  2 active torsions:
REMARK  status: ('A' for Active; 'I' for Inactive)
REMARK    1  A    between atoms: C_1  and  C_2
REMARK    2  A    between atoms: C_2  and  C_3
REMARK                            x       y       z     vdW  Elec       q    Type
REMARK                         _______ _______ _______ _____ _____    ______ ____
ROOT
ATOM      1  C   UNL     1      -0.541   8.591  21.904  0.00  0.00    +0.000 C 
ATOM      2  C   UNL     1       0.768   8.471  21.105  0.00  0.00    +0.000 C 
ATOM      3  C   UNL     1       1.907   9.087  21.941  0.00  0.00    +0.000 C 
ATOM      4  O   UNL     1       1.024   7.038  21.013  0.00  0.00    +0.000 OA
ATOM      5  C   UNL     1       1.938   6.612  20.061  0.00  0.00    +0.000 C 
ATOM      6  C   UNL     1       2.385   7.406  19.076  0.00  0.00    +0.000 C 
ATOM      7  C   UNL     1       1.889   8.804  18.867  0.00  0.00    +0.000 C 
ATOM      8  C   UNL     1       0.615   9.057  19.678  0.00  0.00    +0.000 C 
ATOM      9  I   UNL     1       0.126  11.163  19.585  0.00  0.00    +0.000 I 
ATOM     10  C   UNL     1       3.415   6.933  18.121  0.00  0.00    +0.000 C 
ATOM     11  O   UNL     1       3.854   7.665  17.243  0.00  0.00    +0.000 OA
ATOM     12  C   UNL     1       3.927   5.515  18.266  0.00  0.00    +0.000 C 
ATOM     13  O   UNL     1       4.771   5.080  17.494  0.00  0.00    +0.000 OA
ATOM     14  C   UNL     1       3.380   4.687  19.352  0.00  0.00    +0.000 A 
ATOM     15  C   UNL     1       3.847   3.372  19.494  0.00  0.00    +0.000 A 
ATOM     16  C   UNL     1       3.347   2.563  20.508  0.00  0.00    +0.000 A 
ATOM     17  C   UNL     1       2.381   3.067  21.375  0.00  0.00    +0.000 A 
ATOM     18  C   UNL     1       1.918   4.382  21.232  0.00  0.00    +0.000 A 
ATOM     19  C   UNL     1       2.412   5.219  20.218  0.00  0.00    +0.000 A 
ENDROOT
TORSDOF 0
ENDMDL
MODEL 6
REMARK VINA RESULT:      -6.4      3.002      5.902
REMARK  Name = 
REMARK  2 active torsions:
REMARK  status: ('A' for Active; 'I' for Inactive)
REMARK    1  A    between atoms: C_1  and  C_2
REMARK    2  A    between atoms: C_2  and  C_3
REMARK                            x       y       z     vdW  Elec       q    Type
REMARK                         _______ _______ _______ _____ _____    ______ ____
ROOT
ATOM      1  C   UNL     1       5.374   7.090  15.087  0.00  0.00    +0.000 C 
ATOM      2  C   UNL     1       5.302   5.900  16.061  0.00  0.00    +0.000 C 
ATOM      3  C   UNL     1       6.609   5.858  16.876  0.00  0.00    +0.000 C 
ATOM      4  O   UNL     1       4.225   6.235  16.986  0.00  0.00    +0.000 OA
ATOM      5  C   UNL     1       3.700   5.206  17.755  0.00  0.00    +0.000 C 
ATOM      6  C   UNL     1       3.949   3.911  17.504  0.00  0.00    +0.000 C 
ATOM      7  C   UNL     1       4.758   3.450  16.331  0.00  0.00    +0.000 C 
ATOM      8  C   UNL     1       4.951   4.585  15.321  0.00  0.00    +0.000 C 
ATOM      9  I   UNL     1       6.375   3.955  13.818  0.00  0.00    +0.000 I 
ATOM     10  C   UNL     1       3.425   2.848  18.392  0.00  0.00    +0.000 C 
ATOM     11  O   UNL     1       3.680   1.666  18.189  0.00  0.00    +0.000 OA
ATOM     12  C   UNL     1       2.572   3.257  19.575  0.00  0.00    +0.000 C 
ATOM     13  O   UNL     1       2.112   2.411  20.328  0.00  0.00    +0.000 OA
ATOM     14  C   UNL     1       2.317   4.692  19.781  0.00  0.00    +0.000 A 
ATOM     15  C   UNL     1       1.527   5.082  20.873  0.00  0.00    +0.000 A 
ATOM     16  C   UNL     1       1.263   6.429  21.094  0.00  0.00    +0.000 A 
ATOM     17  C   UNL     1       1.787   7.382  20.224  0.00  0.00    +0.000 A 
ATOM     18  C   UNL     1       2.577   6.989  19.136  0.00  0.00    +0.000 A 
ATOM     19  C   UNL     1       2.860   5.634  18.895  0.00  0.00    +0.000 A 
ENDROOT
TORSDOF 0
ENDMDL
MODEL 7
REMARK VINA RESULT:      -6.4      3.563      6.046
REMARK  Name = 
REMARK  2 active torsions:
REMARK  status: ('A' for Active; 'I' for Inactive)
REMARK    1  A    between atoms: C_1  and  C_2
REMARK    2  A    between atoms: C_2  and  C_3
REMARK                            x       y       z     vdW  Elec       q    Type
REMARK                         _______ _______ _______ _____ _____    ______ ____
ROOT
ATOM      1  C   UNL     1       5.050   7.189  15.165  0.00  0.00    +0.000 C 
ATOM      2  C   UNL     1       5.039   6.364  16.464  0.00  0.00    +0.000 C 
ATOM      3  C   UNL     1       6.321   6.686  17.257  0.00  0.00    +0.000 C 
ATOM      4  O   UNL     1       3.913   6.884  17.231  0.00  0.00    +0.000 OA
ATOM      5  C   UNL     1       3.444   6.110  18.282  0.00  0.00    +0.000 C 
ATOM      6  C   UNL     1       3.797   4.827  18.454  0.00  0.00    +0.000 C 
ATOM      7  C   UNL     1       4.673   4.087  17.491  0.00  0.00    +0.000 C 
ATOM      8  C   UNL     1       4.811   4.859  16.176  0.00  0.00    +0.000 C 
ATOM      9  I   UNL     1       6.322   3.907  14.954  0.00  0.00    +0.000 I 
ATOM     10  C   UNL     1       3.328   4.057  19.630  0.00  0.00    +0.000 C 
ATOM     11  O   UNL     1       3.677   2.896  19.812  0.00  0.00    +0.000 OA
ATOM     12  C   UNL     1       2.412   4.747  20.619  0.00  0.00    +0.000 C 
ATOM     13  O   UNL     1       1.995   4.146  21.599  0.00  0.00    +0.000 OA
ATOM     14  C   UNL     1       2.043   6.148  20.361  0.00  0.00    +0.000 A 
ATOM     15  C   UNL     1       1.193   6.796  21.271  0.00  0.00    +0.000 A 
ATOM     16  C   UNL     1       0.823   8.118  21.054  0.00  0.00    +0.000 A 
ATOM     17  C   UNL     1       1.299   8.789  19.930  0.00  0.00    +0.000 A 
ATOM     18  C   UNL     1       2.149   8.140  19.025  0.00  0.00    +0.000 A 
ATOM     19  C   UNL     1       2.540   6.805  19.226  0.00  0.00    +0.000 A 
ENDROOT
TORSDOF 0
ENDMDL
MODEL 8
REMARK VINA RESULT:      -6.0     10.129     11.240
REMARK  Name = 
REMARK  2 active torsions:
REMARK  status: ('A' for Active; 'I' for Inactive)
REMARK    1  A    between atoms: C_1  and  C_2
REMARK    2  A    between atoms: C_2  and  C_3
REMARK                            x       y       z     vdW  Elec       q    Type
REMARK                         _______ _______ _______ _____ _____    ______ ____
ROOT
ATOM      1  C   UNL     1      -4.159  14.924  21.808  0.00  0.00    +0.000 C 
ATOM      2  C   UNL     1      -3.154  13.766  21.942  0.00  0.00    +0.000 C 
ATOM      3  C   UNL     1      -3.762  12.698  22.872  0.00  0.00    +0.000 C 
ATOM      4  O   UNL     1      -3.070  13.183  20.608  0.00  0.00    +0.000 OA
ATOM      5  C   UNL     1      -1.993  12.352  20.341  0.00  0.00    +0.000 C 
ATOM      6  C   UNL     1      -0.919  12.273  21.142  0.00  0.00    +0.000 C 
ATOM      7  C   UNL     1      -0.749  13.125  22.362  0.00  0.00    +0.000 C 
ATOM      8  C   UNL     1      -1.754  14.279  22.366  0.00  0.00    +0.000 C 
ATOM      9  I   UNL     1      -1.671  15.280  24.283  0.00  0.00    +0.000 I 
ATOM     10  C   UNL     1       0.179  11.320  20.855  0.00  0.00    +0.000 C 
ATOM     11  O   UNL     1       1.145  11.218  21.603  0.00  0.00    +0.000 OA
ATOM     12  C   UNL     1       0.074  10.458  19.614  0.00  0.00    +0.000 C 
ATOM     13  O   UNL     1       0.961   9.664  19.335  0.00  0.00    +0.000 OA
ATOM     14  C   UNL     1      -1.118  10.609  18.764  0.00  0.00    +0.000 A 
ATOM     15  C   UNL     1      -1.225   9.816  17.612  0.00  0.00    +0.000 A 
ATOM     16  C   UNL     1      -2.337   9.937  16.786  0.00  0.00    +0.000 A 
ATOM     17  C   UNL     1      -3.337  10.850  17.111  0.00  0.00    +0.000 A 
ATOM     18  C   UNL     1      -3.228  11.639  18.264  0.00  0.00    +0.000 A 
ATOM     19  C   UNL     1      -2.116  11.531  19.116  0.00  0.00    +0.000 A 
ENDROOT
TORSDOF 0
ENDMDL
MODEL 9
REMARK VINA RESULT:      -5.8     11.355     12.756
REMARK  Name = 
REMARK  2 active torsions:
REMARK  status: ('A' for Active; 'I' for Inactive)
REMARK    1  A    between atoms: C_1  and  C_2
REMARK    2  A    between atoms: C_2  and  C_3
REMARK                            x       y       z     vdW  Elec       q    Type
REMARK                         _______ _______ _______ _____ _____    ______ ____
ROOT
ATOM      1  C   UNL     1      -0.979  12.475  22.520  0.00  0.00    +0.000 C 
ATOM      2  C   UNL     1      -2.088  13.052  21.623  0.00  0.00    +0.000 C 
ATOM      3  C   UNL     1      -1.608  14.405  21.063  0.00  0.00    +0.000 C 
ATOM      4  O   UNL     1      -2.183  12.126  20.500  0.00  0.00    +0.000 OA
ATOM      5  C   UNL     1      -3.323  12.193  19.712  0.00  0.00    +0.000 C 
ATOM      6  C   UNL     1      -4.424  12.865  20.081  0.00  0.00    +0.000 C 
ATOM      7  C   UNL     1      -4.553  13.550  21.407  0.00  0.00    +0.000 C 
ATOM      8  C   UNL     1      -3.448  13.098  22.365  0.00  0.00    +0.000 C 
ATOM      9  I   UNL     1      -3.499  14.339  24.137  0.00  0.00    +0.000 I 
ATOM     10  C   UNL     1      -5.594  12.968  19.178  0.00  0.00    +0.000 C 
ATOM     11  O   UNL     1      -6.587  13.612  19.495  0.00  0.00    +0.000 OA
ATOM     12  C   UNL     1      -5.529  12.266  17.838  0.00  0.00    +0.000 C 
ATOM     13  O   UNL     1      -6.476  12.318  17.066  0.00  0.00    +0.000 OA
ATOM     14  C   UNL     1      -4.303  11.525  17.503  0.00  0.00    +0.000 A 
ATOM     15  C   UNL     1      -4.233  10.869  16.264  0.00  0.00    +0.000 A 
ATOM     16  C   UNL     1      -3.090  10.157  15.919  0.00  0.00    +0.000 A 
ATOM     17  C   UNL     1      -2.022  10.100  16.810  0.00  0.00    +0.000 A 
ATOM     18  C   UNL     1      -2.094  10.757  18.045  0.00  0.00    +0.000 A 
ATOM     19  C   UNL     1      -3.237  11.486  18.414  0.00  0.00    +0.000 A 
ENDROOT
TORSDOF 0
ENDMDL
