MODEL 1
REMARK VINA RESULT:      -7.6      0.000      0.000
REMARK  Name = 
REMARK  5 active torsions:
REMARK  status: ('A' for Active; 'I' for Inactive)
REMARK    1  A    between atoms: C_1  and  C_2
REMARK    2  A    between atoms: C_2  and  C_3
REMARK    3  A    between atoms: C_7  and  C_8
REMARK    4  A    between atoms: C_21  and  C_22
REMARK    5  A    between atoms: C_26  and  C_27
REMARK                            x       y       z     vdW  Elec       q    Type
REMARK                         _______ _______ _______ _____ _____    ______ ____
ROOT
ATOM      1  C   UNL     1       1.813   7.960  19.750  0.00  0.00    +0.000 C 
ATOM      2  C   UNL     1       1.860   8.622  18.577  0.00  0.00    +0.000 C 
ATOM      3  C   UNL     1       0.989   9.817  18.550  0.00  0.00    +0.000 C 
ATOM      4  C   UNL     1       0.867  10.101  20.030  0.00  0.00    +0.000 C 
ATOM      5  C   UNL     1      -0.313  10.949  20.451  0.00  0.00    +0.000 C 
ATOM      6  C   UNL     1      -0.512  12.155  19.554  0.00  0.00    +0.000 C 
ATOM      7  C   UNL     1      -1.939  12.568  19.725  0.00  0.00    +0.000 C 
ATOM      8  N   UNL     1      -2.384  12.656  21.098  0.00  0.00    +0.000 NA
ATOM      9  C   UNL     1      -3.761  13.088  21.199  0.00  0.00    +0.000 C 
ATOM     10  C   UNL     1      -3.853  14.593  21.031  0.00  0.00    +0.000 C 
ATOM     11  C   UNL     1      -3.392  15.280  22.304  0.00  0.00    +0.000 C 
ATOM     12  C   UNL     1      -1.899  15.082  22.640  0.00  0.00    +0.000 C 
ATOM     13  C   UNL     1      -1.290  13.705  23.065  0.00  0.00    +0.000 C 
ATOM     14  C   UNL     1      -1.561  12.345  22.281  0.00  0.00    +0.000 C 
ATOM     15  C   UNL     1      -2.372  11.455  23.259  0.00  0.00    +0.000 C 
ATOM     16  C   UNL     1      -0.172  11.490  21.898  0.00  0.00    +0.000 C 
ATOM     17  C   UNL     1       0.358  10.308  22.827  0.00  0.00    +0.000 C 
ATOM     18  C   UNL     1       1.371   9.235  22.188  0.00  0.00    +0.000 C 
ATOM     19  C   UNL     1       0.925   8.733  20.773  0.00  0.00    +0.000 C 
ATOM     20  C   UNL     1      -0.387   7.950  20.979  0.00  0.00    +0.000 C 
ENDROOT
BRANCH   1  25
ATOM     21  C   UNL     1       2.594   4.319  20.405  0.00  0.00    +0.000 A 
ATOM     22  C   UNL     1       3.303   4.049  19.240  0.00  0.00    +0.000 A 
ATOM     23  N   UNL     1       3.398   4.910  18.208  0.00  0.00    +0.000 NA
ATOM     24  C   UNL     1       2.780   6.111  18.357  0.00  0.00    +0.000 A 
ATOM     25  C   UNL     1       2.034   6.515  19.477  0.00  0.00    +0.000 A 
ATOM     26  C   UNL     1       1.952   5.568  20.507  0.00  0.00    +0.000 A 
BRANCH  21  28
ATOM     27  C   UNL     1       1.304   2.501  21.608  0.00  0.00    +0.000 C 
ATOM     28  C   UNL     1       2.585   3.322  21.534  0.00  0.00    +0.000 C 
ENDBRANCH  21  28
ENDBRANCH   1  25
TORSDOF 2
ENDMDL
MODEL 2
REMARK VINA RESULT:      -7.4      1.603      2.600
REMARK  Name = 
REMARK  5 active torsions:
REMARK  status: ('A' for Active; 'I' for Inactive)
REMARK    1  A    between atoms: C_1  and  C_2
REMARK    2  A    between atoms: C_2  and  C_3
REMARK    3  A    between atoms: C_7  and  C_8
REMARK    4  A    between atoms: C_21  and  C_22
REMARK    5  A    between atoms: C_26  and  C_27
REMARK                            x       y       z     vdW  Elec       q    Type
REMARK                         _______ _______ _______ _____ _____    ______ ____
ROOT
ATOM      1  C   UNL     1       1.416   9.141  19.281  0.00  0.00    +0.000 C 
ATOM      2  C   UNL     1       0.946   9.197  18.020  0.00  0.00    +0.000 C 
ATOM      3  C   UNL     1      -0.327   9.942  17.907  0.00  0.00    +0.000 C 
ATOM      4  C   UNL     1      -0.253  10.800  19.150  0.00  0.00    +0.000 C 
ATOM      5  C   UNL     1      -1.565  11.357  19.655  0.00  0.00    +0.000 C 
ATOM      6  C   UNL     1      -2.423  11.925  18.542  0.00  0.00    +0.000 C 
ATOM      7  C   UNL     1      -3.825  11.931  19.061  0.00  0.00    +0.000 C 
ATOM      8  N   UNL     1      -3.978  12.481  20.389  0.00  0.00    +0.000 NA
ATOM      9  C   UNL     1      -5.359  12.486  20.822  0.00  0.00    +0.000 C 
ATOM     10  C   UNL     1      -6.097  13.661  20.208  0.00  0.00    +0.000 C 
ATOM     11  C   UNL     1      -5.714  14.940  20.929  0.00  0.00    +0.000 C 
ATOM     12  C   UNL     1      -4.239  15.360  20.759  0.00  0.00    +0.000 C 
ATOM     13  C   UNL     1      -3.042  14.561  21.372  0.00  0.00    +0.000 C 
ATOM     14  C   UNL     1      -2.879  12.982  21.234  0.00  0.00    +0.000 C 
ATOM     15  C   UNL     1      -3.032  12.420  22.672  0.00  0.00    +0.000 C 
ATOM     16  C   UNL     1      -1.371  12.497  20.690  0.00  0.00    +0.000 C 
ATOM     17  C   UNL     1      -0.222  12.061  21.707  0.00  0.00    +0.000 C 
ATOM     18  C   UNL     1       0.991  11.167  21.146  0.00  0.00    +0.000 C 
ATOM     19  C   UNL     1       0.516   9.986  20.234  0.00  0.00    +0.000 C 
ATOM     20  C   UNL     1      -0.283   9.027  21.138  0.00  0.00    +0.000 C 
ENDROOT
BRANCH   1  25
ATOM     21  C   UNL     1       3.251   5.974  18.330  0.00  0.00    +0.000 A 
ATOM     22  C   UNL     1       2.767   5.147  19.337  0.00  0.00    +0.000 A 
ATOM     23  N   UNL     1       2.030   5.588  20.375  0.00  0.00    +0.000 NA
ATOM     24  C   UNL     1       1.736   6.915  20.394  0.00  0.00    +0.000 A 
ATOM     25  C   UNL     1       2.155   7.860  19.443  0.00  0.00    +0.000 A 
ATOM     26  C   UNL     1       2.938   7.345  18.401  0.00  0.00    +0.000 A 
BRANCH  21  28
ATOM     27  C   UNL     1       4.930   6.395  16.481  0.00  0.00    +0.000 C 
ATOM     28  C   UNL     1       4.021   5.389  17.174  0.00  0.00    +0.000 C 
ENDBRANCH  21  28
ENDBRANCH   1  25
TORSDOF 2
ENDMDL
MODEL 3
REMARK VINA RESULT:      -7.3      1.042      1.771
REMARK  Name = 
REMARK  5 active torsions:
REMARK  status: ('A' for Active; 'I' for Inactive)
REMARK    1  A    between atoms: C_1  and  C_2
REMARK    2  A    between atoms: C_2  and  C_3
REMARK    3  A    between atoms: C_7  and  C_8
REMARK    4  A    between atoms: C_21  and  C_22
REMARK    5  A    between atoms: C_26  and  C_27
REMARK                            x       y       z     vdW  Elec       q    Type
REMARK                         _______ _______ _______ _____ _____    ______ ____
ROOT
ATOM      1  C   UNL     1       1.917   7.667  20.031  0.00  0.00    +0.000 C 
ATOM      2  C   UNL     1       1.976   8.226  18.807  0.00  0.00    +0.000 C 
ATOM      3  C   UNL     1       1.106   9.415  18.668  0.00  0.00    +0.000 C 
ATOM      4  C   UNL     1       0.968   9.823  20.117  0.00  0.00    +0.000 C 
ATOM      5  C   UNL     1      -0.215  10.703  20.452  0.00  0.00    +0.000 C 
ATOM      6  C   UNL     1      -0.404  11.828  19.454  0.00  0.00    +0.000 C 
ATOM      7  C   UNL     1      -1.833  12.254  19.575  0.00  0.00    +0.000 C 
ATOM      8  N   UNL     1      -2.293  12.459  20.930  0.00  0.00    +0.000 NA
ATOM      9  C   UNL     1      -3.671  12.897  20.979  0.00  0.00    +0.000 C 
ATOM     10  C   UNL     1      -3.760  14.382  20.682  0.00  0.00    +0.000 C 
ATOM     11  C   UNL     1      -3.312  15.175  21.896  0.00  0.00    +0.000 C 
ATOM     12  C   UNL     1      -1.823  15.008  22.264  0.00  0.00    +0.000 C 
ATOM     13  C   UNL     1      -1.219  13.673  22.812  0.00  0.00    +0.000 C 
ATOM     14  C   UNL     1      -1.482  12.251  22.144  0.00  0.00    +0.000 C 
ATOM     15  C   UNL     1      -2.303  11.446  23.186  0.00  0.00    +0.000 C 
ATOM     16  C   UNL     1      -0.090  11.366  21.849  0.00  0.00    +0.000 C 
ATOM     17  C   UNL     1       0.431  10.268  22.881  0.00  0.00    +0.000 C 
ATOM     18  C   UNL     1       1.450   9.145  22.347  0.00  0.00    +0.000 C 
ATOM     19  C   UNL     1       1.019   8.524  20.976  0.00  0.00    +0.000 C 
ATOM     20  C   UNL     1      -0.296   7.761  21.234  0.00  0.00    +0.000 C 
ENDROOT
BRANCH   1  25
ATOM     21  C   UNL     1       2.447   4.324  18.344  0.00  0.00    +0.000 A 
ATOM     22  C   UNL     1       1.717   3.534  19.224  0.00  0.00    +0.000 A 
ATOM     23  N   UNL     1       1.215   3.983  20.391  0.00  0.00    +0.000 NA
ATOM     24  C   UNL     1       1.426   5.294  20.681  0.00  0.00    +0.000 A 
ATOM     25  C   UNL     1       2.141   6.204  19.885  0.00  0.00    +0.000 A 
ATOM     26  C   UNL     1       2.659   5.672  18.696  0.00  0.00    +0.000 A 
BRANCH  21  28
ATOM     27  C   UNL     1       4.382   4.080  16.728  0.00  0.00    +0.000 C 
ATOM     28  C   UNL     1       2.925   3.757  17.034  0.00  0.00    +0.000 C 
ENDBRANCH  21  28
ENDBRANCH   1  25
TORSDOF 2
ENDMDL
MODEL 4
REMARK VINA RESULT:      -7.0      1.843      3.710
REMARK  Name = 
REMARK  5 active torsions:
REMARK  status: ('A' for Active; 'I' for Inactive)
REMARK    1  A    between atoms: C_1  and  C_2
REMARK    2  A    between atoms: C_2  and  C_3
REMARK    3  A    between atoms: C_7  and  C_8
REMARK    4  A    between atoms: C_21  and  C_22
REMARK    5  A    between atoms: C_26  and  C_27
REMARK                            x       y       z     vdW  Elec       q    Type
REMARK                         _______ _______ _______ _____ _____    ______ ____
ROOT
ATOM      1  C   UNL     1       2.357   7.238  19.025  0.00  0.00    +0.000 C 
ATOM      2  C   UNL     1       2.219   6.951  20.334  0.00  0.00    +0.000 C 
ATOM      3  C   UNL     1       1.482   7.993  21.083  0.00  0.00    +0.000 C 
ATOM      4  C   UNL     1       0.712   8.645  19.957  0.00  0.00    +0.000 C 
ATOM      5  C   UNL     1       0.206  10.046  20.220  0.00  0.00    +0.000 C 
ATOM      6  C   UNL     1      -0.428  10.188  21.590  0.00  0.00    +0.000 C 
ATOM      7  C   UNL     1      -0.381  11.647  21.918  0.00  0.00    +0.000 C 
ATOM      8  N   UNL     1      -0.836  12.521  20.861  0.00  0.00    +0.000 NA
ATOM      9  C   UNL     1      -0.796  13.915  21.250  0.00  0.00    +0.000 C 
ATOM     10  C   UNL     1      -2.001  14.256  22.105  0.00  0.00    +0.000 C 
ATOM     11  C   UNL     1      -3.232  14.386  21.226  0.00  0.00    +0.000 C 
ATOM     12  C   UNL     1      -3.680  13.077  20.544  0.00  0.00    +0.000 C 
ATOM     13  C   UNL     1      -2.853  12.368  19.421  0.00  0.00    +0.000 C 
ATOM     14  C   UNL     1      -1.290  12.081  19.529  0.00  0.00    +0.000 C 
ATOM     15  C   UNL     1      -0.628  12.963  18.437  0.00  0.00    +0.000 C 
ATOM     16  C   UNL     1      -0.861  10.498  19.188  0.00  0.00    +0.000 C 
ATOM     17  C   UNL     1      -0.369  10.066  17.735  0.00  0.00    +0.000 C 
ATOM     18  C   UNL     1       0.470   8.702  17.590  0.00  0.00    +0.000 C 
ATOM     19  C   UNL     1       1.591   8.549  18.674  0.00  0.00    +0.000 C 
ATOM     20  C   UNL     1       2.618   9.665  18.401  0.00  0.00    +0.000 C 
ENDROOT
BRANCH   1  25
ATOM     21  C   UNL     1       4.928   5.815  16.644  0.00  0.00    +0.000 A 
ATOM     22  C   UNL     1       5.456   4.835  17.476  0.00  0.00    +0.000 A 
ATOM     23  N   UNL     1       5.151   4.721  18.784  0.00  0.00    +0.000 NA
ATOM     24  C   UNL     1       4.250   5.610  19.279  0.00  0.00    +0.000 A 
ATOM     25  C   UNL     1       3.637   6.645  18.554  0.00  0.00    +0.000 A 
ATOM     26  C   UNL     1       4.013   6.728  17.206  0.00  0.00    +0.000 A 
BRANCH  21  28
ATOM     27  C   UNL     1       5.849   4.517  14.673  0.00  0.00    +0.000 C 
ATOM     28  C   UNL     1       5.281   5.837  15.180  0.00  0.00    +0.000 C 
ENDBRANCH  21  28
ENDBRANCH   1  25
TORSDOF 2
ENDMDL
MODEL 5
REMARK VINA RESULT:      -6.8      1.904      3.556
REMARK  Name = 
REMARK  5 active torsions:
REMARK  status: ('A' for Active; 'I' for Inactive)
REMARK    1  A    between atoms: C_1  and  C_2
REMARK    2  A    between atoms: C_2  and  C_3
REMARK    3  A    between atoms: C_7  and  C_8
REMARK    4  A    between atoms: C_21  and  C_22
REMARK    5  A    between atoms: C_26  and  C_27
REMARK                            x       y       z     vdW  Elec       q    Type
REMARK                         _______ _______ _______ _____ _____    ______ ____
ROOT
ATOM      1  C   UNL     1       0.796  10.922  20.603  0.00  0.00    +0.000 C 
ATOM      2  C   UNL     1       1.611  11.958  20.327  0.00  0.00    +0.000 C 
ATOM      3  C   UNL     1       1.015  13.271  20.654  0.00  0.00    +0.000 C 
ATOM      4  C   UNL     1      -0.014  12.856  21.681  0.00  0.00    +0.000 C 
ATOM      5  C   UNL     1      -1.150  13.826  21.916  0.00  0.00    +0.000 C 
ATOM      6  C   UNL     1      -0.675  15.260  22.036  0.00  0.00    +0.000 C 
ATOM      7  C   UNL     1      -1.861  16.117  21.726  0.00  0.00    +0.000 C 
ATOM      8  N   UNL     1      -3.077  15.741  22.411  0.00  0.00    +0.000 NA
ATOM      9  C   UNL     1      -4.178  16.624  22.094  0.00  0.00    +0.000 C 
ATOM     10  C   UNL     1      -4.074  17.904  22.900  0.00  0.00    +0.000 C 
ATOM     11  C   UNL     1      -4.505  17.645  24.332  0.00  0.00    +0.000 C 
ATOM     12  C   UNL     1      -3.584  16.690  25.120  0.00  0.00    +0.000 C 
ATOM     13  C   UNL     1      -3.450  15.165  24.798  0.00  0.00    +0.000 C 
ATOM     14  C   UNL     1      -3.217  14.595  23.329  0.00  0.00    +0.000 C 
ATOM     15  C   UNL     1      -4.505  13.803  22.979  0.00  0.00    +0.000 C 
ATOM     16  C   UNL     1      -1.944  13.512  23.211  0.00  0.00    +0.000 C 
ATOM     17  C   UNL     1      -2.185  11.937  23.283  0.00  0.00    +0.000 C 
ATOM     18  C   UNL     1      -1.048  10.966  22.693  0.00  0.00    +0.000 C 
ATOM     19  C   UNL     1      -0.506  11.428  21.298  0.00  0.00    +0.000 C 
ATOM     20  C   UNL     1      -1.679  11.296  20.306  0.00  0.00    +0.000 C 
ENDROOT
BRANCH   1  25
ATOM     21  C   UNL     1       2.180   7.689  19.213  0.00  0.00    +0.000 A 
ATOM     22  C   UNL     1       2.463   8.126  17.924  0.00  0.00    +0.000 A 
ATOM     23  N   UNL     1       2.088   9.328  17.443  0.00  0.00    +0.000 NA
ATOM     24  C   UNL     1       1.424  10.147  18.301  0.00  0.00    +0.000 A 
ATOM     25  C   UNL     1       1.076   9.837  19.626  0.00  0.00    +0.000 A 
ATOM     26  C   UNL     1       1.471   8.564  20.060  0.00  0.00    +0.000 A 
BRANCH  21  28
ATOM     27  C   UNL     1       1.687   5.603  20.561  0.00  0.00    +0.000 C 
ATOM     28  C   UNL     1       2.684   6.352  19.687  0.00  0.00    +0.000 C 
ENDBRANCH  21  28
ENDBRANCH   1  25
TORSDOF 2
ENDMDL
MODEL 6
REMARK VINA RESULT:      -6.8      1.818      3.860
REMARK  Name = 
REMARK  5 active torsions:
REMARK  status: ('A' for Active; 'I' for Inactive)
REMARK    1  A    between atoms: C_1  and  C_2
REMARK    2  A    between atoms: C_2  and  C_3
REMARK    3  A    between atoms: C_7  and  C_8
REMARK    4  A    between atoms: C_21  and  C_22
REMARK    5  A    between atoms: C_26  and  C_27
REMARK                            x       y       z     vdW  Elec       q    Type
REMARK                         _______ _______ _______ _____ _____    ______ ____
ROOT
ATOM      1  C   UNL     1       0.089   9.326  21.001  0.00  0.00    +0.000 C 
ATOM      2  C   UNL     1      -0.233   9.094  22.288  0.00  0.00    +0.000 C 
ATOM      3  C   UNL     1      -0.685  10.309  23.002  0.00  0.00    +0.000 C 
ATOM      4  C   UNL     1      -1.133  11.160  21.835  0.00  0.00    +0.000 C 
ATOM      5  C   UNL     1      -1.219  12.648  22.091  0.00  0.00    +0.000 C 
ATOM      6  C   UNL     1      -1.891  12.974  23.411  0.00  0.00    +0.000 C 
ATOM      7  C   UNL     1      -1.440  14.353  23.776  0.00  0.00    +0.000 C 
ATOM      8  N   UNL     1      -1.527  15.322  22.707  0.00  0.00    +0.000 NA
ATOM      9  C   UNL     1      -1.106  16.641  23.130  0.00  0.00    +0.000 C 
ATOM     10  C   UNL     1      -2.221  17.326  23.897  0.00  0.00    +0.000 C 
ATOM     11  C   UNL     1      -3.282  17.817  22.930  0.00  0.00    +0.000 C 
ATOM     12  C   UNL     1      -4.042  16.700  22.184  0.00  0.00    +0.000 C 
ATOM     13  C   UNL     1      -3.376  15.776  21.112  0.00  0.00    +0.000 C 
ATOM     14  C   UNL     1      -1.982  15.037  21.334  0.00  0.00    +0.000 C 
ATOM     15  C   UNL     1      -1.002  15.680  20.318  0.00  0.00    +0.000 C 
ATOM     16  C   UNL     1      -2.016  13.397  20.991  0.00  0.00    +0.000 C 
ATOM     17  C   UNL     1      -1.559  12.836  19.570  0.00  0.00    +0.000 C 
ATOM     18  C   UNL     1      -1.155  11.285  19.459  0.00  0.00    +0.000 C 
ATOM     19  C   UNL     1      -0.222  10.806  20.622  0.00  0.00    +0.000 C 
ATOM     20  C   UNL     1       1.110  11.564  20.455  0.00  0.00    +0.000 C 
ENDROOT
BRANCH   1  25
ATOM     21  C   UNL     1       2.516   7.439  18.799  0.00  0.00    +0.000 A 
ATOM     22  C   UNL     1       2.474   6.213  19.452  0.00  0.00    +0.000 A 
ATOM     23  N   UNL     1       1.851   6.016  20.630  0.00  0.00    +0.000 NA
ATOM     24  C   UNL     1       1.211   7.087  21.168  0.00  0.00    +0.000 A 
ATOM     25  C   UNL     1       1.169   8.378  20.616  0.00  0.00    +0.000 A 
ATOM     26  C   UNL     1       1.857   8.527  19.403  0.00  0.00    +0.000 A 
BRANCH  21  28
ATOM     27  C   UNL     1       4.381   6.625  17.289  0.00  0.00    +0.000 C 
ATOM     28  C   UNL     1       3.189   7.559  17.456  0.00  0.00    +0.000 C 
ENDBRANCH  21  28
ENDBRANCH   1  25
TORSDOF 2
ENDMDL
MODEL 7
REMARK VINA RESULT:      -6.8      1.540      8.705
REMARK  Name = 
REMARK  5 active torsions:
REMARK  status: ('A' for Active; 'I' for Inactive)
REMARK    1  A    between atoms: C_1  and  C_2
REMARK    2  A    between atoms: C_2  and  C_3
REMARK    3  A    between atoms: C_7  and  C_8
REMARK    4  A    between atoms: C_21  and  C_22
REMARK    5  A    between atoms: C_26  and  C_27
REMARK                            x       y       z     vdW  Elec       q    Type
REMARK                         _______ _______ _______ _____ _____    ______ ____
ROOT
ATOM      1  C   UNL     1       0.821  10.600  20.599  0.00  0.00    +0.000 C 
ATOM      2  C   UNL     1       1.013  10.158  21.857  0.00  0.00    +0.000 C 
ATOM      3  C   UNL     1       1.243   8.699  21.931  0.00  0.00    +0.000 C 
ATOM      4  C   UNL     1       1.731   8.428  20.526  0.00  0.00    +0.000 C 
ATOM      5  C   UNL     1       1.626   6.996  20.049  0.00  0.00    +0.000 C 
ATOM      6  C   UNL     1       2.098   6.000  21.089  0.00  0.00    +0.000 C 
ATOM      7  C   UNL     1       1.461   4.694  20.731  0.00  0.00    +0.000 C 
ATOM      8  N   UNL     1       1.568   4.329  19.337  0.00  0.00    +0.000 NA
ATOM      9  C   UNL     1       0.960   3.045  19.060  0.00  0.00    +0.000 C 
ATOM     10  C   UNL     1       1.896   1.923  19.468  0.00  0.00    +0.000 C 
ATOM     11  C   UNL     1       3.005   1.782  18.440  0.00  0.00    +0.000 C 
ATOM     12  C   UNL     1       3.964   2.989  18.356  0.00  0.00    +0.000 C 
ATOM     13  C   UNL     1       3.532   4.392  17.818  0.00  0.00    +0.000 C 
ATOM     14  C   UNL     1       2.210   5.145  18.290  0.00  0.00    +0.000 C 
ATOM     15  C   UNL     1       1.293   5.202  17.040  0.00  0.00    +0.000 C 
ATOM     16  C   UNL     1       2.461   6.731  18.769  0.00  0.00    +0.000 C 
ATOM     17  C   UNL     1       2.238   7.948  17.762  0.00  0.00    +0.000 C 
ATOM     18  C   UNL     1       2.020   9.416  18.380  0.00  0.00    +0.000 C 
ATOM     19  C   UNL     1       1.013   9.436  19.580  0.00  0.00    +0.000 C 
ATOM     20  C   UNL     1      -0.364   9.052  19.003  0.00  0.00    +0.000 C 
ENDROOT
BRANCH   1  25
ATOM     21  C   UNL     1      -2.290  12.619  21.340  0.00  0.00    +0.000 A 
ATOM     22  C   UNL     1      -2.304  13.401  20.191  0.00  0.00    +0.000 A 
ATOM     23  N   UNL     1      -1.300  13.428  19.293  0.00  0.00    +0.000 NA
ATOM     24  C   UNL     1      -0.242  12.611  19.538  0.00  0.00    +0.000 A 
ATOM     25  C   UNL     1      -0.098  11.769  20.654  0.00  0.00    +0.000 A 
ATOM     26  C   UNL     1      -1.163  11.803  21.563  0.00  0.00    +0.000 A 
BRANCH  21  28
ATOM     27  C   UNL     1      -3.145  12.155  23.679  0.00  0.00    +0.000 C 
ATOM     28  C   UNL     1      -3.480  12.608  22.263  0.00  0.00    +0.000 C 
ENDBRANCH  21  28
ENDBRANCH   1  25
TORSDOF 2
ENDMDL
MODEL 8
REMARK VINA RESULT:      -6.7      1.714      9.007
REMARK  Name = 
REMARK  5 active torsions:
REMARK  status: ('A' for Active; 'I' for Inactive)
REMARK    1  A    between atoms: C_1  and  C_2
REMARK    2  A    between atoms: C_2  and  C_3
REMARK    3  A    between atoms: C_7  and  C_8
REMARK    4  A    between atoms: C_21  and  C_22
REMARK    5  A    between atoms: C_26  and  C_27
REMARK                            x       y       z     vdW  Elec       q    Type
REMARK                         _______ _______ _______ _____ _____    ______ ____
ROOT
ATOM      1  C   UNL     1       0.699  10.770  20.095  0.00  0.00    +0.000 C 
ATOM      2  C   UNL     1       0.702  10.416  21.394  0.00  0.00    +0.000 C 
ATOM      3  C   UNL     1       0.926   8.969  21.602  0.00  0.00    +0.000 C 
ATOM      4  C   UNL     1       1.621   8.612  20.308  0.00  0.00    +0.000 C 
ATOM      5  C   UNL     1       1.596   7.150  19.920  0.00  0.00    +0.000 C 
ATOM      6  C   UNL     1       1.911   6.233  21.085  0.00  0.00    +0.000 C 
ATOM      7  C   UNL     1       1.341   4.897  20.726  0.00  0.00    +0.000 C 
ATOM      8  N   UNL     1       1.660   4.440  19.392  0.00  0.00    +0.000 NA
ATOM      9  C   UNL     1       1.107   3.132  19.116  0.00  0.00    +0.000 C 
ATOM     10  C   UNL     1       1.976   2.054  19.735  0.00  0.00    +0.000 C 
ATOM     11  C   UNL     1       3.228   1.862  18.898  0.00  0.00    +0.000 C 
ATOM     12  C   UNL     1       4.182   3.074  18.876  0.00  0.00    +0.000 C 
ATOM     13  C   UNL     1       3.830   4.432  18.184  0.00  0.00    +0.000 C 
ATOM     14  C   UNL     1       2.448   5.195  18.400  0.00  0.00    +0.000 C 
ATOM     15  C   UNL     1       1.730   5.153  17.025  0.00  0.00    +0.000 C 
ATOM     16  C   UNL     1       2.616   6.813  18.801  0.00  0.00    +0.000 C 
ATOM     17  C   UNL     1       2.541   7.956  17.691  0.00  0.00    +0.000 C 
ATOM     18  C   UNL     1       2.225   9.458  18.167  0.00  0.00    +0.000 C 
ATOM     19  C   UNL     1       1.049   9.543  19.198  0.00  0.00    +0.000 C 
ATOM     20  C   UNL     1      -0.223   9.100  18.449  0.00  0.00    +0.000 C 
ENDROOT
BRANCH   1  25
ATOM     21  C   UNL     1      -0.443  14.314  19.432  0.00  0.00    +0.000 A 
ATOM     22  C   UNL     1      -1.471  14.375  20.366  0.00  0.00    +0.000 A 
ATOM     23  N   UNL     1      -1.911  13.310  21.063  0.00  0.00    +0.000 NA
ATOM     24  C   UNL     1      -1.274  12.130  20.839  0.00  0.00    +0.000 A 
ATOM     25  C   UNL     1      -0.223  11.926  19.930  0.00  0.00    +0.000 A 
ATOM     26  C   UNL     1       0.174  13.066  19.218  0.00  0.00    +0.000 A 
BRANCH  21  28
ATOM     27  C   UNL     1       1.538  15.735  18.744  0.00  0.00    +0.000 C 
ATOM     28  C   UNL     1       0.024  15.566  18.736  0.00  0.00    +0.000 C 
ENDBRANCH  21  28
ENDBRANCH   1  25
TORSDOF 2
ENDMDL
MODEL 9
REMARK VINA RESULT:      -6.7      2.110      3.893
REMARK  Name = 
REMARK  5 active torsions:
REMARK  status: ('A' for Active; 'I' for Inactive)
REMARK    1  A    between atoms: C_1  and  C_2
REMARK    2  A    between atoms: C_2  and  C_3
REMARK    3  A    between atoms: C_7  and  C_8
REMARK    4  A    between atoms: C_21  and  C_22
REMARK    5  A    between atoms: C_26  and  C_27
REMARK                            x       y       z     vdW  Elec       q    Type
REMARK                         _______ _______ _______ _____ _____    ______ ____
ROOT
ATOM      1  C   UNL     1       0.099  10.839  20.048  0.00  0.00    +0.000 C 
ATOM      2  C   UNL     1      -0.780  10.641  19.047  0.00  0.00    +0.000 C 
ATOM      3  C   UNL     1      -2.134  11.152  19.353  0.00  0.00    +0.000 C 
ATOM      4  C   UNL     1      -1.805  12.179  20.413  0.00  0.00    +0.000 C 
ATOM      5  C   UNL     1      -2.944  12.589  21.319  0.00  0.00    +0.000 C 
ATOM      6  C   UNL     1      -4.229  12.850  20.558  0.00  0.00    +0.000 C 
ATOM      7  C   UNL     1      -5.337  12.709  21.553  0.00  0.00    +0.000 C 
ATOM      8  N   UNL     1      -5.126  13.411  22.799  0.00  0.00    +0.000 NA
ATOM      9  C   UNL     1      -6.243  13.261  23.706  0.00  0.00    +0.000 C 
ATOM     10  C   UNL     1      -7.365  14.204  23.318  0.00  0.00    +0.000 C 
ATOM     11  C   UNL     1      -7.019  15.618  23.748  0.00  0.00    +0.000 C 
ATOM     12  C   UNL     1      -5.808  16.237  23.018  0.00  0.00    +0.000 C 
ATOM     13  C   UNL     1      -4.340  15.731  23.208  0.00  0.00    +0.000 C 
ATOM     14  C   UNL     1      -3.925  14.195  23.141  0.00  0.00    +0.000 C 
ATOM     15  C   UNL     1      -3.455  13.827  24.574  0.00  0.00    +0.000 C 
ATOM     16  C   UNL     1      -2.634  13.880  22.121  0.00  0.00    +0.000 C 
ATOM     17  C   UNL     1      -1.142  13.780  22.676  0.00  0.00    +0.000 C 
ATOM     18  C   UNL     1      -0.047  13.018  21.779  0.00  0.00    +0.000 C 
ATOM     19  C   UNL     1      -0.564  11.659  21.197  0.00  0.00    +0.000 C 
ATOM     20  C   UNL     1      -0.793  10.726  22.402  0.00  0.00    +0.000 C 
ENDROOT
BRANCH   1  25
ATOM     21  C   UNL     1       2.342   8.132  18.655  0.00  0.00    +0.000 A 
ATOM     22  C   UNL     1       2.187   7.196  19.670  0.00  0.00    +0.000 A 
ATOM     23  N   UNL     1       1.547   7.449  20.828  0.00  0.00    +0.000 NA
ATOM     24  C   UNL     1       1.008   8.689  20.969  0.00  0.00    +0.000 A 
ATOM     25  C   UNL     1       1.087   9.728  20.026  0.00  0.00    +0.000 A 
ATOM     26  C   UNL     1       1.786   9.411  18.853  0.00  0.00    +0.000 A 
BRANCH  21  28
ATOM     27  C   UNL     1       3.962   6.556  17.511  0.00  0.00    +0.000 C 
ATOM     28  C   UNL     1       3.025   7.748  17.368  0.00  0.00    +0.000 C 
ENDBRANCH  21  28
ENDBRANCH   1  25
TORSDOF 2
ENDMDL
