MODEL 1
REMARK VINA RESULT:      -7.2      0.000      0.000
REMARK  Name = 
REMARK  8 active torsions:
REMARK  status: ('A' for Active; 'I' for Inactive)
REMARK    1  A    between atoms: C_2  and  C_3
REMARK    2  A    between atoms: C_3  and  C_4
REMARK    3  A    between atoms: C_4  and  C_5
REMARK    4  A    between atoms: C_9  and  O_10
REMARK    5  A    between atoms: N_12  and  C_13
REMARK    6  A    between atoms: C_13  and  C_14
REMARK    7  A    between atoms: C_14  and  C_15
REMARK    8  A    between atoms: C_18  and  O_19
REMARK                            x       y       z     vdW  Elec       q    Type
REMARK                         _______ _______ _______ _____ _____    ______ ____
ROOT
ATOM      1  O   UNL     1       1.576   7.732  20.764  0.00  0.00    +0.000 OA
ATOM      2  C   UNL     1       2.001   6.667  20.335  0.00  0.00    +0.000 C 
ATOM      3  N   UNL     1       2.689   6.552  19.146  0.00  0.00    +0.000 N 
ATOM      4  H   UNL     1       2.993   5.637  18.838  0.00  0.00    +0.000 HD
ENDROOT
BRANCH   2   5
ATOM      5  C   UNL     1       1.785   5.353  21.073  0.00  0.00    +0.000 C 
BRANCH   5   6
ATOM      6  C   UNL     1       1.063   4.329  20.202  0.00  0.00    +0.000 C 
BRANCH   6   7
ATOM      7  C   UNL     1       1.995   3.381  19.485  0.00  0.00    +0.000 A 
ATOM      8  C   UNL     1       1.692   2.910  18.200  0.00  0.00    +0.000 A 
ATOM      9  C   UNL     1       2.535   1.996  17.561  0.00  0.00    +0.000 A 
ATOM     10  C   UNL     1       3.689   1.541  18.200  0.00  0.00    +0.000 A 
ATOM     11  C   UNL     1       3.994   2.014  19.471  0.00  0.00    +0.000 A 
ATOM     12  C   UNL     1       3.166   2.935  20.109  0.00  0.00    +0.000 A 
BRANCH  11  13
ATOM     13  O   UNL     1       5.101   1.585  20.141  0.00  0.00    +0.000 OA
ATOM     14  H   UNL     1       5.882   1.780  19.599  0.00  0.00    +0.000 HD
ENDBRANCH  11  13
ENDBRANCH   6   7
ENDBRANCH   5   6
ENDBRANCH   2   5
BRANCH   3  15
ATOM     15  C   UNL     1       2.981   7.701  18.300  0.00  0.00    +0.000 C 
BRANCH  15  16
ATOM     16  C   UNL     1       3.606   7.277  16.970  0.00  0.00    +0.000 C 
BRANCH  16  17
ATOM     17  C   UNL     1       4.840   6.433  17.159  0.00  0.00    +0.000 A 
ATOM     18  C   UNL     1       6.093   7.037  17.338  0.00  0.00    +0.000 A 
ATOM     19  C   UNL     1       7.239   6.258  17.503  0.00  0.00    +0.000 A 
ATOM     20  C   UNL     1       7.132   4.871  17.485  0.00  0.00    +0.000 A 
ATOM     21  C   UNL     1       5.899   4.255  17.308  0.00  0.00    +0.000 A 
ATOM     22  C   UNL     1       4.754   5.034  17.141  0.00  0.00    +0.000 A 
BRANCH  20  23
ATOM     23  O   UNL     1       8.226   4.072  17.636  0.00  0.00    +0.000 OA
ATOM     24  H   UNL     1       8.337   3.546  16.827  0.00  0.00    +0.000 HD
ENDBRANCH  20  23
ENDBRANCH  16  17
ENDBRANCH  15  16
ENDBRANCH   3  15
TORSDOF 8
ENDMDL
MODEL 2
REMARK VINA RESULT:      -7.1      2.226      5.144
REMARK  Name = 
REMARK  8 active torsions:
REMARK  status: ('A' for Active; 'I' for Inactive)
REMARK    1  A    between atoms: C_2  and  C_3
REMARK    2  A    between atoms: C_3  and  C_4
REMARK    3  A    between atoms: C_4  and  C_5
REMARK    4  A    between atoms: C_9  and  O_10
REMARK    5  A    between atoms: N_12  and  C_13
REMARK    6  A    between atoms: C_13  and  C_14
REMARK    7  A    between atoms: C_14  and  C_15
REMARK    8  A    between atoms: C_18  and  O_19
REMARK                            x       y       z     vdW  Elec       q    Type
REMARK                         _______ _______ _______ _____ _____    ______ ____
ROOT
ATOM      1  O   UNL     1       0.948   4.338  17.411  0.00  0.00    +0.000 OA
ATOM      2  C   UNL     1       1.720   3.621  18.035  0.00  0.00    +0.000 C 
ATOM      3  N   UNL     1       1.905   3.716  19.397  0.00  0.00    +0.000 N 
ATOM      4  H   UNL     1       2.576   3.107  19.847  0.00  0.00    +0.000 HD
ENDROOT
BRANCH   2   5
ATOM      5  C   UNL     1       2.572   2.561  17.350  0.00  0.00    +0.000 C 
BRANCH   5   6
ATOM      6  C   UNL     1       3.984   2.515  17.925  0.00  0.00    +0.000 C 
BRANCH   6   7
ATOM      7  C   UNL     1       4.751   3.804  17.750  0.00  0.00    +0.000 A 
ATOM      8  C   UNL     1       5.437   4.385  18.825  0.00  0.00    +0.000 A 
ATOM      9  C   UNL     1       6.105   5.603  18.668  0.00  0.00    +0.000 A 
ATOM     10  C   UNL     1       6.093   6.256  17.435  0.00  0.00    +0.000 A 
ATOM     11  C   UNL     1       5.419   5.676  16.365  0.00  0.00    +0.000 A 
ATOM     12  C   UNL     1       4.763   4.457  16.510  0.00  0.00    +0.000 A 
BRANCH  11  13
ATOM     13  O   UNL     1       5.366   6.285  15.147  0.00  0.00    +0.000 OA
ATOM     14  H   UNL     1       5.555   7.230  15.268  0.00  0.00    +0.000 HD
ENDBRANCH  11  13
ENDBRANCH   6   7
ENDBRANCH   5   6
ENDBRANCH   2   5
BRANCH   3  15
ATOM     15  C   UNL     1       1.183   4.680  20.216  0.00  0.00    +0.000 C 
BRANCH  15  16
ATOM     16  C   UNL     1       2.101   5.802  20.707  0.00  0.00    +0.000 C 
BRANCH  16  17
ATOM     17  C   UNL     1       2.041   7.020  19.823  0.00  0.00    +0.000 A 
ATOM     18  C   UNL     1       2.683   7.025  18.576  0.00  0.00    +0.000 A 
ATOM     19  C   UNL     1       2.638   8.157  17.760  0.00  0.00    +0.000 A 
ATOM     20  C   UNL     1       1.953   9.286  18.194  0.00  0.00    +0.000 A 
ATOM     21  C   UNL     1       1.311   9.300  19.426  0.00  0.00    +0.000 A 
ATOM     22  C   UNL     1       1.357   8.170  20.243  0.00  0.00    +0.000 A 
BRANCH  20  23
ATOM     23  O   UNL     1       1.888  10.414  17.431  0.00  0.00    +0.000 OA
ATOM     24  H   UNL     1       1.218  10.280  16.740  0.00  0.00    +0.000 HD
ENDBRANCH  20  23
ENDBRANCH  16  17
ENDBRANCH  15  16
ENDBRANCH   3  15
TORSDOF 8
ENDMDL
MODEL 3
REMARK VINA RESULT:      -7.0      4.398      8.199
REMARK  Name = 
REMARK  8 active torsions:
REMARK  status: ('A' for Active; 'I' for Inactive)
REMARK    1  A    between atoms: C_2  and  C_3
REMARK    2  A    between atoms: C_3  and  C_4
REMARK    3  A    between atoms: C_4  and  C_5
REMARK    4  A    between atoms: C_9  and  O_10
REMARK    5  A    between atoms: N_12  and  C_13
REMARK    6  A    between atoms: C_13  and  C_14
REMARK    7  A    between atoms: C_14  and  C_15
REMARK    8  A    between atoms: C_18  and  O_19
REMARK                            x       y       z     vdW  Elec       q    Type
REMARK                         _______ _______ _______ _____ _____    ______ ____
ROOT
ATOM      1  O   UNL     1       7.006   7.413  16.589  0.00  0.00    +0.000 OA
ATOM      2  C   UNL     1       7.370   7.213  17.742  0.00  0.00    +0.000 C 
ATOM      3  N   UNL     1       6.868   6.196  18.526  0.00  0.00    +0.000 N 
ATOM      4  H   UNL     1       7.196   6.100  19.478  0.00  0.00    +0.000 HD
ENDROOT
BRANCH   2   5
ATOM      5  C   UNL     1       8.405   8.093  18.428  0.00  0.00    +0.000 C 
BRANCH   5   6
ATOM      6  C   UNL     1       8.329   9.537  17.940  0.00  0.00    +0.000 C 
BRANCH   6   7
ATOM      7  C   UNL     1       9.319  10.456  18.614  0.00  0.00    +0.000 A 
ATOM      8  C   UNL     1      10.409  10.983  17.907  0.00  0.00    +0.000 A 
ATOM      9  C   UNL     1      11.348  11.796  18.550  0.00  0.00    +0.000 A 
ATOM     10  C   UNL     1      11.210  12.088  19.907  0.00  0.00    +0.000 A 
ATOM     11  C   UNL     1      10.125  11.573  20.607  0.00  0.00    +0.000 A 
ATOM     12  C   UNL     1       9.178  10.774  19.971  0.00  0.00    +0.000 A 
BRANCH  11  13
ATOM     13  O   UNL     1       9.958  11.818  21.937  0.00  0.00    +0.000 OA
ATOM     14  H   UNL     1      10.289  12.711  22.129  0.00  0.00    +0.000 HD
ENDBRANCH  11  13
ENDBRANCH   6   7
ENDBRANCH   5   6
ENDBRANCH   2   5
BRANCH   3  15
ATOM     15  C   UNL     1       5.863   5.261  18.041  0.00  0.00    +0.000 C 
BRANCH  15  16
ATOM     16  C   UNL     1       4.507   5.942  17.846  0.00  0.00    +0.000 C 
BRANCH  16  17
ATOM     17  C   UNL     1       3.387   5.194  18.521  0.00  0.00    +0.000 A 
ATOM     18  C   UNL     1       3.236   5.247  19.915  0.00  0.00    +0.000 A 
ATOM     19  C   UNL     1       2.205   4.547  20.544  0.00  0.00    +0.000 A 
ATOM     20  C   UNL     1       1.326   3.789  19.777  0.00  0.00    +0.000 A 
ATOM     21  C   UNL     1       1.459   3.725  18.396  0.00  0.00    +0.000 A 
ATOM     22  C   UNL     1       2.491   4.423  17.767  0.00  0.00    +0.000 A 
BRANCH  20  23
ATOM     23  O   UNL     1       0.309   3.085  20.352  0.00  0.00    +0.000 OA
ATOM     24  H   UNL     1       0.617   2.743  21.208  0.00  0.00    +0.000 HD
ENDBRANCH  20  23
ENDBRANCH  16  17
ENDBRANCH  15  16
ENDBRANCH   3  15
TORSDOF 8
ENDMDL
MODEL 4
REMARK VINA RESULT:      -6.9      4.362      8.199
REMARK  Name = 
REMARK  8 active torsions:
REMARK  status: ('A' for Active; 'I' for Inactive)
REMARK    1  A    between atoms: C_2  and  C_3
REMARK    2  A    between atoms: C_3  and  C_4
REMARK    3  A    between atoms: C_4  and  C_5
REMARK    4  A    between atoms: C_9  and  O_10
REMARK    5  A    between atoms: N_12  and  C_13
REMARK    6  A    between atoms: C_13  and  C_14
REMARK    7  A    between atoms: C_14  and  C_15
REMARK    8  A    between atoms: C_18  and  O_19
REMARK                            x       y       z     vdW  Elec       q    Type
REMARK                         _______ _______ _______ _____ _____    ______ ____
ROOT
ATOM      1  O   UNL     1       7.876   6.413  18.665  0.00  0.00    +0.000 OA
ATOM      2  C   UNL     1       7.701   7.102  17.668  0.00  0.00    +0.000 C 
ATOM      3  N   UNL     1       7.300   6.587  16.454  0.00  0.00    +0.000 N 
ATOM      4  H   UNL     1       7.196   7.210  15.664  0.00  0.00    +0.000 HD
ENDROOT
BRANCH   2   5
ATOM      5  C   UNL     1       7.936   8.606  17.674  0.00  0.00    +0.000 C 
BRANCH   5   6
ATOM      6  C   UNL     1       8.812   9.036  18.847  0.00  0.00    +0.000 C 
BRANCH   6   7
ATOM      7  C   UNL     1       9.240  10.482  18.785  0.00  0.00    +0.000 A 
ATOM      8  C   UNL     1      10.263  10.965  19.613  0.00  0.00    +0.000 A 
ATOM      9  C   UNL     1      10.623  12.316  19.583  0.00  0.00    +0.000 A 
ATOM     10  C   UNL     1       9.964  13.199  18.728  0.00  0.00    +0.000 A 
ATOM     11  C   UNL     1       8.955  12.719  17.900  0.00  0.00    +0.000 A 
ATOM     12  C   UNL     1       8.599  11.372  17.914  0.00  0.00    +0.000 A 
BRANCH  11  13
ATOM     13  O   UNL     1       8.271  13.547  17.061  0.00  0.00    +0.000 OA
ATOM     14  H   UNL     1       7.341  13.268  17.045  0.00  0.00    +0.000 HD
ENDBRANCH  11  13
ENDBRANCH   6   7
ENDBRANCH   5   6
ENDBRANCH   2   5
BRANCH   3  15
ATOM     15  C   UNL     1       7.038   5.168  16.258  0.00  0.00    +0.000 C 
BRANCH  15  16
ATOM     16  C   UNL     1       5.545   4.892  16.067  0.00  0.00    +0.000 C 
BRANCH  16  17
ATOM     17  C   UNL     1       4.770   5.011  17.354  0.00  0.00    +0.000 A 
ATOM     18  C   UNL     1       4.828   3.991  18.315  0.00  0.00    +0.000 A 
ATOM     19  C   UNL     1       4.103   4.094  19.503  0.00  0.00    +0.000 A 
ATOM     20  C   UNL     1       3.315   5.218  19.728  0.00  0.00    +0.000 A 
ATOM     21  C   UNL     1       3.245   6.239  18.788  0.00  0.00    +0.000 A 
ATOM     22  C   UNL     1       3.969   6.135  17.600  0.00  0.00    +0.000 A 
BRANCH  20  23
ATOM     23  O   UNL     1       2.587   5.356  20.872  0.00  0.00    +0.000 OA
ATOM     24  H   UNL     1       1.779   5.855  20.664  0.00  0.00    +0.000 HD
ENDBRANCH  20  23
ENDBRANCH  16  17
ENDBRANCH  15  16
ENDBRANCH   3  15
TORSDOF 8
ENDMDL
MODEL 5
REMARK VINA RESULT:      -6.8      4.289      7.972
REMARK  Name = 
REMARK  8 active torsions:
REMARK  status: ('A' for Active; 'I' for Inactive)
REMARK    1  A    between atoms: C_2  and  C_3
REMARK    2  A    between atoms: C_3  and  C_4
REMARK    3  A    between atoms: C_4  and  C_5
REMARK    4  A    between atoms: C_9  and  O_10
REMARK    5  A    between atoms: N_12  and  C_13
REMARK    6  A    between atoms: C_13  and  C_14
REMARK    7  A    between atoms: C_14  and  C_15
REMARK    8  A    between atoms: C_18  and  O_19
REMARK                            x       y       z     vdW  Elec       q    Type
REMARK                         _______ _______ _______ _____ _____    ______ ____
ROOT
ATOM      1  O   UNL     1       7.187   6.463  18.557  0.00  0.00    +0.000 OA
ATOM      2  C   UNL     1       7.135   7.240  17.612  0.00  0.00    +0.000 C 
ATOM      3  N   UNL     1       6.320   7.046  16.518  0.00  0.00    +0.000 N 
ATOM      4  H   UNL     1       6.342   7.717  15.760  0.00  0.00    +0.000 HD
ENDROOT
BRANCH   2   5
ATOM      5  C   UNL     1       7.995   8.495  17.549  0.00  0.00    +0.000 C 
BRANCH   5   6
ATOM      6  C   UNL     1       8.784   8.703  18.839  0.00  0.00    +0.000 C 
BRANCH   6   7
ATOM      7  C   UNL     1       9.183  10.139  19.079  0.00  0.00    +0.000 A 
ATOM      8  C   UNL     1       9.450  11.000  18.006  0.00  0.00    +0.000 A 
ATOM      9  C   UNL     1       9.865  12.316  18.236  0.00  0.00    +0.000 A 
ATOM     10  C   UNL     1      10.019  12.784  19.541  0.00  0.00    +0.000 A 
ATOM     11  C   UNL     1       9.746  11.933  20.606  0.00  0.00    +0.000 A 
ATOM     12  C   UNL     1       9.320  10.626  20.385  0.00  0.00    +0.000 A 
BRANCH  11  13
ATOM     13  O   UNL     1       9.899  12.341  21.897  0.00  0.00    +0.000 OA
ATOM     14  H   UNL     1       9.420  13.178  22.014  0.00  0.00    +0.000 HD
ENDBRANCH  11  13
ENDBRANCH   6   7
ENDBRANCH   5   6
ENDBRANCH   2   5
BRANCH   3  15
ATOM     15  C   UNL     1       5.436   5.895  16.399  0.00  0.00    +0.000 C 
BRANCH  15  16
ATOM     16  C   UNL     1       4.084   6.151  17.069  0.00  0.00    +0.000 C 
BRANCH  16  17
ATOM     17  C   UNL     1       3.412   4.877  17.511  0.00  0.00    +0.000 A 
ATOM     18  C   UNL     1       4.049   3.640  17.336  0.00  0.00    +0.000 A 
ATOM     19  C   UNL     1       3.425   2.457  17.735  0.00  0.00    +0.000 A 
ATOM     20  C   UNL     1       2.159   2.512  18.308  0.00  0.00    +0.000 A 
ATOM     21  C   UNL     1       1.512   3.728  18.491  0.00  0.00    +0.000 A 
ATOM     22  C   UNL     1       2.135   4.910  18.090  0.00  0.00    +0.000 A 
BRANCH  20  23
ATOM     23  O   UNL     1       1.511   1.381  18.707  0.00  0.00    +0.000 OA
ATOM     24  H   UNL     1       0.579   1.603  18.875  0.00  0.00    +0.000 HD
ENDBRANCH  20  23
ENDBRANCH  16  17
ENDBRANCH  15  16
ENDBRANCH   3  15
TORSDOF 8
ENDMDL
MODEL 6
REMARK VINA RESULT:      -6.7      2.310      6.128
REMARK  Name = 
REMARK  8 active torsions:
REMARK  status: ('A' for Active; 'I' for Inactive)
REMARK    1  A    between atoms: C_2  and  C_3
REMARK    2  A    between atoms: C_3  and  C_4
REMARK    3  A    between atoms: C_4  and  C_5
REMARK    4  A    between atoms: C_9  and  O_10
REMARK    5  A    between atoms: N_12  and  C_13
REMARK    6  A    between atoms: C_13  and  C_14
REMARK    7  A    between atoms: C_14  and  C_15
REMARK    8  A    between atoms: C_18  and  O_19
REMARK                            x       y       z     vdW  Elec       q    Type
REMARK                         _______ _______ _______ _____ _____    ______ ____
ROOT
ATOM      1  O   UNL     1       4.456   3.131  17.822  0.00  0.00    +0.000 OA
ATOM      2  C   UNL     1       4.302   4.086  17.071  0.00  0.00    +0.000 C 
ATOM      3  N   UNL     1       3.412   5.109  17.322  0.00  0.00    +0.000 N 
ATOM      4  H   UNL     1       3.318   5.857  16.647  0.00  0.00    +0.000 HD
ENDROOT
BRANCH   2   5
ATOM      5  C   UNL     1       5.073   4.221  15.764  0.00  0.00    +0.000 C 
BRANCH   5   6
ATOM      6  C   UNL     1       6.581   4.170  15.991  0.00  0.00    +0.000 C 
BRANCH   6   7
ATOM      7  C   UNL     1       7.081   5.207  16.968  0.00  0.00    +0.000 A 
ATOM      8  C   UNL     1       7.115   6.564  16.620  0.00  0.00    +0.000 A 
ATOM      9  C   UNL     1       7.623   7.514  17.512  0.00  0.00    +0.000 A 
ATOM     10  C   UNL     1       8.106   7.118  18.759  0.00  0.00    +0.000 A 
ATOM     11  C   UNL     1       8.065   5.772  19.107  0.00  0.00    +0.000 A 
ATOM     12  C   UNL     1       7.548   4.822  18.231  0.00  0.00    +0.000 A 
BRANCH  11  13
ATOM     13  O   UNL     1       8.541   5.336  20.308  0.00  0.00    +0.000 OA
ATOM     14  H   UNL     1       8.773   6.111  20.846  0.00  0.00    +0.000 HD
ENDBRANCH  11  13
ENDBRANCH   6   7
ENDBRANCH   5   6
ENDBRANCH   2   5
BRANCH   3  15
ATOM     15  C   UNL     1       2.583   5.144  18.518  0.00  0.00    +0.000 C 
BRANCH  15  16
ATOM     16  C   UNL     1       3.052   6.220  19.498  0.00  0.00    +0.000 C 
BRANCH  16  17
ATOM     17  C   UNL     1       2.252   7.491  19.382  0.00  0.00    +0.000 A 
ATOM     18  C   UNL     1       2.198   8.187  18.165  0.00  0.00    +0.000 A 
ATOM     19  C   UNL     1       1.465   9.371  18.057  0.00  0.00    +0.000 A 
ATOM     20  C   UNL     1       0.790   9.861  19.170  0.00  0.00    +0.000 A 
ATOM     21  C   UNL     1       0.832   9.186  20.383  0.00  0.00    +0.000 A 
ATOM     22  C   UNL     1       1.566   8.004  20.492  0.00  0.00    +0.000 A 
BRANCH  20  23
ATOM     23  O   UNL     1       0.068  11.016  19.110  0.00  0.00    +0.000 OA
ATOM     24  H   UNL     1       0.609  11.736  19.474  0.00  0.00    +0.000 HD
ENDBRANCH  20  23
ENDBRANCH  16  17
ENDBRANCH  15  16
ENDBRANCH   3  15
TORSDOF 8
ENDMDL
MODEL 7
REMARK VINA RESULT:      -6.7      4.551      8.449
REMARK  Name = 
REMARK  8 active torsions:
REMARK  status: ('A' for Active; 'I' for Inactive)
REMARK    1  A    between atoms: C_2  and  C_3
REMARK    2  A    between atoms: C_3  and  C_4
REMARK    3  A    between atoms: C_4  and  C_5
REMARK    4  A    between atoms: C_9  and  O_10
REMARK    5  A    between atoms: N_12  and  C_13
REMARK    6  A    between atoms: C_13  and  C_14
REMARK    7  A    between atoms: C_14  and  C_15
REMARK    8  A    between atoms: C_18  and  O_19
REMARK                            x       y       z     vdW  Elec       q    Type
REMARK                         _______ _______ _______ _____ _____    ______ ____
ROOT
ATOM      1  O   UNL     1       8.147   6.650  18.696  0.00  0.00    +0.000 OA
ATOM      2  C   UNL     1       7.573   7.450  17.968  0.00  0.00    +0.000 C 
ATOM      3  N   UNL     1       6.385   7.171  17.328  0.00  0.00    +0.000 N 
ATOM      4  H   UNL     1       5.975   7.870  16.722  0.00  0.00    +0.000 HD
ENDROOT
BRANCH   2   5
ATOM      5  C   UNL     1       8.138   8.835  17.685  0.00  0.00    +0.000 C 
BRANCH   5   6
ATOM      6  C   UNL     1       8.879   9.400  18.893  0.00  0.00    +0.000 C 
BRANCH   6   7
ATOM      7  C   UNL     1       9.378  10.811  18.691  0.00  0.00    +0.000 A 
ATOM      8  C   UNL     1       8.702  11.698  17.842  0.00  0.00    +0.000 A 
ATOM      9  C   UNL     1       9.197  12.988  17.623  0.00  0.00    +0.000 A 
ATOM     10  C   UNL     1      10.373  13.404  18.247  0.00  0.00    +0.000 A 
ATOM     11  C   UNL     1      11.039  12.526  19.095  0.00  0.00    +0.000 A 
ATOM     12  C   UNL     1      10.547  11.245  19.330  0.00  0.00    +0.000 A 
BRANCH  11  13
ATOM     13  O   UNL     1      12.201  12.882  19.713  0.00  0.00    +0.000 OA
ATOM     14  H   UNL     1      12.938  12.708  19.105  0.00  0.00    +0.000 HD
ENDBRANCH  11  13
ENDBRANCH   6   7
ENDBRANCH   5   6
ENDBRANCH   2   5
BRANCH   3  15
ATOM     15  C   UNL     1       5.703   5.893  17.473  0.00  0.00    +0.000 C 
BRANCH  15  16
ATOM     16  C   UNL     1       4.243   5.979  17.025  0.00  0.00    +0.000 C 
BRANCH  16  17
ATOM     17  C   UNL     1       3.301   5.330  18.005  0.00  0.00    +0.000 A 
ATOM     18  C   UNL     1       3.359   5.657  19.368  0.00  0.00    +0.000 A 
ATOM     19  C   UNL     1       2.495   5.050  20.281  0.00  0.00    +0.000 A 
ATOM     20  C   UNL     1       1.574   4.110  19.830  0.00  0.00    +0.000 A 
ATOM     21  C   UNL     1       1.501   3.774  18.484  0.00  0.00    +0.000 A 
ATOM     22  C   UNL     1       2.366   4.379  17.572  0.00  0.00    +0.000 A 
BRANCH  20  23
ATOM     23  O   UNL     1       0.715   3.489  20.688  0.00  0.00    +0.000 OA
ATOM     24  H   UNL     1       0.586   2.575  20.385  0.00  0.00    +0.000 HD
ENDBRANCH  20  23
ENDBRANCH  16  17
ENDBRANCH  15  16
ENDBRANCH   3  15
TORSDOF 8
ENDMDL
MODEL 8
REMARK VINA RESULT:      -6.7      4.721      8.399
REMARK  Name = 
REMARK  8 active torsions:
REMARK  status: ('A' for Active; 'I' for Inactive)
REMARK    1  A    between atoms: C_2  and  C_3
REMARK    2  A    between atoms: C_3  and  C_4
REMARK    3  A    between atoms: C_4  and  C_5
REMARK    4  A    between atoms: C_9  and  O_10
REMARK    5  A    between atoms: N_12  and  C_13
REMARK    6  A    between atoms: C_13  and  C_14
REMARK    7  A    between atoms: C_14  and  C_15
REMARK    8  A    between atoms: C_18  and  O_19
REMARK                            x       y       z     vdW  Elec       q    Type
REMARK                         _______ _______ _______ _____ _____    ______ ____
ROOT
ATOM      1  O   UNL     1       7.126   7.187  16.387  0.00  0.00    +0.000 OA
ATOM      2  C   UNL     1       7.592   7.580  17.449  0.00  0.00    +0.000 C 
ATOM      3  N   UNL     1       7.711   6.780  18.565  0.00  0.00    +0.000 N 
ATOM      4  H   UNL     1       8.084   7.175  19.418  0.00  0.00    +0.000 HD
ENDROOT
BRANCH   2   5
ATOM      5  C   UNL     1       8.067   9.014  17.642  0.00  0.00    +0.000 C 
BRANCH   5   6
ATOM      6  C   UNL     1       8.848   9.179  18.943  0.00  0.00    +0.000 C 
BRANCH   6   7
ATOM      7  C   UNL     1       9.420  10.563  19.133  0.00  0.00    +0.000 A 
ATOM      8  C   UNL     1       9.802  11.014  20.404  0.00  0.00    +0.000 A 
ATOM      9  C   UNL     1      10.288  12.314  20.580  0.00  0.00    +0.000 A 
ATOM     10  C   UNL     1      10.394  13.177  19.490  0.00  0.00    +0.000 A 
ATOM     11  C   UNL     1      10.022  12.727  18.228  0.00  0.00    +0.000 A 
ATOM     12  C   UNL     1       9.550  11.430  18.041  0.00  0.00    +0.000 A 
BRANCH  11  13
ATOM     13  O   UNL     1      10.092  13.541  17.136  0.00  0.00    +0.000 OA
ATOM     14  H   UNL     1       9.742  14.413  17.381  0.00  0.00    +0.000 HD
ENDBRANCH  11  13
ENDBRANCH   6   7
ENDBRANCH   5   6
ENDBRANCH   2   5
BRANCH   3  15
ATOM     15  C   UNL     1       7.298   5.383  18.569  0.00  0.00    +0.000 C 
BRANCH  15  16
ATOM     16  C   UNL     1       6.210   5.120  19.612  0.00  0.00    +0.000 C 
BRANCH  16  17
ATOM     17  C   UNL     1       4.864   4.865  18.985  0.00  0.00    +0.000 A 
ATOM     18  C   UNL     1       3.732   5.568  19.423  0.00  0.00    +0.000 A 
ATOM     19  C   UNL     1       2.482   5.327  18.851  0.00  0.00    +0.000 A 
ATOM     20  C   UNL     1       2.363   4.377  17.842  0.00  0.00    +0.000 A 
ATOM     21  C   UNL     1       3.473   3.671  17.395  0.00  0.00    +0.000 A 
ATOM     22  C   UNL     1       4.722   3.911  17.968  0.00  0.00    +0.000 A 
BRANCH  20  23
ATOM     23  O   UNL     1       1.160   4.106  17.261  0.00  0.00    +0.000 OA
ATOM     24  H   UNL     1       1.180   4.434  16.346  0.00  0.00    +0.000 HD
ENDBRANCH  20  23
ENDBRANCH  16  17
ENDBRANCH  15  16
ENDBRANCH   3  15
TORSDOF 8
ENDMDL
MODEL 9
REMARK VINA RESULT:      -6.6      4.000      7.848
REMARK  Name = 
REMARK  8 active torsions:
REMARK  status: ('A' for Active; 'I' for Inactive)
REMARK    1  A    between atoms: C_2  and  C_3
REMARK    2  A    between atoms: C_3  and  C_4
REMARK    3  A    between atoms: C_4  and  C_5
REMARK    4  A    between atoms: C_9  and  O_10
REMARK    5  A    between atoms: N_12  and  C_13
REMARK    6  A    between atoms: C_13  and  C_14
REMARK    7  A    between atoms: C_14  and  C_15
REMARK    8  A    between atoms: C_18  and  O_19
REMARK                            x       y       z     vdW  Elec       q    Type
REMARK                         _______ _______ _______ _____ _____    ______ ____
ROOT
ATOM      1  O   UNL     1       7.514   5.327  19.058  0.00  0.00    +0.000 OA
ATOM      2  C   UNL     1       7.728   6.271  18.307  0.00  0.00    +0.000 C 
ATOM      3  N   UNL     1       7.368   6.274  16.977  0.00  0.00    +0.000 N 
ATOM      4  H   UNL     1       7.595   7.078  16.406  0.00  0.00    +0.000 HD
ENDROOT
BRANCH   2   5
ATOM      5  C   UNL     1       8.441   7.532  18.776  0.00  0.00    +0.000 C 
BRANCH   5   6
ATOM      6  C   UNL     1       8.084   8.736  17.909  0.00  0.00    +0.000 C 
BRANCH   6   7
ATOM      7  C   UNL     1       8.703  10.028  18.386  0.00  0.00    +0.000 A 
ATOM      8  C   UNL     1       9.347  10.102  19.629  0.00  0.00    +0.000 A 
ATOM      9  C   UNL     1       9.876  11.314  20.084  0.00  0.00    +0.000 A 
ATOM     10  C   UNL     1       9.765  12.465  19.305  0.00  0.00    +0.000 A 
ATOM     11  C   UNL     1       9.133  12.391  18.069  0.00  0.00    +0.000 A 
ATOM     12  C   UNL     1       8.615  11.185  17.601  0.00  0.00    +0.000 A 
BRANCH  11  13
ATOM     13  O   UNL     1       8.986  13.493  17.281  0.00  0.00    +0.000 OA
ATOM     14  H   UNL     1       8.110  13.878  17.451  0.00  0.00    +0.000 HD
ENDBRANCH  11  13
ENDBRANCH   6   7
ENDBRANCH   5   6
ENDBRANCH   2   5
BRANCH   3  15
ATOM     15  C   UNL     1       6.686   5.150  16.351  0.00  0.00    +0.000 C 
BRANCH  15  16
ATOM     16  C   UNL     1       5.237   5.493  16.002  0.00  0.00    +0.000 C 
BRANCH  16  17
ATOM     17  C   UNL     1       4.393   5.736  17.226  0.00  0.00    +0.000 A 
ATOM     18  C   UNL     1       3.764   6.975  17.421  0.00  0.00    +0.000 A 
ATOM     19  C   UNL     1       2.990   7.206  18.559  0.00  0.00    +0.000 A 
ATOM     20  C   UNL     1       2.850   6.198  19.507  0.00  0.00    +0.000 A 
ATOM     21  C   UNL     1       3.465   4.965  19.332  0.00  0.00    +0.000 A 
ATOM     22  C   UNL     1       4.240   4.734  18.195  0.00  0.00    +0.000 A 
BRANCH  20  23
ATOM     23  O   UNL     1       2.108   6.384  20.636  0.00  0.00    +0.000 OA
ATOM     24  H   UNL     1       1.397   5.721  20.650  0.00  0.00    +0.000 HD
ENDBRANCH  20  23
ENDBRANCH  16  17
ENDBRANCH  15  16
ENDBRANCH   3  15
TORSDOF 8
ENDMDL
