MODEL 1
REMARK VINA RESULT:      -7.6      0.000      0.000
REMARK  Name = 
REMARK  7 active torsions:
REMARK  status: ('A' for Active; 'I' for Inactive)
REMARK    1  A    between atoms: C_1  and  O_2
REMARK    2  A    between atoms: O_2  and  C_3
REMARK    3  A    between atoms: C_6  and  C_7
REMARK    4  A    between atoms: C_7  and  C_8
REMARK    5  A    between atoms: C_7  and  S_14
REMARK    6  A    between atoms: S_14  and  C_16
REMARK    7  A    between atoms: C_16  and  C_17
REMARK                            x       y       z     vdW  Elec       q    Type
REMARK                         _______ _______ _______ _____ _____    ______ ____
ROOT
ATOM      1  C   UNL     1       3.772   5.472  18.731  0.00  0.00    +0.000 C 
ENDROOT
BRANCH   1   5
ATOM      2  C   UNL     1       1.239   9.010  19.270  0.00  0.00    +0.000 A 
ATOM      3  C   UNL     1       1.459   8.122  20.321  0.00  0.00    +0.000 A 
ATOM      4  C   UNL     1       2.262   6.979  20.144  0.00  0.00    +0.000 A 
ATOM      5  C   UNL     1       2.835   6.678  18.895  0.00  0.00    +0.000 A 
ATOM      6  C   UNL     1       2.541   7.560  17.842  0.00  0.00    +0.000 A 
ATOM      7  C   UNL     1       1.767   8.712  18.023  0.00  0.00    +0.000 A 
BRANCH   2   9
ATOM      8  C   UNL     1       0.950  11.342  19.006  0.00  0.00    +0.000 C 
ATOM      9  O   UNL     1       0.470  10.106  19.549  0.00  0.00    +0.000 OA
ENDBRANCH   2   9
ENDBRANCH   1   5
BRANCH   1  10
ATOM     10  C   UNL     1       5.249   5.844  18.499  0.00  0.00    +0.000 A 
ATOM     11  C   UNL     1       6.277   5.309  19.305  0.00  0.00    +0.000 A 
ATOM     12  C   UNL     1       7.614   5.653  19.109  0.00  0.00    +0.000 A 
ATOM     13  C   UNL     1       7.947   6.583  18.133  0.00  0.00    +0.000 A 
ATOM     14  C   UNL     1       6.946   7.157  17.352  0.00  0.00    +0.000 A 
ATOM     15  C   UNL     1       5.608   6.786  17.523  0.00  0.00    +0.000 A 
ENDBRANCH   1  10
BRANCH   1  16
ATOM     16  S   UNL     1       3.289   4.269  17.400  0.00  0.00    +0.000 S 
ATOM     17  O   UNL     1       4.398   4.359  16.281  0.00  0.00    +0.000 OA
BRANCH  16  18
ATOM     18  C   UNL     1       3.550   2.698  18.272  0.00  0.00    +0.000 C 
BRANCH  18  19
ATOM     19  C   UNL     1       2.878   2.742  19.614  0.00  0.00    +0.000 A 
ATOM     20  C   UNL     1       3.420   2.602  20.881  0.00  0.00    +0.000 A 
ATOM     21  N   UNL     1       2.530   2.686  21.934  0.00  0.00    +0.000 NA
ATOM     22  C   UNL     1       1.319   2.875  21.464  0.00  0.00    +0.000 A 
ATOM     23  S   UNL     1       1.180   2.977  19.756  0.00  0.00    +0.000 S 
ENDBRANCH  18  19
ENDBRANCH  16  18
ENDBRANCH   1  16
TORSDOF 6
ENDMDL
MODEL 2
REMARK VINA RESULT:      -7.5      0.386      1.076
REMARK  Name = 
REMARK  7 active torsions:
REMARK  status: ('A' for Active; 'I' for Inactive)
REMARK    1  A    between atoms: C_1  and  O_2
REMARK    2  A    between atoms: O_2  and  C_3
REMARK    3  A    between atoms: C_6  and  C_7
REMARK    4  A    between atoms: C_7  and  C_8
REMARK    5  A    between atoms: C_7  and  S_14
REMARK    6  A    between atoms: S_14  and  C_16
REMARK    7  A    between atoms: C_16  and  C_17
REMARK                            x       y       z     vdW  Elec       q    Type
REMARK                         _______ _______ _______ _____ _____    ______ ____
ROOT
ATOM      1  C   UNL     1       3.743   5.486  18.760  0.00  0.00    +0.000 C 
ENDROOT
BRANCH   1   5
ATOM      2  C   UNL     1       1.180   8.991  19.371  0.00  0.00    +0.000 A 
ATOM      3  C   UNL     1       1.416   8.089  20.406  0.00  0.00    +0.000 A 
ATOM      4  C   UNL     1       2.227   6.956  20.206  0.00  0.00    +0.000 A 
ATOM      5  C   UNL     1       2.796   6.681  18.948  0.00  0.00    +0.000 A 
ATOM      6  C   UNL     1       2.486   7.576  17.912  0.00  0.00    +0.000 A 
ATOM      7  C   UNL     1       1.703   8.718  18.115  0.00  0.00    +0.000 A 
BRANCH   2   9
ATOM      8  C   UNL     1      -0.582  10.412  18.687  0.00  0.00    +0.000 C 
ATOM      9  O   UNL     1       0.403  10.075  19.671  0.00  0.00    +0.000 OA
ENDBRANCH   2   9
ENDBRANCH   1   5
BRANCH   1  10
ATOM     10  C   UNL     1       5.217   5.876  18.541  0.00  0.00    +0.000 A 
ATOM     11  C   UNL     1       5.593   6.791  17.534  0.00  0.00    +0.000 A 
ATOM     12  C   UNL     1       6.926   7.138  17.320  0.00  0.00    +0.000 A 
ATOM     13  C   UNL     1       7.922   6.534  18.078  0.00  0.00    +0.000 A 
ATOM     14  C   UNL     1       7.580   5.596  19.050  0.00  0.00    +0.000 A 
ATOM     15  C   UNL     1       6.240   5.275  19.290  0.00  0.00    +0.000 A 
ENDBRANCH   1  10
BRANCH   1  16
ATOM     16  S   UNL     1       3.274   4.310  17.400  0.00  0.00    +0.000 S 
ATOM     17  O   UNL     1       4.402   4.409  16.302  0.00  0.00    +0.000 OA
BRANCH  16  18
ATOM     18  C   UNL     1       3.507   2.723  18.250  0.00  0.00    +0.000 C 
BRANCH  18  19
ATOM     19  C   UNL     1       2.847   2.765  19.598  0.00  0.00    +0.000 A 
ATOM     20  C   UNL     1       3.404   2.639  20.861  0.00  0.00    +0.000 A 
ATOM     21  N   UNL     1       2.524   2.716  21.922  0.00  0.00    +0.000 NA
ATOM     22  C   UNL     1       1.305   2.885  21.463  0.00  0.00    +0.000 A 
ATOM     23  S   UNL     1       1.148   2.976  19.756  0.00  0.00    +0.000 S 
ENDBRANCH  18  19
ENDBRANCH  16  18
ENDBRANCH   1  16
TORSDOF 6
ENDMDL
MODEL 3
REMARK VINA RESULT:      -7.5      2.574      4.917
REMARK  Name = 
REMARK  7 active torsions:
REMARK  status: ('A' for Active; 'I' for Inactive)
REMARK    1  A    between atoms: C_1  and  O_2
REMARK    2  A    between atoms: O_2  and  C_3
REMARK    3  A    between atoms: C_6  and  C_7
REMARK    4  A    between atoms: C_7  and  C_8
REMARK    5  A    between atoms: C_7  and  S_14
REMARK    6  A    between atoms: S_14  and  C_16
REMARK    7  A    between atoms: C_16  and  C_17
REMARK                            x       y       z     vdW  Elec       q    Type
REMARK                         _______ _______ _______ _____ _____    ______ ____
ROOT
ATOM      1  C   UNL     1       3.060   5.965  18.432  0.00  0.00    +0.000 C 
ENDROOT
BRANCH   1   5
ATOM      2  C   UNL     1       1.156   9.853  19.129  0.00  0.00    +0.000 A 
ATOM      3  C   UNL     1       1.701   9.537  17.886  0.00  0.00    +0.000 A 
ATOM      4  C   UNL     1       2.325   8.294  17.667  0.00  0.00    +0.000 A 
ATOM      5  C   UNL     1       2.449   7.348  18.702  0.00  0.00    +0.000 A 
ATOM      6  C   UNL     1       1.945   7.725  19.957  0.00  0.00    +0.000 A 
ATOM      7  C   UNL     1       1.299   8.949  20.170  0.00  0.00    +0.000 A 
BRANCH   2   9
ATOM      8  C   UNL     1      -0.847  11.090  18.899  0.00  0.00    +0.000 C 
ATOM      9  O   UNL     1       0.546  11.072  19.235  0.00  0.00    +0.000 OA
ENDBRANCH   2   9
ENDBRANCH   1   5
BRANCH   1  10
ATOM     10  C   UNL     1       2.211   4.787  18.946  0.00  0.00    +0.000 A 
ATOM     11  C   UNL     1       2.009   4.574  20.326  0.00  0.00    +0.000 A 
ATOM     12  C   UNL     1       1.253   3.501  20.799  0.00  0.00    +0.000 A 
ATOM     13  C   UNL     1       0.724   2.585  19.898  0.00  0.00    +0.000 A 
ATOM     14  C   UNL     1       0.945   2.751  18.532  0.00  0.00    +0.000 A 
ATOM     15  C   UNL     1       1.672   3.847  18.055  0.00  0.00    +0.000 A 
ENDBRANCH   1  10
BRANCH   1  16
ATOM     16  S   UNL     1       4.787   5.724  19.076  0.00  0.00    +0.000 S 
ATOM     17  O   UNL     1       5.119   4.189  18.924  0.00  0.00    +0.000 OA
BRANCH  16  18
ATOM     18  C   UNL     1       5.734   6.596  17.796  0.00  0.00    +0.000 C 
BRANCH  18  19
ATOM     19  C   UNL     1       5.914   5.707  16.600  0.00  0.00    +0.000 A 
ATOM     20  C   UNL     1       5.144   5.598  15.453  0.00  0.00    +0.000 A 
ATOM     21  N   UNL     1       5.570   4.672  14.522  0.00  0.00    +0.000 NA
ATOM     22  C   UNL     1       6.650   4.073  14.969  0.00  0.00    +0.000 A 
ATOM     23  S   UNL     1       7.218   4.590  16.504  0.00  0.00    +0.000 S 
ENDBRANCH  18  19
ENDBRANCH  16  18
ENDBRANCH   1  16
TORSDOF 6
ENDMDL
MODEL 4
REMARK VINA RESULT:      -7.5      2.521      4.968
REMARK  Name = 
REMARK  7 active torsions:
REMARK  status: ('A' for Active; 'I' for Inactive)
REMARK    1  A    between atoms: C_1  and  O_2
REMARK    2  A    between atoms: O_2  and  C_3
REMARK    3  A    between atoms: C_6  and  C_7
REMARK    4  A    between atoms: C_7  and  C_8
REMARK    5  A    between atoms: C_7  and  S_14
REMARK    6  A    between atoms: S_14  and  C_16
REMARK    7  A    between atoms: C_16  and  C_17
REMARK                            x       y       z     vdW  Elec       q    Type
REMARK                         _______ _______ _______ _____ _____    ______ ____
ROOT
ATOM      1  C   UNL     1       3.209   5.714  18.576  0.00  0.00    +0.000 C 
ENDROOT
BRANCH   1   5
ATOM      2  C   UNL     1       1.164   9.547  19.171  0.00  0.00    +0.000 A 
ATOM      3  C   UNL     1       1.702   9.209  17.931  0.00  0.00    +0.000 A 
ATOM      4  C   UNL     1       2.370   7.984  17.744  0.00  0.00    +0.000 A 
ATOM      5  C   UNL     1       2.548   7.081  18.808  0.00  0.00    +0.000 A 
ATOM      6  C   UNL     1       2.050   7.481  20.059  0.00  0.00    +0.000 A 
ATOM      7  C   UNL     1       1.360   8.686  20.241  0.00  0.00    +0.000 A 
BRANCH   2   9
ATOM      8  C   UNL     1      -0.671  10.846  18.439  0.00  0.00    +0.000 C 
ATOM      9  O   UNL     1       0.508  10.744  19.246  0.00  0.00    +0.000 OA
ENDBRANCH   2   9
ENDBRANCH   1   5
BRANCH   1  10
ATOM     10  C   UNL     1       2.392   4.518  19.101  0.00  0.00    +0.000 A 
ATOM     11  C   UNL     1       1.679   3.674  18.223  0.00  0.00    +0.000 A 
ATOM     12  C   UNL     1       0.926   2.598  18.692  0.00  0.00    +0.000 A 
ATOM     13  C   UNL     1       0.826   2.375  20.059  0.00  0.00    +0.000 A 
ATOM     14  C   UNL     1       1.487   3.220  20.949  0.00  0.00    +0.000 A 
ATOM     15  C   UNL     1       2.272   4.277  20.478  0.00  0.00    +0.000 A 
ENDBRANCH   1  10
BRANCH   1  16
ATOM     16  S   UNL     1       4.933   5.543  19.249  0.00  0.00    +0.000 S 
ATOM     17  O   UNL     1       5.346   4.032  19.066  0.00  0.00    +0.000 OA
BRANCH  16  18
ATOM     18  C   UNL     1       5.859   6.495  18.011  0.00  0.00    +0.000 C 
BRANCH  18  19
ATOM     19  C   UNL     1       5.979   5.702  16.743  0.00  0.00    +0.000 A 
ATOM     20  C   UNL     1       5.159   5.688  15.626  0.00  0.00    +0.000 A 
ATOM     21  N   UNL     1       5.537   4.835  14.607  0.00  0.00    +0.000 NA
ATOM     22  C   UNL     1       6.628   4.195  14.959  0.00  0.00    +0.000 A 
ATOM     23  S   UNL     1       7.267   4.587  16.504  0.00  0.00    +0.000 S 
ENDBRANCH  18  19
ENDBRANCH  16  18
ENDBRANCH   1  16
TORSDOF 6
ENDMDL
MODEL 5
REMARK VINA RESULT:      -7.5      2.827      4.995
REMARK  Name = 
REMARK  7 active torsions:
REMARK  status: ('A' for Active; 'I' for Inactive)
REMARK    1  A    between atoms: C_1  and  O_2
REMARK    2  A    between atoms: O_2  and  C_3
REMARK    3  A    between atoms: C_6  and  C_7
REMARK    4  A    between atoms: C_7  and  C_8
REMARK    5  A    between atoms: C_7  and  S_14
REMARK    6  A    between atoms: S_14  and  C_16
REMARK    7  A    between atoms: C_16  and  C_17
REMARK                            x       y       z     vdW  Elec       q    Type
REMARK                         _______ _______ _______ _____ _____    ______ ____
ROOT
ATOM      1  C   UNL     1       2.774   6.080  18.126  0.00  0.00    +0.000 C 
ENDROOT
BRANCH   1   5
ATOM      2  C   UNL     1       1.111   9.922  19.430  0.00  0.00    +0.000 A 
ATOM      3  C   UNL     1       1.472   9.714  18.100  0.00  0.00    +0.000 A 
ATOM      4  C   UNL     1       2.018   8.485  17.684  0.00  0.00    +0.000 A 
ATOM      5  C   UNL     1       2.251   7.443  18.602  0.00  0.00    +0.000 A 
ATOM      6  C   UNL     1       1.935   7.709  19.944  0.00  0.00    +0.000 A 
ATOM      7  C   UNL     1       1.365   8.920  20.355  0.00  0.00    +0.000 A 
BRANCH   2   9
ATOM      8  C   UNL     1      -0.528  11.539  18.891  0.00  0.00    +0.000 C 
ATOM      9  O   UNL     1       0.562  11.137  19.730  0.00  0.00    +0.000 OA
ENDBRANCH   2   9
ENDBRANCH   1   5
BRANCH   1  10
ATOM     10  C   UNL     1       2.078   4.871  18.780  0.00  0.00    +0.000 A 
ATOM     11  C   UNL     1       1.883   4.804  20.177  0.00  0.00    +0.000 A 
ATOM     12  C   UNL     1       1.267   3.706  20.778  0.00  0.00    +0.000 A 
ATOM     13  C   UNL     1       0.877   2.626  19.997  0.00  0.00    +0.000 A 
ATOM     14  C   UNL     1       1.096   2.651  18.621  0.00  0.00    +0.000 A 
ATOM     15  C   UNL     1       1.681   3.766  18.012  0.00  0.00    +0.000 A 
ENDBRANCH   1  10
BRANCH   1  16
ATOM     16  S   UNL     1       4.606   5.827  18.307  0.00  0.00    +0.000 S 
ATOM     17  O   UNL     1       4.858   5.364  19.794  0.00  0.00    +0.000 OA
BRANCH  16  18
ATOM     18  C   UNL     1       4.837   4.366  17.255  0.00  0.00    +0.000 C 
BRANCH  18  19
ATOM     19  C   UNL     1       5.815   4.675  16.159  0.00  0.00    +0.000 A 
ATOM     20  C   UNL     1       6.973   5.436  16.194  0.00  0.00    +0.000 A 
ATOM     21  N   UNL     1       7.666   5.540  15.004  0.00  0.00    +0.000 NA
ATOM     22  C   UNL     1       7.028   4.873  14.070  0.00  0.00    +0.000 A 
ATOM     23  S   UNL     1       5.587   4.080  14.562  0.00  0.00    +0.000 S 
ENDBRANCH  18  19
ENDBRANCH  16  18
ENDBRANCH   1  16
TORSDOF 6
ENDMDL
MODEL 6
REMARK VINA RESULT:      -7.4      2.507      4.836
REMARK  Name = 
REMARK  7 active torsions:
REMARK  status: ('A' for Active; 'I' for Inactive)
REMARK    1  A    between atoms: C_1  and  O_2
REMARK    2  A    between atoms: O_2  and  C_3
REMARK    3  A    between atoms: C_6  and  C_7
REMARK    4  A    between atoms: C_7  and  C_8
REMARK    5  A    between atoms: C_7  and  S_14
REMARK    6  A    between atoms: S_14  and  C_16
REMARK    7  A    between atoms: C_16  and  C_17
REMARK                            x       y       z     vdW  Elec       q    Type
REMARK                         _______ _______ _______ _____ _____    ______ ____
ROOT
ATOM      1  C   UNL     1       2.878   5.977  18.472  0.00  0.00    +0.000 C 
ENDROOT
BRANCH   1   5
ATOM      2  C   UNL     1       1.129   9.898  19.360  0.00  0.00    +0.000 A 
ATOM      3  C   UNL     1       1.252   8.929  20.353  0.00  0.00    +0.000 A 
ATOM      4  C   UNL     1       1.801   7.665  20.065  0.00  0.00    +0.000 A 
ATOM      5  C   UNL     1       2.209   7.328  18.761  0.00  0.00    +0.000 A 
ATOM      6  C   UNL     1       2.011   8.305  17.772  0.00  0.00    +0.000 A 
ATOM      7  C   UNL     1       1.491   9.572  18.061  0.00  0.00    +0.000 A 
BRANCH   2   9
ATOM      8  C   UNL     1      -0.229  11.065  20.904  0.00  0.00    +0.000 C 
ATOM      9  O   UNL     1       0.610  11.103  19.744  0.00  0.00    +0.000 OA
ENDBRANCH   2   9
ENDBRANCH   1   5
BRANCH   1  10
ATOM     10  C   UNL     1       2.111   4.760  19.025  0.00  0.00    +0.000 A 
ATOM     11  C   UNL     1       2.037   4.506  20.411  0.00  0.00    +0.000 A 
ATOM     12  C   UNL     1       1.357   3.399  20.918  0.00  0.00    +0.000 A 
ATOM     13  C   UNL     1       0.778   2.490  20.042  0.00  0.00    +0.000 A 
ATOM     14  C   UNL     1       0.874   2.696  18.667  0.00  0.00    +0.000 A 
ATOM     15  C   UNL     1       1.524   3.825  18.159  0.00  0.00    +0.000 A 
ENDBRANCH   1  10
BRANCH   1  16
ATOM     16  S   UNL     1       4.640   5.826  19.045  0.00  0.00    +0.000 S 
ATOM     17  O   UNL     1       5.068   4.325  18.815  0.00  0.00    +0.000 OA
BRANCH  16  18
ATOM     18  C   UNL     1       5.479   6.813  17.773  0.00  0.00    +0.000 C 
BRANCH  18  19
ATOM     19  C   UNL     1       6.155   5.905  16.788  0.00  0.00    +0.000 A 
ATOM     20  C   UNL     1       7.397   5.294  16.853  0.00  0.00    +0.000 A 
ATOM     21  N   UNL     1       7.746   4.510  15.770  0.00  0.00    +0.000 NA
ATOM     22  C   UNL     1       6.777   4.540  14.884  0.00  0.00    +0.000 A 
ATOM     23  S   UNL     1       5.404   5.484  15.299  0.00  0.00    +0.000 S 
ENDBRANCH  18  19
ENDBRANCH  16  18
ENDBRANCH   1  16
TORSDOF 6
ENDMDL
MODEL 7
REMARK VINA RESULT:      -7.4      2.521      4.800
REMARK  Name = 
REMARK  7 active torsions:
REMARK  status: ('A' for Active; 'I' for Inactive)
REMARK    1  A    between atoms: C_1  and  O_2
REMARK    2  A    between atoms: O_2  and  C_3
REMARK    3  A    between atoms: C_6  and  C_7
REMARK    4  A    between atoms: C_7  and  C_8
REMARK    5  A    between atoms: C_7  and  S_14
REMARK    6  A    between atoms: S_14  and  C_16
REMARK    7  A    between atoms: C_16  and  C_17
REMARK                            x       y       z     vdW  Elec       q    Type
REMARK                         _______ _______ _______ _____ _____    ______ ____
ROOT
ATOM      1  C   UNL     1       3.191   5.699  18.526  0.00  0.00    +0.000 C 
ENDROOT
BRANCH   1   5
ATOM      2  C   UNL     1       1.449   9.683  19.088  0.00  0.00    +0.000 A 
ATOM      3  C   UNL     1       1.440   8.747  20.120  0.00  0.00    +0.000 A 
ATOM      4  C   UNL     1       1.987   7.463  19.935  0.00  0.00    +0.000 A 
ATOM      5  C   UNL     1       2.526   7.073  18.695  0.00  0.00    +0.000 A 
ATOM      6  C   UNL     1       2.462   8.019  17.659  0.00  0.00    +0.000 A 
ATOM      7  C   UNL     1       1.944   9.305  17.849  0.00  0.00    +0.000 A 
BRANCH   2   9
ATOM      8  C   UNL     1      -0.469  10.913  19.719  0.00  0.00    +0.000 C 
ATOM      9  O   UNL     1       0.921  10.911  19.374  0.00  0.00    +0.000 OA
ENDBRANCH   2   9
ENDBRANCH   1   5
BRANCH   1  10
ATOM     10  C   UNL     1       2.354   4.521  19.062  0.00  0.00    +0.000 A 
ATOM     11  C   UNL     1       2.271   4.249  20.445  0.00  0.00    +0.000 A 
ATOM     12  C   UNL     1       1.528   3.176  20.936  0.00  0.00    +0.000 A 
ATOM     13  C   UNL     1       0.891   2.319  20.048  0.00  0.00    +0.000 A 
ATOM     14  C   UNL     1       0.993   2.542  18.676  0.00  0.00    +0.000 A 
ATOM     15  C   UNL     1       1.708   3.638  18.184  0.00  0.00    +0.000 A 
ENDBRANCH   1  10
BRANCH   1  16
ATOM     16  S   UNL     1       4.892   5.546  19.257  0.00  0.00    +0.000 S 
ATOM     17  O   UNL     1       5.322   4.036  19.101  0.00  0.00    +0.000 OA
BRANCH  16  18
ATOM     18  C   UNL     1       5.853   6.494  18.043  0.00  0.00    +0.000 C 
BRANCH  18  19
ATOM     19  C   UNL     1       5.982   5.708  16.770  0.00  0.00    +0.000 A 
ATOM     20  C   UNL     1       5.176   5.708  15.643  0.00  0.00    +0.000 A 
ATOM     21  N   UNL     1       5.560   4.859  14.623  0.00  0.00    +0.000 NA
ATOM     22  C   UNL     1       6.643   4.210  14.983  0.00  0.00    +0.000 A 
ATOM     23  S   UNL     1       7.265   4.586  16.539  0.00  0.00    +0.000 S 
ENDBRANCH  18  19
ENDBRANCH  16  18
ENDBRANCH   1  16
TORSDOF 6
ENDMDL
MODEL 8
REMARK VINA RESULT:      -7.3      0.971      1.491
REMARK  Name = 
REMARK  7 active torsions:
REMARK  status: ('A' for Active; 'I' for Inactive)
REMARK    1  A    between atoms: C_1  and  O_2
REMARK    2  A    between atoms: O_2  and  C_3
REMARK    3  A    between atoms: C_6  and  C_7
REMARK    4  A    between atoms: C_7  and  C_8
REMARK    5  A    between atoms: C_7  and  S_14
REMARK    6  A    between atoms: S_14  and  C_16
REMARK    7  A    between atoms: C_16  and  C_17
REMARK                            x       y       z     vdW  Elec       q    Type
REMARK                         _______ _______ _______ _____ _____    ______ ____
ROOT
ATOM      1  C   UNL     1       3.509   5.643  18.697  0.00  0.00    +0.000 C 
ENDROOT
BRANCH   1   5
ATOM      2  C   UNL     1       1.191   9.315  19.298  0.00  0.00    +0.000 A 
ATOM      3  C   UNL     1       1.403   8.424  20.348  0.00  0.00    +0.000 A 
ATOM      4  C   UNL     1       2.136   7.238  20.152  0.00  0.00    +0.000 A 
ATOM      5  C   UNL     1       2.645   6.898  18.885  0.00  0.00    +0.000 A 
ATOM      6  C   UNL     1       2.358   7.787  17.836  0.00  0.00    +0.000 A 
ATOM      7  C   UNL     1       1.654   8.980  18.034  0.00  0.00    +0.000 A 
BRANCH   2   9
ATOM      8  C   UNL     1      -0.915  10.391  19.333  0.00  0.00    +0.000 C 
ATOM      9  O   UNL     1       0.492  10.453  19.595  0.00  0.00    +0.000 OA
ENDBRANCH   2   9
ENDBRANCH   1   5
BRANCH   1  10
ATOM     10  C   UNL     1       5.010   5.931  18.501  0.00  0.00    +0.000 A 
ATOM     11  C   UNL     1       5.477   6.675  17.397  0.00  0.00    +0.000 A 
ATOM     12  C   UNL     1       6.835   6.928  17.205  0.00  0.00    +0.000 A 
ATOM     13  C   UNL     1       7.763   6.395  18.090  0.00  0.00    +0.000 A 
ATOM     14  C   UNL     1       7.330   5.621  19.166  0.00  0.00    +0.000 A 
ATOM     15  C   UNL     1       5.966   5.398  19.379  0.00  0.00    +0.000 A 
ENDBRANCH   1  10
BRANCH   1  16
ATOM     16  S   UNL     1       2.979   4.514  17.320  0.00  0.00    +0.000 S 
ATOM     17  O   UNL     1       4.095   3.407  17.182  0.00  0.00    +0.000 OA
BRANCH  16  18
ATOM     18  C   UNL     1       1.541   3.717  18.090  0.00  0.00    +0.000 C 
BRANCH  18  19
ATOM     19  C   UNL     1       1.861   3.350  19.510  0.00  0.00    +0.000 A 
ATOM     20  C   UNL     1       1.215   3.704  20.683  0.00  0.00    +0.000 A 
ATOM     21  N   UNL     1       1.761   3.205  21.850  0.00  0.00    +0.000 NA
ATOM     22  C   UNL     1       2.823   2.490  21.561  0.00  0.00    +0.000 A 
ATOM     23  S   UNL     1       3.215   2.362  19.895  0.00  0.00    +0.000 S 
ENDBRANCH  18  19
ENDBRANCH  16  18
ENDBRANCH   1  16
TORSDOF 6
ENDMDL
MODEL 9
REMARK VINA RESULT:      -7.3      2.827      4.937
REMARK  Name = 
REMARK  7 active torsions:
REMARK  status: ('A' for Active; 'I' for Inactive)
REMARK    1  A    between atoms: C_1  and  O_2
REMARK    2  A    between atoms: O_2  and  C_3
REMARK    3  A    between atoms: C_6  and  C_7
REMARK    4  A    between atoms: C_7  and  C_8
REMARK    5  A    between atoms: C_7  and  S_14
REMARK    6  A    between atoms: S_14  and  C_16
REMARK    7  A    between atoms: C_16  and  C_17
REMARK                            x       y       z     vdW  Elec       q    Type
REMARK                         _______ _______ _______ _____ _____    ______ ____
ROOT
ATOM      1  C   UNL     1       2.660   5.967  18.266  0.00  0.00    +0.000 C 
ENDROOT
BRANCH   1   5
ATOM      2  C   UNL     1       1.269   9.945  19.477  0.00  0.00    +0.000 A 
ATOM      3  C   UNL     1       1.313   8.894  20.391  0.00  0.00    +0.000 A 
ATOM      4  C   UNL     1       1.747   7.614  19.999  0.00  0.00    +0.000 A 
ATOM      5  C   UNL     1       2.114   7.346  18.668  0.00  0.00    +0.000 A 
ATOM      6  C   UNL     1       1.997   8.410  17.759  0.00  0.00    +0.000 A 
ATOM      7  C   UNL     1       1.593   9.692  18.153  0.00  0.00    +0.000 A 
BRANCH   2   9
ATOM      8  C   UNL     1      -0.023  11.101  21.085  0.00  0.00    +0.000 C 
ATOM      9  O   UNL     1       0.862  11.158  19.961  0.00  0.00    +0.000 OA
ENDBRANCH   2   9
ENDBRANCH   1   5
BRANCH   1  10
ATOM     10  C   UNL     1       2.190   4.813  19.172  0.00  0.00    +0.000 A 
ATOM     11  C   UNL     1       1.364   3.781  18.677  0.00  0.00    +0.000 A 
ATOM     12  C   UNL     1       0.923   2.741  19.494  0.00  0.00    +0.000 A 
ATOM     13  C   UNL     1       1.258   2.738  20.842  0.00  0.00    +0.000 A 
ATOM     14  C   UNL     1       2.038   3.768  21.364  0.00  0.00    +0.000 A 
ATOM     15  C   UNL     1       2.511   4.792  20.537  0.00  0.00    +0.000 A 
ENDBRANCH   1  10
BRANCH   1  16
ATOM     16  S   UNL     1       4.511   5.854  18.142  0.00  0.00    +0.000 S 
ATOM     17  O   UNL     1       5.037   5.410  19.561  0.00  0.00    +0.000 OA
BRANCH  16  18
ATOM     18  C   UNL     1       4.673   4.414  17.048  0.00  0.00    +0.000 C 
BRANCH  18  19
ATOM     19  C   UNL     1       5.728   4.677  16.013  0.00  0.00    +0.000 A 
ATOM     20  C   UNL     1       6.912   5.390  16.115  0.00  0.00    +0.000 A 
ATOM     21  N   UNL     1       7.679   5.459  14.968  0.00  0.00    +0.000 NA
ATOM     22  C   UNL     1       7.071   4.813  14.000  0.00  0.00    +0.000 A 
ATOM     23  S   UNL     1       5.572   4.082  14.407  0.00  0.00    +0.000 S 
ENDBRANCH  18  19
ENDBRANCH  16  18
ENDBRANCH   1  16
TORSDOF 6
ENDMDL
