MODEL 1
REMARK VINA RESULT:      -7.3      0.000      0.000
REMARK  Name = 
REMARK  3 active torsions:
REMARK  status: ('A' for Active; 'I' for Inactive)
REMARK    1  A    between atoms: S_2  and  N_4
REMARK    2  A    between atoms: S_2  and  C_15
REMARK    3  A    between atoms: N_4  and  C_5
REMARK                            x       y       z     vdW  Elec       q    Type
REMARK                         _______ _______ _______ _____ _____    ______ ____
ROOT
ATOM      1  N   UNL     1       5.446   3.693  19.292  0.00  0.00    +0.000 N 
ATOM      2  H   UNL     1       6.417   3.413  19.420  0.00  0.00    +0.000 HD
ENDROOT
BRANCH   1   3
ATOM      3  C   UNL     1       5.238   4.668  18.259  0.00  0.00    +0.000 A 
ATOM      4  C   UNL     1       6.054   4.585  17.128  0.00  0.00    +0.000 A 
ATOM      5  C   UNL     1       5.935   5.524  16.108  0.00  0.00    +0.000 A 
ATOM      6  C   UNL     1       5.003   6.552  16.221  0.00  0.00    +0.000 A 
ATOM      7  C   UNL     1       4.171   6.658  17.346  0.00  0.00    +0.000 A 
ATOM      8  C   UNL     1       3.233   7.699  17.434  0.00  0.00    +0.000 A 
ATOM      9  C   UNL     1       2.395   7.820  18.541  0.00  0.00    +0.000 A 
ATOM     10  C   UNL     1       2.490   6.905  19.580  0.00  0.00    +0.000 A 
ATOM     11  C   UNL     1       3.422   5.866  19.512  0.00  0.00    +0.000 A 
ATOM     12  C   UNL     1       4.280   5.710  18.396  0.00  0.00    +0.000 A 
ENDBRANCH   1   3
BRANCH   1  14
ATOM     13  O   UNL     1       4.131   2.021  17.838  0.00  0.00    +0.000 OA
ATOM     14  S   UNL     1       4.479   2.298  19.214  0.00  0.00    +0.000 S 
ATOM     15  O   UNL     1       5.140   1.299  20.028  0.00  0.00    +0.000 OA
BRANCH  14  16
ATOM     16  C   UNL     1       2.934   2.632  20.027  0.00  0.00    +0.000 A 
ATOM     17  C   UNL     1       2.596   2.762  21.361  0.00  0.00    +0.000 A 
ATOM     18  C   UNL     1       1.206   3.012  21.548  0.00  0.00    +0.000 A 
ATOM     19  C   UNL     1       0.529   3.076  20.349  0.00  0.00    +0.000 A 
ATOM     20  S   UNL     1       1.570   2.836  19.011  0.00  0.00    +0.000 S 
ENDBRANCH  14  16
ENDBRANCH   1  14
TORSDOF 3
ENDMDL
MODEL 2
REMARK VINA RESULT:      -7.3      2.464      5.302
REMARK  Name = 
REMARK  3 active torsions:
REMARK  status: ('A' for Active; 'I' for Inactive)
REMARK    1  A    between atoms: S_2  and  N_4
REMARK    2  A    between atoms: S_2  and  C_15
REMARK    3  A    between atoms: N_4  and  C_5
REMARK                            x       y       z     vdW  Elec       q    Type
REMARK                         _______ _______ _______ _____ _____    ______ ____
ROOT
ATOM      1  N   UNL     1       4.218   4.938  16.891  0.00  0.00    +0.000 N 
ATOM      2  H   UNL     1       3.822   4.206  16.303  0.00  0.00    +0.000 HD
ENDROOT
BRANCH   1   3
ATOM      3  C   UNL     1       3.379   5.344  17.983  0.00  0.00    +0.000 A 
ATOM      4  C   UNL     1       3.430   6.688  18.362  0.00  0.00    +0.000 A 
ATOM      5  C   UNL     1       2.674   7.140  19.440  0.00  0.00    +0.000 A 
ATOM      6  C   UNL     1       1.871   6.246  20.145  0.00  0.00    +0.000 A 
ATOM      7  C   UNL     1       1.803   4.892  19.783  0.00  0.00    +0.000 A 
ATOM      8  C   UNL     1       0.979   4.011  20.504  0.00  0.00    +0.000 A 
ATOM      9  C   UNL     1       0.895   2.664  20.160  0.00  0.00    +0.000 A 
ATOM     10  C   UNL     1       1.638   2.177  19.094  0.00  0.00    +0.000 A 
ATOM     11  C   UNL     1       2.467   3.037  18.370  0.00  0.00    +0.000 A 
ATOM     12  C   UNL     1       2.568   4.414  18.689  0.00  0.00    +0.000 A 
ENDBRANCH   1   3
BRANCH   1  14
ATOM     13  O   UNL     1       5.834   3.794  18.540  0.00  0.00    +0.000 OA
ATOM     14  S   UNL     1       5.815   4.517  17.288  0.00  0.00    +0.000 S 
ATOM     15  O   UNL     1       6.394   3.942  16.091  0.00  0.00    +0.000 OA
BRANCH  14  16
ATOM     16  C   UNL     1       6.736   6.006  17.597  0.00  0.00    +0.000 A 
ATOM     17  C   UNL     1       6.780   7.223  16.943  0.00  0.00    +0.000 A 
ATOM     18  C   UNL     1       7.695   8.132  17.547  0.00  0.00    +0.000 A 
ATOM     19  C   UNL     1       8.312   7.583  18.651  0.00  0.00    +0.000 A 
ATOM     20  S   UNL     1       7.785   5.982  18.951  0.00  0.00    +0.000 S 
ENDBRANCH  14  16
ENDBRANCH   1  14
TORSDOF 3
ENDMDL
MODEL 3
REMARK VINA RESULT:      -7.2      2.090      3.362
REMARK  Name = 
REMARK  3 active torsions:
REMARK  status: ('A' for Active; 'I' for Inactive)
REMARK    1  A    between atoms: S_2  and  N_4
REMARK    2  A    between atoms: S_2  and  C_15
REMARK    3  A    between atoms: N_4  and  C_5
REMARK                            x       y       z     vdW  Elec       q    Type
REMARK                         _______ _______ _______ _____ _____    ______ ____
ROOT
ATOM      1  N   UNL     1       4.517   2.926  17.891  0.00  0.00    +0.000 N 
ATOM      2  H   UNL     1       4.633   1.975  17.542  0.00  0.00    +0.000 HD
ENDROOT
BRANCH   1   3
ATOM      3  C   UNL     1       5.156   3.935  17.095  0.00  0.00    +0.000 A 
ATOM      4  C   UNL     1       4.862   3.952  15.729  0.00  0.00    +0.000 A 
ATOM      5  C   UNL     1       5.479   4.877  14.892  0.00  0.00    +0.000 A 
ATOM      6  C   UNL     1       6.397   5.783  15.420  0.00  0.00    +0.000 A 
ATOM      7  C   UNL     1       6.708   5.786  16.788  0.00  0.00    +0.000 A 
ATOM      8  C   UNL     1       7.630   6.715  17.299  0.00  0.00    +0.000 A 
ATOM      9  C   UNL     1       7.951   6.737  18.654  0.00  0.00    +0.000 A 
ATOM     10  C   UNL     1       7.359   5.826  19.517  0.00  0.00    +0.000 A 
ATOM     11  C   UNL     1       6.444   4.891  19.026  0.00  0.00    +0.000 A 
ATOM     12  C   UNL     1       6.090   4.849  17.655  0.00  0.00    +0.000 A 
ENDBRANCH   1   3
BRANCH   1  14
ATOM     13  O   UNL     1       2.077   2.973  17.065  0.00  0.00    +0.000 OA
ATOM     14  S   UNL     1       2.877   3.180  18.252  0.00  0.00    +0.000 S 
ATOM     15  O   UNL     1       2.607   2.438  19.466  0.00  0.00    +0.000 OA
BRANCH  14  16
ATOM     16  C   UNL     1       2.646   4.891  18.676  0.00  0.00    +0.000 A 
ATOM     17  C   UNL     1       2.687   6.048  17.920  0.00  0.00    +0.000 A 
ATOM     18  C   UNL     1       2.459   7.216  18.703  0.00  0.00    +0.000 A 
ATOM     19  C   UNL     1       2.240   6.912  20.029  0.00  0.00    +0.000 A 
ATOM     20  S   UNL     1       2.310   5.227  20.321  0.00  0.00    +0.000 S 
ENDBRANCH  14  16
ENDBRANCH   1  14
TORSDOF 3
ENDMDL
MODEL 4
REMARK VINA RESULT:      -7.2      2.913      5.097
REMARK  Name = 
REMARK  3 active torsions:
REMARK  status: ('A' for Active; 'I' for Inactive)
REMARK    1  A    between atoms: S_2  and  N_4
REMARK    2  A    between atoms: S_2  and  C_15
REMARK    3  A    between atoms: N_4  and  C_5
REMARK                            x       y       z     vdW  Elec       q    Type
REMARK                         _______ _______ _______ _____ _____    ______ ____
ROOT
ATOM      1  N   UNL     1       6.226   4.644  18.753  0.00  0.00    +0.000 N 
ATOM      2  H   UNL     1       6.575   4.981  19.649  0.00  0.00    +0.000 HD
ENDROOT
BRANCH   1   3
ATOM      3  C   UNL     1       4.883   5.049  18.445  0.00  0.00    +0.000 A 
ATOM      4  C   UNL     1       4.671   6.403  18.174  0.00  0.00    +0.000 A 
ATOM      5  C   UNL     1       3.387   6.870  17.910  0.00  0.00    +0.000 A 
ATOM      6  C   UNL     1       2.312   5.984  17.925  0.00  0.00    +0.000 A 
ATOM      7  C   UNL     1       2.500   4.620  18.194  0.00  0.00    +0.000 A 
ATOM      8  C   UNL     1       1.401   3.745  18.195  0.00  0.00    +0.000 A 
ATOM      9  C   UNL     1       1.566   2.386  18.457  0.00  0.00    +0.000 A 
ATOM     10  C   UNL     1       2.831   1.886  18.730  0.00  0.00    +0.000 A 
ATOM     11  C   UNL     1       3.934   2.743  18.739  0.00  0.00    +0.000 A 
ATOM     12  C   UNL     1       3.801   4.127  18.467  0.00  0.00    +0.000 A 
ENDBRANCH   1   3
BRANCH   1  14
ATOM     13  O   UNL     1       7.634   6.375  17.466  0.00  0.00    +0.000 OA
ATOM     14  S   UNL     1       7.395   4.952  17.560  0.00  0.00    +0.000 S 
ATOM     15  O   UNL     1       8.486   4.032  17.811  0.00  0.00    +0.000 OA
BRANCH  14  16
ATOM     16  C   UNL     1       6.730   4.487  15.978  0.00  0.00    +0.000 A 
ATOM     17  C   UNL     1       5.728   3.606  15.616  0.00  0.00    +0.000 A 
ATOM     18  C   UNL     1       5.549   3.538  14.204  0.00  0.00    +0.000 A 
ATOM     19  C   UNL     1       6.413   4.379  13.535  0.00  0.00    +0.000 A 
ATOM     20  S   UNL     1       7.430   5.241  14.609  0.00  0.00    +0.000 S 
ENDBRANCH  14  16
ENDBRANCH   1  14
TORSDOF 3
ENDMDL
MODEL 5
REMARK VINA RESULT:      -7.2      2.511      3.653
REMARK  Name = 
REMARK  3 active torsions:
REMARK  status: ('A' for Active; 'I' for Inactive)
REMARK    1  A    between atoms: S_2  and  N_4
REMARK    2  A    between atoms: S_2  and  C_15
REMARK    3  A    between atoms: N_4  and  C_5
REMARK                            x       y       z     vdW  Elec       q    Type
REMARK                         _______ _______ _______ _____ _____    ______ ____
ROOT
ATOM      1  N   UNL     1       2.734   5.488  20.984  0.00  0.00    +0.000 N 
ATOM      2  H   UNL     1       3.686   5.215  21.228  0.00  0.00    +0.000 HD
ENDROOT
BRANCH   1   3
ATOM      3  C   UNL     1       2.643   6.420  19.895  0.00  0.00    +0.000 A 
ATOM      4  C   UNL     1       3.384   6.134  18.745  0.00  0.00    +0.000 A 
ATOM      5  C   UNL     1       3.374   7.017  17.670  0.00  0.00    +0.000 A 
ATOM      6  C   UNL     1       2.629   8.191  17.745  0.00  0.00    +0.000 A 
ATOM      7  C   UNL     1       1.876   8.501  18.889  0.00  0.00    +0.000 A 
ATOM      8  C   UNL     1       1.126   9.687  18.939  0.00  0.00    +0.000 A 
ATOM      9  C   UNL     1       0.370  10.012  20.063  0.00  0.00    +0.000 A 
ATOM     10  C   UNL     1       0.360   9.158  21.157  0.00  0.00    +0.000 A 
ATOM     11  C   UNL     1       1.106   7.977  21.127  0.00  0.00    +0.000 A 
ATOM     12  C   UNL     1       1.876   7.613  19.995  0.00  0.00    +0.000 A 
ENDBRANCH   1   3
BRANCH   1  14
ATOM     13  O   UNL     1       1.987   3.249  22.016  0.00  0.00    +0.000 OA
ATOM     14  S   UNL     1       1.778   4.090  20.858  0.00  0.00    +0.000 S 
ATOM     15  O   UNL     1       0.449   4.536  20.495  0.00  0.00    +0.000 OA
BRANCH  14  16
ATOM     16  C   UNL     1       2.354   3.130  19.477  0.00  0.00    +0.000 A 
ATOM     17  C   UNL     1       1.800   2.859  18.240  0.00  0.00    +0.000 A 
ATOM     18  C   UNL     1       2.626   2.009  17.449  0.00  0.00    +0.000 A 
ATOM     19  C   UNL     1       3.790   1.668  18.105  0.00  0.00    +0.000 A 
ATOM     20  S   UNL     1       3.879   2.372  19.662  0.00  0.00    +0.000 S 
ENDBRANCH  14  16
ENDBRANCH   1  14
TORSDOF 3
ENDMDL
MODEL 6
REMARK VINA RESULT:      -7.1      2.549      2.920
REMARK  Name = 
REMARK  3 active torsions:
REMARK  status: ('A' for Active; 'I' for Inactive)
REMARK    1  A    between atoms: S_2  and  N_4
REMARK    2  A    between atoms: S_2  and  C_15
REMARK    3  A    between atoms: N_4  and  C_5
REMARK                            x       y       z     vdW  Elec       q    Type
REMARK                         _______ _______ _______ _____ _____    ______ ____
ROOT
ATOM      1  N   UNL     1       4.446   2.910  17.393  0.00  0.00    +0.000 N 
ATOM      2  H   UNL     1       4.480   1.986  16.964  0.00  0.00    +0.000 HD
ENDROOT
BRANCH   1   3
ATOM      3  C   UNL     1       5.216   3.913  16.713  0.00  0.00    +0.000 A 
ATOM      4  C   UNL     1       5.115   3.959  15.319  0.00  0.00    +0.000 A 
ATOM      5  C   UNL     1       5.867   4.878  14.594  0.00  0.00    +0.000 A 
ATOM      6  C   UNL     1       6.727   5.748  15.261  0.00  0.00    +0.000 A 
ATOM      7  C   UNL     1       6.845   5.721  16.659  0.00  0.00    +0.000 A 
ATOM      8  C   UNL     1       7.713   6.614  17.310  0.00  0.00    +0.000 A 
ATOM      9  C   UNL     1       7.844   6.606  18.697  0.00  0.00    +0.000 A 
ATOM     10  C   UNL     1       7.113   5.699  19.452  0.00  0.00    +0.000 A 
ATOM     11  C   UNL     1       6.250   4.800  18.821  0.00  0.00    +0.000 A 
ATOM     12  C   UNL     1       6.088   4.790  17.414  0.00  0.00    +0.000 A 
ENDBRANCH   1   3
BRANCH   1  14
ATOM     13  O   UNL     1       2.610   4.714  17.501  0.00  0.00    +0.000 OA
ATOM     14  S   UNL     1       2.826   3.301  17.721  0.00  0.00    +0.000 S 
ATOM     15  O   UNL     1       2.021   2.312  17.035  0.00  0.00    +0.000 OA
BRANCH  14  16
ATOM     16  C   UNL     1       2.519   3.049  19.454  0.00  0.00    +0.000 A 
ATOM     17  C   UNL     1       3.334   2.630  20.489  0.00  0.00    +0.000 A 
ATOM     18  C   UNL     1       2.639   2.554  21.731  0.00  0.00    +0.000 A 
ATOM     19  C   UNL     1       1.320   2.930  21.605  0.00  0.00    +0.000 A 
ATOM     20  S   UNL     1       0.927   3.370  19.998  0.00  0.00    +0.000 S 
ENDBRANCH  14  16
ENDBRANCH   1  14
TORSDOF 3
ENDMDL
MODEL 7
REMARK VINA RESULT:      -7.1      1.986      3.609
REMARK  Name = 
REMARK  3 active torsions:
REMARK  status: ('A' for Active; 'I' for Inactive)
REMARK    1  A    between atoms: S_2  and  N_4
REMARK    2  A    between atoms: S_2  and  C_15
REMARK    3  A    between atoms: N_4  and  C_5
REMARK                            x       y       z     vdW  Elec       q    Type
REMARK                         _______ _______ _______ _____ _____    ______ ____
ROOT
ATOM      1  N   UNL     1       3.210   5.346  17.808  0.00  0.00    +0.000 N 
ATOM      2  H   UNL     1       2.798   5.958  18.511  0.00  0.00    +0.000 HD
ENDROOT
BRANCH   1   3
ATOM      3  C   UNL     1       4.643   5.268  17.852  0.00  0.00    +0.000 A 
ATOM      4  C   UNL     1       5.254   5.433  19.099  0.00  0.00    +0.000 A 
ATOM      5  C   UNL     1       6.641   5.412  19.206  0.00  0.00    +0.000 A 
ATOM      6  C   UNL     1       7.420   5.233  18.065  0.00  0.00    +0.000 A 
ATOM      7  C   UNL     1       6.831   5.064  16.803  0.00  0.00    +0.000 A 
ATOM      8  C   UNL     1       7.637   4.877  15.668  0.00  0.00    +0.000 A 
ATOM      9  C   UNL     1       7.073   4.705  14.406  0.00  0.00    +0.000 A 
ATOM     10  C   UNL     1       5.693   4.725  14.261  0.00  0.00    +0.000 A 
ATOM     11  C   UNL     1       4.875   4.917  15.377  0.00  0.00    +0.000 A 
ATOM     12  C   UNL     1       5.419   5.085  16.675  0.00  0.00    +0.000 A 
ENDBRANCH   1   3
BRANCH   1  14
ATOM     13  O   UNL     1       1.056   4.045  17.254  0.00  0.00    +0.000 OA
ATOM     14  S   UNL     1       2.377   3.866  17.815  0.00  0.00    +0.000 S 
ATOM     15  O   UNL     1       3.288   2.882  17.267  0.00  0.00    +0.000 OA
BRANCH  14  16
ATOM     16  C   UNL     1       2.103   3.376  19.502  0.00  0.00    +0.000 A 
ATOM     17  C   UNL     1       1.019   3.526  20.348  0.00  0.00    +0.000 A 
ATOM     18  C   UNL     1       1.262   2.985  21.643  0.00  0.00    +0.000 A 
ATOM     19  C   UNL     1       2.519   2.429  21.741  0.00  0.00    +0.000 A 
ATOM     20  S   UNL     1       3.396   2.562  20.277  0.00  0.00    +0.000 S 
ENDBRANCH  14  16
ENDBRANCH   1  14
TORSDOF 3
ENDMDL
MODEL 8
REMARK VINA RESULT:      -7.1      2.216      3.949
REMARK  Name = 
REMARK  3 active torsions:
REMARK  status: ('A' for Active; 'I' for Inactive)
REMARK    1  A    between atoms: S_2  and  N_4
REMARK    2  A    between atoms: S_2  and  C_15
REMARK    3  A    between atoms: N_4  and  C_5
REMARK                            x       y       z     vdW  Elec       q    Type
REMARK                         _______ _______ _______ _____ _____    ______ ____
ROOT
ATOM      1  N   UNL     1       4.226   2.828  18.318  0.00  0.00    +0.000 N 
ATOM      2  H   UNL     1       4.364   2.016  17.717  0.00  0.00    +0.000 HD
ENDROOT
BRANCH   1   3
ATOM      3  C   UNL     1       5.211   3.861  18.159  0.00  0.00    +0.000 A 
ATOM      4  C   UNL     1       5.594   4.560  19.306  0.00  0.00    +0.000 A 
ATOM      5  C   UNL     1       6.511   5.602  19.216  0.00  0.00    +0.000 A 
ATOM      6  C   UNL     1       7.043   5.951  17.977  0.00  0.00    +0.000 A 
ATOM      7  C   UNL     1       6.675   5.263  16.811  0.00  0.00    +0.000 A 
ATOM      8  C   UNL     1       7.230   5.628  15.573  0.00  0.00    +0.000 A 
ATOM      9  C   UNL     1       6.880   4.957  14.403  0.00  0.00    +0.000 A 
ATOM     10  C   UNL     1       5.964   3.916  14.454  0.00  0.00    +0.000 A 
ATOM     11  C   UNL     1       5.396   3.544  15.675  0.00  0.00    +0.000 A 
ATOM     12  C   UNL     1       5.739   4.200  16.883  0.00  0.00    +0.000 A 
ENDBRANCH   1   3
BRANCH   1  14
ATOM     13  O   UNL     1       2.147   3.212  16.846  0.00  0.00    +0.000 OA
ATOM     14  S   UNL     1       2.602   3.315  18.215  0.00  0.00    +0.000 S 
ATOM     15  O   UNL     1       1.903   2.632  19.283  0.00  0.00    +0.000 OA
BRANCH  14  16
ATOM     16  C   UNL     1       2.502   5.046  18.608  0.00  0.00    +0.000 A 
ATOM     17  C   UNL     1       2.685   6.184  17.844  0.00  0.00    +0.000 A 
ATOM     18  C   UNL     1       2.521   7.379  18.601  0.00  0.00    +0.000 A 
ATOM     19  C   UNL     1       2.206   7.115  19.917  0.00  0.00    +0.000 A 
ATOM     20  S   UNL     1       2.110   5.435  20.230  0.00  0.00    +0.000 S 
ENDBRANCH  14  16
ENDBRANCH   1  14
TORSDOF 3
ENDMDL
MODEL 9
REMARK VINA RESULT:      -7.0      2.679      5.362
REMARK  Name = 
REMARK  3 active torsions:
REMARK  status: ('A' for Active; 'I' for Inactive)
REMARK    1  A    between atoms: S_2  and  N_4
REMARK    2  A    between atoms: S_2  and  C_15
REMARK    3  A    between atoms: N_4  and  C_5
REMARK                            x       y       z     vdW  Elec       q    Type
REMARK                         _______ _______ _______ _____ _____    ______ ____
ROOT
ATOM      1  N   UNL     1       4.222   5.186  17.124  0.00  0.00    +0.000 N 
ATOM      2  H   UNL     1       3.866   4.608  16.364  0.00  0.00    +0.000 HD
ENDROOT
BRANCH   1   3
ATOM      3  C   UNL     1       3.308   5.365  18.216  0.00  0.00    +0.000 A 
ATOM      4  C   UNL     1       3.299   6.615  18.843  0.00  0.00    +0.000 A 
ATOM      5  C   UNL     1       2.468   6.842  19.935  0.00  0.00    +0.000 A 
ATOM      6  C   UNL     1       1.649   5.819  20.407  0.00  0.00    +0.000 A 
ATOM      7  C   UNL     1       1.640   4.557  19.795  0.00  0.00    +0.000 A 
ATOM      8  C   UNL     1       0.800   3.542  20.284  0.00  0.00    +0.000 A 
ATOM      9  C   UNL     1       0.773   2.283  19.689  0.00  0.00    +0.000 A 
ATOM     10  C   UNL     1       1.593   2.018  18.601  0.00  0.00    +0.000 A 
ATOM     11  C   UNL     1       2.439   3.013  18.105  0.00  0.00    +0.000 A 
ATOM     12  C   UNL     1       2.482   4.306  18.682  0.00  0.00    +0.000 A 
ENDBRANCH   1   3
BRANCH   1  14
ATOM     13  O   UNL     1       5.745   3.941  18.788  0.00  0.00    +0.000 OA
ATOM     14  S   UNL     1       5.783   4.654  17.530  0.00  0.00    +0.000 S 
ATOM     15  O   UNL     1       6.324   4.030  16.340  0.00  0.00    +0.000 OA
BRANCH  14  16
ATOM     16  C   UNL     1       6.808   6.075  17.833  0.00  0.00    +0.000 A 
ATOM     17  C   UNL     1       7.855   6.294  18.708  0.00  0.00    +0.000 A 
ATOM     18  C   UNL     1       8.373   7.618  18.615  0.00  0.00    +0.000 A 
ATOM     19  C   UNL     1       7.711   8.363  17.662  0.00  0.00    +0.000 A 
ATOM     20  S   UNL     1       6.475   7.465  16.890  0.00  0.00    +0.000 S 
ENDBRANCH  14  16
ENDBRANCH   1  14
TORSDOF 3
ENDMDL
