MODEL 1
REMARK VINA RESULT:      -8.6      0.000      0.000
REMARK  Name = 
REMARK  6 active torsions:
REMARK  status: ('A' for Active; 'I' for Inactive)
REMARK    1  A    between atoms: C_1  and  N_2
REMARK    2  A    between atoms: N_2  and  C_3
REMARK    3  A    between atoms: N_2  and  S_9
REMARK    4  A    between atoms: S_9  and  C_12
REMARK    5  A    between atoms: C_15  and  C_16
REMARK    6  A    between atoms: N_21  and  C_22
REMARK                            x       y       z     vdW  Elec       q    Type
REMARK                         _______ _______ _______ _____ _____    ______ ____
ROOT
ATOM      1  C   UNL     1       2.177   5.455  19.366  0.00  0.00    +0.000 A 
ATOM      2  C   UNL     1       2.021   6.322  20.455  0.00  0.00    +0.000 A 
ATOM      3  C   UNL     1       1.877   7.699  20.227  0.00  0.00    +0.000 A 
ATOM      4  C   UNL     1       1.907   8.202  18.918  0.00  0.00    +0.000 A 
ATOM      5  C   UNL     1       2.210   7.339  17.859  0.00  0.00    +0.000 A 
ATOM      6  C   UNL     1       2.315   5.967  18.074  0.00  0.00    +0.000 A 
ENDROOT
BRANCH   4   7
ATOM      7  C   UNL     1       1.680   9.654  18.663  0.00  0.00    +0.000 C 
ATOM      8  O   UNL     1       2.089  10.124  17.603  0.00  0.00    +0.000 OA
ATOM      9  N   UNL     1       0.989  10.403  19.611  0.00  0.00    +0.000 N 
ATOM     10  C   UNL     1       0.488  11.742  19.273  0.00  0.00    +0.000 C 
ATOM     11  C   UNL     1      -0.979  11.907  19.722  0.00  0.00    +0.000 C 
ATOM     12  N   UNL     1      -1.188  11.490  21.126  0.00  0.00    +0.000 N 
ATOM     13  C   UNL     1      -0.608  10.189  21.505  0.00  0.00    +0.000 C 
ATOM     14  C   UNL     1       0.859  10.091  21.043  0.00  0.00    +0.000 C 
BRANCH  12  15
ATOM     15  C   UNL     1      -1.540  12.389  22.123  0.00  0.00    +0.000 A 
ATOM     16  C   UNL     1      -2.803  12.288  22.735  0.00  0.00    +0.000 A 
ATOM     17  C   UNL     1      -3.220  13.182  23.730  0.00  0.00    +0.000 A 
ATOM     18  C   UNL     1      -2.376  14.208  24.141  0.00  0.00    +0.000 A 
ATOM     19  C   UNL     1      -1.121  14.336  23.555  0.00  0.00    +0.000 A 
ATOM     20  C   UNL     1      -0.717  13.440  22.562  0.00  0.00    +0.000 A 
ATOM     21  F   UNL     1       0.521  13.589  22.063  0.00  0.00    +0.000 F 
ENDBRANCH  12  15
ENDBRANCH   4   7
BRANCH   1  22
ATOM     22  S   UNL     1       2.327   3.689  19.604  0.00  0.00    +0.000 S 
ATOM     23  O   UNL     1       1.815   3.058  18.408  0.00  0.00    +0.000 OA
ATOM     24  O   UNL     1       1.744   3.388  20.900  0.00  0.00    +0.000 OA
BRANCH  22  26
ATOM     25  C   UNL     1       4.446   2.091  20.150  0.00  0.00    +0.000 C 
ATOM     26  N   UNL     1       4.009   3.414  19.680  0.00  0.00    +0.000 N 
BRANCH  26  27
ATOM     27  C   UNL     1       4.857   4.121  18.765  0.00  0.00    +0.000 A 
ATOM     28  C   UNL     1       4.862   3.750  17.419  0.00  0.00    +0.000 A 
ATOM     29  C   UNL     1       5.680   4.421  16.507  0.00  0.00    +0.000 A 
ATOM     30  C   UNL     1       6.503   5.460  16.939  0.00  0.00    +0.000 A 
ATOM     31  C   UNL     1       6.511   5.827  18.284  0.00  0.00    +0.000 A 
ATOM     32  C   UNL     1       5.693   5.156  19.198  0.00  0.00    +0.000 A 
ENDBRANCH  26  27
ENDBRANCH  22  26
ENDBRANCH   1  22
TORSDOF 5
ENDMDL
MODEL 2
REMARK VINA RESULT:      -8.6      3.104      4.397
REMARK  Name = 
REMARK  6 active torsions:
REMARK  status: ('A' for Active; 'I' for Inactive)
REMARK    1  A    between atoms: C_1  and  N_2
REMARK    2  A    between atoms: N_2  and  C_3
REMARK    3  A    between atoms: N_2  and  S_9
REMARK    4  A    between atoms: S_9  and  C_12
REMARK    5  A    between atoms: C_15  and  C_16
REMARK    6  A    between atoms: N_21  and  C_22
REMARK                            x       y       z     vdW  Elec       q    Type
REMARK                         _______ _______ _______ _____ _____    ______ ____
ROOT
ATOM      1  C   UNL     1       3.037   7.040  18.691  0.00  0.00    +0.000 A 
ATOM      2  C   UNL     1       2.476   8.020  17.863  0.00  0.00    +0.000 A 
ATOM      3  C   UNL     1       1.570   8.945  18.402  0.00  0.00    +0.000 A 
ATOM      4  C   UNL     1       1.218   8.875  19.758  0.00  0.00    +0.000 A 
ATOM      5  C   UNL     1       1.675   7.802  20.531  0.00  0.00    +0.000 A 
ATOM      6  C   UNL     1       2.604   6.904  20.012  0.00  0.00    +0.000 A 
ENDROOT
BRANCH   4   7
ATOM      7  C   UNL     1       0.314   9.901  20.356  0.00  0.00    +0.000 C 
ATOM      8  O   UNL     1      -0.466   9.540  21.235  0.00  0.00    +0.000 OA
ATOM      9  N   UNL     1       0.414  11.220  19.922  0.00  0.00    +0.000 N 
ATOM     10  C   UNL     1      -0.234  12.298  20.681  0.00  0.00    +0.000 C 
ATOM     11  C   UNL     1       0.738  13.479  20.892  0.00  0.00    +0.000 C 
ATOM     12  N   UNL     1       1.395  13.898  19.634  0.00  0.00    +0.000 N 
ATOM     13  C   UNL     1       1.967  12.815  18.814  0.00  0.00    +0.000 C 
ATOM     14  C   UNL     1       0.947  11.675  18.628  0.00  0.00    +0.000 C 
BRANCH  12  15
ATOM     15  C   UNL     1       1.162  15.135  19.051  0.00  0.00    +0.000 A 
ATOM     16  C   UNL     1      -0.161  15.568  18.845  0.00  0.00    +0.000 A 
ATOM     17  C   UNL     1      -0.456  16.797  18.240  0.00  0.00    +0.000 A 
ATOM     18  C   UNL     1       0.576  17.631  17.824  0.00  0.00    +0.000 A 
ATOM     19  C   UNL     1       1.895  17.233  18.012  0.00  0.00    +0.000 A 
ATOM     20  C   UNL     1       2.177  16.004  18.614  0.00  0.00    +0.000 A 
ATOM     21  F   UNL     1       3.469  15.692  18.806  0.00  0.00    +0.000 F 
ENDBRANCH  12  15
ENDBRANCH   4   7
BRANCH   1  22
ATOM     22  S   UNL     1       4.224   5.862  18.058  0.00  0.00    +0.000 S 
ATOM     23  O   UNL     1       5.203   5.648  19.100  0.00  0.00    +0.000 OA
ATOM     24  O   UNL     1       4.637   6.342  16.751  0.00  0.00    +0.000 OA
BRANCH  22  26
ATOM     25  C   UNL     1       3.762   3.513  16.789  0.00  0.00    +0.000 C 
ATOM     26  N   UNL     1       3.328   4.425  17.858  0.00  0.00    +0.000 N 
BRANCH  26  27
ATOM     27  C   UNL     1       2.681   3.859  19.007  0.00  0.00    +0.000 A 
ATOM     28  C   UNL     1       1.287   3.877  19.079  0.00  0.00    +0.000 A 
ATOM     29  C   UNL     1       0.632   3.334  20.187  0.00  0.00    +0.000 A 
ATOM     30  C   UNL     1       1.370   2.781  21.233  0.00  0.00    +0.000 A 
ATOM     31  C   UNL     1       2.763   2.771  21.172  0.00  0.00    +0.000 A 
ATOM     32  C   UNL     1       3.419   3.315  20.063  0.00  0.00    +0.000 A 
ENDBRANCH  26  27
ENDBRANCH  22  26
ENDBRANCH   1  22
TORSDOF 5
ENDMDL
MODEL 3
REMARK VINA RESULT:      -8.5      2.980      3.807
REMARK  Name = 
REMARK  6 active torsions:
REMARK  status: ('A' for Active; 'I' for Inactive)
REMARK    1  A    between atoms: C_1  and  N_2
REMARK    2  A    between atoms: N_2  and  C_3
REMARK    3  A    between atoms: N_2  and  S_9
REMARK    4  A    between atoms: S_9  and  C_12
REMARK    5  A    between atoms: C_15  and  C_16
REMARK    6  A    between atoms: N_21  and  C_22
REMARK                            x       y       z     vdW  Elec       q    Type
REMARK                         _______ _______ _______ _____ _____    ______ ____
ROOT
ATOM      1  C   UNL     1       2.492   6.643  19.160  0.00  0.00    +0.000 A 
ATOM      2  C   UNL     1       2.358   7.606  18.151  0.00  0.00    +0.000 A 
ATOM      3  C   UNL     1       1.802   8.856  18.459  0.00  0.00    +0.000 A 
ATOM      4  C   UNL     1       1.367   9.130  19.764  0.00  0.00    +0.000 A 
ATOM      5  C   UNL     1       1.374   8.107  20.718  0.00  0.00    +0.000 A 
ATOM      6  C   UNL     1       1.961   6.877  20.430  0.00  0.00    +0.000 A 
ENDROOT
BRANCH   4   7
ATOM      7  C   UNL     1       0.844  10.482  20.117  0.00  0.00    +0.000 C 
ATOM      8  O   UNL     1       1.608  11.269  20.672  0.00  0.00    +0.000 OA
ATOM      9  N   UNL     1      -0.465  10.807  19.773  0.00  0.00    +0.000 N 
ATOM     10  C   UNL     1      -0.919  12.204  19.829  0.00  0.00    +0.000 C 
ATOM     11  C   UNL     1      -1.681  12.584  18.541  0.00  0.00    +0.000 C 
ATOM     12  N   UNL     1      -2.723  11.593  18.191  0.00  0.00    +0.000 N 
ATOM     13  C   UNL     1      -2.306  10.180  18.223  0.00  0.00    +0.000 C 
ATOM     14  C   UNL     1      -1.566   9.860  19.536  0.00  0.00    +0.000 C 
BRANCH  12  15
ATOM     15  C   UNL     1      -4.076  11.899  18.218  0.00  0.00    +0.000 A 
ATOM     16  C   UNL     1      -4.668  12.328  19.421  0.00  0.00    +0.000 A 
ATOM     17  C   UNL     1      -6.033  12.628  19.512  0.00  0.00    +0.000 A 
ATOM     18  C   UNL     1      -6.847  12.507  18.392  0.00  0.00    +0.000 A 
ATOM     19  C   UNL     1      -6.295  12.085  17.188  0.00  0.00    +0.000 A 
ATOM     20  C   UNL     1      -4.932  11.785  17.109  0.00  0.00    +0.000 A 
ATOM     21  F   UNL     1      -4.448  11.422  15.910  0.00  0.00    +0.000 F 
ENDBRANCH  12  15
ENDBRANCH   4   7
BRANCH   1  22
ATOM     22  S   UNL     1       3.227   5.048  18.824  0.00  0.00    +0.000 S 
ATOM     23  O   UNL     1       2.531   4.496  17.682  0.00  0.00    +0.000 OA
ATOM     24  O   UNL     1       3.259   4.326  20.083  0.00  0.00    +0.000 OA
BRANCH  22  26
ATOM     25  C   UNL     1       5.862   5.313  19.396  0.00  0.00    +0.000 C 
ATOM     26  N   UNL     1       4.827   5.410  18.356  0.00  0.00    +0.000 N 
BRANCH  26  27
ATOM     27  C   UNL     1       5.211   5.167  16.995  0.00  0.00    +0.000 A 
ATOM     28  C   UNL     1       5.704   3.909  16.643  0.00  0.00    +0.000 A 
ATOM     29  C   UNL     1       6.086   3.646  15.326  0.00  0.00    +0.000 A 
ATOM     30  C   UNL     1       5.985   4.644  14.357  0.00  0.00    +0.000 A 
ATOM     31  C   UNL     1       5.504   5.905  14.704  0.00  0.00    +0.000 A 
ATOM     32  C   UNL     1       5.122   6.169  16.023  0.00  0.00    +0.000 A 
ENDBRANCH  26  27
ENDBRANCH  22  26
ENDBRANCH   1  22
TORSDOF 5
ENDMDL
MODEL 4
REMARK VINA RESULT:      -8.5      3.238      4.490
REMARK  Name = 
REMARK  6 active torsions:
REMARK  status: ('A' for Active; 'I' for Inactive)
REMARK    1  A    between atoms: C_1  and  N_2
REMARK    2  A    between atoms: N_2  and  C_3
REMARK    3  A    between atoms: N_2  and  S_9
REMARK    4  A    between atoms: S_9  and  C_12
REMARK    5  A    between atoms: C_15  and  C_16
REMARK    6  A    between atoms: N_21  and  C_22
REMARK                            x       y       z     vdW  Elec       q    Type
REMARK                         _______ _______ _______ _____ _____    ______ ____
ROOT
ATOM      1  C   UNL     1       2.937   7.048  18.729  0.00  0.00    +0.000 A 
ATOM      2  C   UNL     1       2.523   8.159  17.984  0.00  0.00    +0.000 A 
ATOM      3  C   UNL     1       1.750   9.155  18.599  0.00  0.00    +0.000 A 
ATOM      4  C   UNL     1       1.380   9.026  19.946  0.00  0.00    +0.000 A 
ATOM      5  C   UNL     1       1.678   7.842  20.628  0.00  0.00    +0.000 A 
ATOM      6  C   UNL     1       2.478   6.868  20.036  0.00  0.00    +0.000 A 
ENDROOT
BRANCH   4   7
ATOM      7  C   UNL     1       0.622  10.116  20.627  0.00  0.00    +0.000 C 
ATOM      8  O   UNL     1       1.156  10.680  21.580  0.00  0.00    +0.000 OA
ATOM      9  N   UNL     1      -0.632  10.470  20.138  0.00  0.00    +0.000 N 
ATOM     10  C   UNL     1      -1.273  11.716  20.581  0.00  0.00    +0.000 C 
ATOM     11  C   UNL     1      -1.827  12.505  19.375  0.00  0.00    +0.000 C 
ATOM     12  N   UNL     1      -2.641  11.659  18.475  0.00  0.00    +0.000 N 
ATOM     13  C   UNL     1      -2.050  10.363  18.098  0.00  0.00    +0.000 C 
ATOM     14  C   UNL     1      -1.530   9.618  19.343  0.00  0.00    +0.000 C 
BRANCH  12  15
ATOM     15  C   UNL     1      -4.004  11.855  18.306  0.00  0.00    +0.000 A 
ATOM     16  C   UNL     1      -4.812  12.123  19.427  0.00  0.00    +0.000 A 
ATOM     17  C   UNL     1      -6.197  12.306  19.319  0.00  0.00    +0.000 A 
ATOM     18  C   UNL     1      -6.813  12.225  18.075  0.00  0.00    +0.000 A 
ATOM     19  C   UNL     1      -6.045  11.960  16.947  0.00  0.00    +0.000 A 
ATOM     20  C   UNL     1      -4.664  11.776  17.067  0.00  0.00    +0.000 A 
ATOM     21  F   UNL     1      -3.969  11.564  15.938  0.00  0.00    +0.000 F 
ENDBRANCH  12  15
ENDBRANCH   4   7
BRANCH   1  22
ATOM     22  S   UNL     1       3.953   5.771  17.999  0.00  0.00    +0.000 S 
ATOM     23  O   UNL     1       5.019   5.494  18.937  0.00  0.00    +0.000 OA
ATOM     24  O   UNL     1       4.260   6.200  16.645  0.00  0.00    +0.000 OA
BRANCH  22  26
ATOM     25  C   UNL     1       3.057   3.546  16.739  0.00  0.00    +0.000 C 
ATOM     26  N   UNL     1       2.932   4.407  17.925  0.00  0.00    +0.000 N 
BRANCH  26  27
ATOM     27  C   UNL     1       2.509   3.805  19.157  0.00  0.00    +0.000 A 
ATOM     28  C   UNL     1       1.151   3.800  19.479  0.00  0.00    +0.000 A 
ATOM     29  C   UNL     1       0.713   3.221  20.672  0.00  0.00    +0.000 A 
ATOM     30  C   UNL     1       1.633   2.654  21.553  0.00  0.00    +0.000 A 
ATOM     31  C   UNL     1       2.992   2.666  21.242  0.00  0.00    +0.000 A 
ATOM     32  C   UNL     1       3.431   3.246  20.048  0.00  0.00    +0.000 A 
ENDBRANCH  26  27
ENDBRANCH  22  26
ENDBRANCH   1  22
TORSDOF 5
ENDMDL
MODEL 5
REMARK VINA RESULT:      -8.4      3.102      4.365
REMARK  Name = 
REMARK  6 active torsions:
REMARK  status: ('A' for Active; 'I' for Inactive)
REMARK    1  A    between atoms: C_1  and  N_2
REMARK    2  A    between atoms: N_2  and  C_3
REMARK    3  A    between atoms: N_2  and  S_9
REMARK    4  A    between atoms: S_9  and  C_12
REMARK    5  A    between atoms: C_15  and  C_16
REMARK    6  A    between atoms: N_21  and  C_22
REMARK                            x       y       z     vdW  Elec       q    Type
REMARK                         _______ _______ _______ _____ _____    ______ ____
ROOT
ATOM      1  C   UNL     1       2.997   7.000  18.684  0.00  0.00    +0.000 A 
ATOM      2  C   UNL     1       2.574   6.998  20.019  0.00  0.00    +0.000 A 
ATOM      3  C   UNL     1       1.651   7.960  20.454  0.00  0.00    +0.000 A 
ATOM      4  C   UNL     1       1.171   8.928  19.560  0.00  0.00    +0.000 A 
ATOM      5  C   UNL     1       1.716   9.004  18.274  0.00  0.00    +0.000 A 
ATOM      6  C   UNL     1       2.603   8.028  17.824  0.00  0.00    +0.000 A 
ENDROOT
BRANCH   4   7
ATOM      7  C   UNL     1       0.133   9.908  19.994  0.00  0.00    +0.000 C 
ATOM      8  O   UNL     1      -0.793   9.497  20.690  0.00  0.00    +0.000 OA
ATOM      9  N   UNL     1       0.274  11.243  19.627  0.00  0.00    +0.000 N 
ATOM     10  C   UNL     1      -0.546  12.278  20.273  0.00  0.00    +0.000 C 
ATOM     11  C   UNL     1       0.325  13.476  20.706  0.00  0.00    +0.000 C 
ATOM     12  N   UNL     1       1.205  13.955  19.617  0.00  0.00    +0.000 N 
ATOM     13  C   UNL     1       1.963  12.916  18.897  0.00  0.00    +0.000 C 
ATOM     14  C   UNL     1       1.038  11.757  18.479  0.00  0.00    +0.000 C 
BRANCH  12  15
ATOM     15  C   UNL     1       1.052  15.205  19.035  0.00  0.00    +0.000 A 
ATOM     16  C   UNL     1      -0.241  15.698  18.778  0.00  0.00    +0.000 A 
ATOM     17  C   UNL     1      -0.455  16.942  18.171  0.00  0.00    +0.000 A 
ATOM     18  C   UNL     1       0.629  17.732  17.805  0.00  0.00    +0.000 A 
ATOM     19  C   UNL     1       1.920  17.275  18.045  0.00  0.00    +0.000 A 
ATOM     20  C   UNL     1       2.122  16.030  18.647  0.00  0.00    +0.000 A 
ATOM     21  F   UNL     1       3.389  15.659  18.890  0.00  0.00    +0.000 F 
ENDBRANCH  12  15
ENDBRANCH   4   7
BRANCH   1  22
ATOM     22  S   UNL     1       4.144   5.772  18.075  0.00  0.00    +0.000 S 
ATOM     23  O   UNL     1       5.126   5.560  19.116  0.00  0.00    +0.000 OA
ATOM     24  O   UNL     1       4.560   6.203  16.752  0.00  0.00    +0.000 OA
BRANCH  22  26
ATOM     25  C   UNL     1       3.572   3.429  16.840  0.00  0.00    +0.000 C 
ATOM     26  N   UNL     1       3.206   4.356  17.923  0.00  0.00    +0.000 N 
BRANCH  26  27
ATOM     27  C   UNL     1       2.597   3.811  19.101  0.00  0.00    +0.000 A 
ATOM     28  C   UNL     1       3.407   3.223  20.075  0.00  0.00    +0.000 A 
ATOM     29  C   UNL     1       2.838   2.685  21.232  0.00  0.00    +0.000 A 
ATOM     30  C   UNL     1       1.456   2.723  21.414  0.00  0.00    +0.000 A 
ATOM     31  C   UNL     1       0.642   3.299  20.441  0.00  0.00    +0.000 A 
ATOM     32  C   UNL     1       1.210   3.838  19.282  0.00  0.00    +0.000 A 
ENDBRANCH  26  27
ENDBRANCH  22  26
ENDBRANCH   1  22
TORSDOF 5
ENDMDL
MODEL 6
REMARK VINA RESULT:      -8.4      3.078      4.501
REMARK  Name = 
REMARK  6 active torsions:
REMARK  status: ('A' for Active; 'I' for Inactive)
REMARK    1  A    between atoms: C_1  and  N_2
REMARK    2  A    between atoms: N_2  and  C_3
REMARK    3  A    between atoms: N_2  and  S_9
REMARK    4  A    between atoms: S_9  and  C_12
REMARK    5  A    between atoms: C_15  and  C_16
REMARK    6  A    between atoms: N_21  and  C_22
REMARK                            x       y       z     vdW  Elec       q    Type
REMARK                         _______ _______ _______ _____ _____    ______ ____
ROOT
ATOM      1  C   UNL     1       3.079   6.988  18.667  0.00  0.00    +0.000 A 
ATOM      2  C   UNL     1       2.524   7.943  17.805  0.00  0.00    +0.000 A 
ATOM      3  C   UNL     1       1.620   8.888  18.311  0.00  0.00    +0.000 A 
ATOM      4  C   UNL     1       1.263   8.864  19.667  0.00  0.00    +0.000 A 
ATOM      5  C   UNL     1       1.713   7.815  20.476  0.00  0.00    +0.000 A 
ATOM      6  C   UNL     1       2.641   6.897  19.990  0.00  0.00    +0.000 A 
ENDROOT
BRANCH   4   7
ATOM      7  C   UNL     1       0.361   9.912  20.227  0.00  0.00    +0.000 C 
ATOM      8  O   UNL     1      -0.461   9.571  21.076  0.00  0.00    +0.000 OA
ATOM      9  N   UNL     1       0.509  11.227  19.797  0.00  0.00    +0.000 N 
ATOM     10  C   UNL     1      -0.141  12.323  20.529  0.00  0.00    +0.000 C 
ATOM     11  C   UNL     1       0.849  13.480  20.777  0.00  0.00    +0.000 C 
ATOM     12  N   UNL     1       1.565  13.881  19.546  0.00  0.00    +0.000 N 
ATOM     13  C   UNL     1       2.143  12.783  18.750  0.00  0.00    +0.000 C 
ATOM     14  C   UNL     1       1.104  11.667  18.525  0.00  0.00    +0.000 C 
BRANCH  12  15
ATOM     15  C   UNL     1       1.385  15.122  18.954  0.00  0.00    +0.000 A 
ATOM     16  C   UNL     1       2.501  15.830  18.469  0.00  0.00    +0.000 A 
ATOM     17  C   UNL     1       2.381  17.096  17.883  0.00  0.00    +0.000 A 
ATOM     18  C   UNL     1       1.131  17.692  17.765  0.00  0.00    +0.000 A 
ATOM     19  C   UNL     1       0.007  17.021  18.235  0.00  0.00    +0.000 A 
ATOM     20  C   UNL     1       0.139  15.758  18.821  0.00  0.00    +0.000 A 
ATOM     21  F   UNL     1      -0.986  15.142  19.218  0.00  0.00    +0.000 F 
ENDBRANCH  12  15
ENDBRANCH   4   7
BRANCH   1  22
ATOM     22  S   UNL     1       4.263   5.786  18.076  0.00  0.00    +0.000 S 
ATOM     23  O   UNL     1       5.222   5.581  19.140  0.00  0.00    +0.000 OA
ATOM     24  O   UNL     1       4.704   6.237  16.768  0.00  0.00    +0.000 OA
BRANCH  22  26
ATOM     25  C   UNL     1       3.788   3.426  16.832  0.00  0.00    +0.000 C 
ATOM     26  N   UNL     1       3.354   4.355  17.887  0.00  0.00    +0.000 N 
BRANCH  26  27
ATOM     27  C   UNL     1       2.693   3.810  19.037  0.00  0.00    +0.000 A 
ATOM     28  C   UNL     1       1.299   3.855  19.105  0.00  0.00    +0.000 A 
ATOM     29  C   UNL     1       0.631   3.333  20.214  0.00  0.00    +0.000 A 
ATOM     30  C   UNL     1       1.355   2.773  21.266  0.00  0.00    +0.000 A 
ATOM     31  C   UNL     1       2.747   2.735  21.210  0.00  0.00    +0.000 A 
ATOM     32  C   UNL     1       3.417   3.258  20.100  0.00  0.00    +0.000 A 
ENDBRANCH  26  27
ENDBRANCH  22  26
ENDBRANCH   1  22
TORSDOF 5
ENDMDL
MODEL 7
REMARK VINA RESULT:      -8.4      0.913      1.219
REMARK  Name = 
REMARK  6 active torsions:
REMARK  status: ('A' for Active; 'I' for Inactive)
REMARK    1  A    between atoms: C_1  and  N_2
REMARK    2  A    between atoms: N_2  and  C_3
REMARK    3  A    between atoms: N_2  and  S_9
REMARK    4  A    between atoms: S_9  and  C_12
REMARK    5  A    between atoms: C_15  and  C_16
REMARK    6  A    between atoms: N_21  and  C_22
REMARK                            x       y       z     vdW  Elec       q    Type
REMARK                         _______ _______ _______ _____ _____    ______ ____
ROOT
ATOM      1  C   UNL     1       2.188   5.653  19.265  0.00  0.00    +0.000 A 
ATOM      2  C   UNL     1       2.042   6.515  20.358  0.00  0.00    +0.000 A 
ATOM      3  C   UNL     1       1.924   7.896  20.139  0.00  0.00    +0.000 A 
ATOM      4  C   UNL     1       1.971   8.407  18.833  0.00  0.00    +0.000 A 
ATOM      5  C   UNL     1       2.265   7.545  17.770  0.00  0.00    +0.000 A 
ATOM      6  C   UNL     1       2.344   6.170  17.977  0.00  0.00    +0.000 A 
ENDROOT
BRANCH   4   7
ATOM      7  C   UNL     1       1.772   9.864  18.586  0.00  0.00    +0.000 C 
ATOM      8  O   UNL     1       2.277  10.352  17.577  0.00  0.00    +0.000 OA
ATOM      9  N   UNL     1       1.000  10.599  19.482  0.00  0.00    +0.000 N 
ATOM     10  C   UNL     1       0.535  11.946  19.125  0.00  0.00    +0.000 C 
ATOM     11  C   UNL     1      -0.967  12.109  19.442  0.00  0.00    +0.000 C 
ATOM     12  N   UNL     1      -1.303  11.666  20.813  0.00  0.00    +0.000 N 
ATOM     13  C   UNL     1      -0.764  10.356  21.219  0.00  0.00    +0.000 C 
ATOM     14  C   UNL     1       0.739  10.260  20.890  0.00  0.00    +0.000 C 
BRANCH  12  15
ATOM     15  C   UNL     1      -1.742  12.548  21.790  0.00  0.00    +0.000 A 
ATOM     16  C   UNL     1      -0.801  13.225  22.589  0.00  0.00    +0.000 A 
ATOM     17  C   UNL     1      -1.187  14.108  23.605  0.00  0.00    +0.000 A 
ATOM     18  C   UNL     1      -2.536  14.339  23.850  0.00  0.00    +0.000 A 
ATOM     19  C   UNL     1      -3.492  13.686  23.080  0.00  0.00    +0.000 A 
ATOM     20  C   UNL     1      -3.096  12.804  22.070  0.00  0.00    +0.000 A 
ATOM     21  F   UNL     1      -4.063  12.234  21.333  0.00  0.00    +0.000 F 
ENDBRANCH  12  15
ENDBRANCH   4   7
BRANCH   1  22
ATOM     22  S   UNL     1       2.306   3.883  19.492  0.00  0.00    +0.000 S 
ATOM     23  O   UNL     1       1.828   3.269  18.273  0.00  0.00    +0.000 OA
ATOM     24  O   UNL     1       1.672   3.579  20.764  0.00  0.00    +0.000 OA
BRANCH  22  26
ATOM     25  C   UNL     1       4.380   2.268  20.148  0.00  0.00    +0.000 C 
ATOM     26  N   UNL     1       3.979   3.584  19.626  0.00  0.00    +0.000 N 
BRANCH  26  27
ATOM     27  C   UNL     1       4.865   4.248  18.715  0.00  0.00    +0.000 A 
ATOM     28  C   UNL     1       4.882   3.853  17.375  0.00  0.00    +0.000 A 
ATOM     29  C   UNL     1       5.737   4.483  16.467  0.00  0.00    +0.000 A 
ATOM     30  C   UNL     1       6.585   5.503  16.898  0.00  0.00    +0.000 A 
ATOM     31  C   UNL     1       6.581   5.893  18.236  0.00  0.00    +0.000 A 
ATOM     32  C   UNL     1       5.726   5.263  19.146  0.00  0.00    +0.000 A 
ENDBRANCH  26  27
ENDBRANCH  22  26
ENDBRANCH   1  22
TORSDOF 5
ENDMDL
MODEL 8
REMARK VINA RESULT:      -8.4      2.585      3.400
REMARK  Name = 
REMARK  6 active torsions:
REMARK  status: ('A' for Active; 'I' for Inactive)
REMARK    1  A    between atoms: C_1  and  N_2
REMARK    2  A    between atoms: N_2  and  C_3
REMARK    3  A    between atoms: N_2  and  S_9
REMARK    4  A    between atoms: S_9  and  C_12
REMARK    5  A    between atoms: C_15  and  C_16
REMARK    6  A    between atoms: N_21  and  C_22
REMARK                            x       y       z     vdW  Elec       q    Type
REMARK                         _______ _______ _______ _____ _____    ______ ____
ROOT
ATOM      1  C   UNL     1       2.625   6.384  18.843  0.00  0.00    +0.000 A 
ATOM      2  C   UNL     1       2.441   7.023  17.610  0.00  0.00    +0.000 A 
ATOM      3  C   UNL     1       1.997   8.354  17.582  0.00  0.00    +0.000 A 
ATOM      4  C   UNL     1       1.722   9.029  18.780  0.00  0.00    +0.000 A 
ATOM      5  C   UNL     1       1.770   8.327  19.989  0.00  0.00    +0.000 A 
ATOM      6  C   UNL     1       2.248   7.019  20.028  0.00  0.00    +0.000 A 
ENDROOT
BRANCH   4   7
ATOM      7  C   UNL     1       1.321  10.466  18.761  0.00  0.00    +0.000 C 
ATOM      8  O   UNL     1       2.210  11.312  18.688  0.00  0.00    +0.000 OA
ATOM      9  N   UNL     1      -0.034  10.786  18.791  0.00  0.00    +0.000 N 
ATOM     10  C   UNL     1      -0.477  12.151  18.475  0.00  0.00    +0.000 C 
ATOM     11  C   UNL     1      -1.659  12.127  17.482  0.00  0.00    +0.000 C 
ATOM     12  N   UNL     1      -2.728  11.196  17.904  0.00  0.00    +0.000 N 
ATOM     13  C   UNL     1      -2.288   9.851  18.314  0.00  0.00    +0.000 C 
ATOM     14  C   UNL     1      -1.119   9.941  19.314  0.00  0.00    +0.000 C 
BRANCH  12  15
ATOM     15  C   UNL     1      -3.991  11.636  18.275  0.00  0.00    +0.000 A 
ATOM     16  C   UNL     1      -5.080  11.438  17.406  0.00  0.00    +0.000 A 
ATOM     17  C   UNL     1      -6.371  11.881  17.719  0.00  0.00    +0.000 A 
ATOM     18  C   UNL     1      -6.607  12.540  18.921  0.00  0.00    +0.000 A 
ATOM     19  C   UNL     1      -5.553  12.753  19.802  0.00  0.00    +0.000 A 
ATOM     20  C   UNL     1      -4.268  12.309  19.478  0.00  0.00    +0.000 A 
ATOM     21  F   UNL     1      -3.299  12.507  20.386  0.00  0.00    +0.000 F 
ENDBRANCH  12  15
ENDBRANCH   4   7
BRANCH   1  22
ATOM     22  S   UNL     1       3.224   4.701  18.931  0.00  0.00    +0.000 S 
ATOM     23  O   UNL     1       2.149   3.847  18.477  0.00  0.00    +0.000 OA
ATOM     24  O   UNL     1       3.791   4.525  20.257  0.00  0.00    +0.000 OA
BRANCH  22  26
ATOM     25  C   UNL     1       4.103   4.326  16.396  0.00  0.00    +0.000 C 
ATOM     26  N   UNL     1       4.483   4.639  17.782  0.00  0.00    +0.000 N 
BRANCH  26  27
ATOM     27  C   UNL     1       5.643   5.455  17.997  0.00  0.00    +0.000 A 
ATOM     28  C   UNL     1       5.866   6.553  17.163  0.00  0.00    +0.000 A 
ATOM     29  C   UNL     1       6.988   7.362  17.351  0.00  0.00    +0.000 A 
ATOM     30  C   UNL     1       7.898   7.071  18.367  0.00  0.00    +0.000 A 
ATOM     31  C   UNL     1       7.687   5.971  19.195  0.00  0.00    +0.000 A 
ATOM     32  C   UNL     1       6.564   5.159  19.008  0.00  0.00    +0.000 A 
ENDBRANCH  26  27
ENDBRANCH  22  26
ENDBRANCH   1  22
TORSDOF 5
ENDMDL
MODEL 9
REMARK VINA RESULT:      -8.3      2.984      4.168
REMARK  Name = 
REMARK  6 active torsions:
REMARK  status: ('A' for Active; 'I' for Inactive)
REMARK    1  A    between atoms: C_1  and  N_2
REMARK    2  A    between atoms: N_2  and  C_3
REMARK    3  A    between atoms: N_2  and  S_9
REMARK    4  A    between atoms: S_9  and  C_12
REMARK    5  A    between atoms: C_15  and  C_16
REMARK    6  A    between atoms: N_21  and  C_22
REMARK                            x       y       z     vdW  Elec       q    Type
REMARK                         _______ _______ _______ _____ _____    ______ ____
ROOT
ATOM      1  C   UNL     1       2.903   7.229  18.575  0.00  0.00    +0.000 A 
ATOM      2  C   UNL     1       2.326   7.407  19.838  0.00  0.00    +0.000 A 
ATOM      3  C   UNL     1       1.386   8.430  20.031  0.00  0.00    +0.000 A 
ATOM      4  C   UNL     1       1.042   9.278  18.968  0.00  0.00    +0.000 A 
ATOM      5  C   UNL     1       1.738   9.177  17.758  0.00  0.00    +0.000 A 
ATOM      6  C   UNL     1       2.643   8.140  17.548  0.00  0.00    +0.000 A 
ENDROOT
BRANCH   4   7
ATOM      7  C   UNL     1      -0.011  10.320  19.145  0.00  0.00    +0.000 C 
ATOM      8  O   UNL     1      -1.187   9.964  19.104  0.00  0.00    +0.000 OA
ATOM      9  N   UNL     1       0.378  11.636  19.382  0.00  0.00    +0.000 N 
ATOM     10  C   UNL     1      -0.603  12.623  19.853  0.00  0.00    +0.000 C 
ATOM     11  C   UNL     1      -0.041  13.430  21.042  0.00  0.00    +0.000 C 
ATOM     12  N   UNL     1       1.312  13.964  20.769  0.00  0.00    +0.000 N 
ATOM     13  C   UNL     1       2.282  13.007  20.207  0.00  0.00    +0.000 C 
ATOM     14  C   UNL     1       1.667  12.244  19.017  0.00  0.00    +0.000 C 
BRANCH  12  15
ATOM     15  C   UNL     1       1.565  15.324  20.661  0.00  0.00    +0.000 A 
ATOM     16  C   UNL     1       2.234  15.992  21.704  0.00  0.00    +0.000 A 
ATOM     17  C   UNL     1       2.495  17.367  21.658  0.00  0.00    +0.000 A 
ATOM     18  C   UNL     1       2.091  18.115  20.559  0.00  0.00    +0.000 A 
ATOM     19  C   UNL     1       1.428  17.487  19.511  0.00  0.00    +0.000 A 
ATOM     20  C   UNL     1       1.170  16.114  19.567  0.00  0.00    +0.000 A 
ATOM     21  F   UNL     1       0.562  15.556  18.508  0.00  0.00    +0.000 F 
ENDBRANCH  12  15
ENDBRANCH   4   7
BRANCH   1  22
ATOM     22  S   UNL     1       4.079   5.916  18.272  0.00  0.00    +0.000 S 
ATOM     23  O   UNL     1       4.856   5.760  19.482  0.00  0.00    +0.000 OA
ATOM     24  O   UNL     1       4.735   6.221  17.012  0.00  0.00    +0.000 OA
BRANCH  22  26
ATOM     25  C   UNL     1       3.382   3.699  16.879  0.00  0.00    +0.000 C 
ATOM     26  N   UNL     1       3.115   4.524  18.068  0.00  0.00    +0.000 N 
BRANCH  26  27
ATOM     27  C   UNL     1       2.597   3.876  19.237  0.00  0.00    +0.000 A 
ATOM     28  C   UNL     1       1.237   3.992  19.532  0.00  0.00    +0.000 A 
ATOM     29  C   UNL     1       0.708   3.372  20.666  0.00  0.00    +0.000 A 
ATOM     30  C   UNL     1       1.538   2.641  21.515  0.00  0.00    +0.000 A 
ATOM     31  C   UNL     1       2.898   2.531  21.232  0.00  0.00    +0.000 A 
ATOM     32  C   UNL     1       3.430   3.152  20.098  0.00  0.00    +0.000 A 
ENDBRANCH  26  27
ENDBRANCH  22  26
ENDBRANCH   1  22
TORSDOF 5
ENDMDL
