MODEL 1
REMARK VINA RESULT:      -9.8      0.000      0.000
REMARK  Name = 
REMARK  5 active torsions:
REMARK  status: ('A' for Active; 'I' for Inactive)
REMARK    1  A    between atoms: C_2  and  C_3
REMARK    2  A    between atoms: C_8  and  C_9
REMARK    3  A    between atoms: C_9  and  N_10
REMARK    4  A    between atoms: C_13  and  C_14
REMARK    5  A    between atoms: C_26  and  O_27
REMARK                            x       y       z     vdW  Elec       q    Type
REMARK                         _______ _______ _______ _____ _____    ______ ____
ROOT
ATOM      1  N   UNL     1       0.613   9.936  19.213  0.00  0.00    +0.000 N 
ATOM      2  C   UNL     1       1.479   9.082  18.533  0.00  0.00    +0.000 A 
ATOM      3  O   UNL     1       1.839   9.323  17.380  0.00  0.00    +0.000 OA
ATOM      4  C   UNL     1       1.939   7.839  19.220  0.00  0.00    +0.000 A 
ATOM      5  C   UNL     1       1.634   7.682  20.531  0.00  0.00    +0.000 A 
ATOM      6  C   UNL     1       0.857   8.690  21.281  0.00  0.00    +0.000 A 
ATOM      7  C   UNL     1       0.666   8.593  22.673  0.00  0.00    +0.000 A 
ATOM      8  C   UNL     1      -0.068   9.552  23.375  0.00  0.00    +0.000 A 
ATOM      9  C   UNL     1      -0.633  10.618  22.691  0.00  0.00    +0.000 A 
ATOM     10  C   UNL     1      -0.445  10.733  21.312  0.00  0.00    +0.000 A 
ATOM     11  C   UNL     1       0.314   9.784  20.598  0.00  0.00    +0.000 A 
ENDROOT
BRANCH   4  12
ATOM     12  C   UNL     1       2.842   6.842  18.481  0.00  0.00    +0.000 C 
ATOM     13  N   UNL     1       2.725   5.596  18.873  0.00  0.00    +0.000 NA
ATOM     14  S   UNL     1       3.827   4.542  18.333  0.00  0.00    +0.000 S 
ATOM     15  O   UNL     1       3.990   3.491  19.314  0.00  0.00    +0.000 OA
ATOM     16  O   UNL     1       3.548   4.225  16.943  0.00  0.00    +0.000 OA
ATOM     17  C   UNL     1       5.278   5.528  18.347  0.00  0.00    +0.000 A 
ATOM     18  C   UNL     1       6.483   5.149  18.915  0.00  0.00    +0.000 A 
ATOM     19  C   UNL     1       7.612   5.873  18.557  0.00  0.00    +0.000 A 
ATOM     20  C   UNL     1       7.513   6.888  17.593  0.00  0.00    +0.000 A 
ATOM     21  C   UNL     1       6.257   7.324  17.139  0.00  0.00    +0.000 A 
ATOM     22  C   UNL     1       5.113   6.702  17.627  0.00  0.00    +0.000 A 
ATOM     23  N   UNL     1       3.818   7.261  17.562  0.00  0.00    +0.000 N 
ATOM     24  H   UNL     1       3.508   7.435  16.609  0.00  0.00    +0.000 HD
ENDBRANCH   4  12
BRANCH   5  25
ATOM     25  O   UNL     1       2.015   6.598  21.302  0.00  0.00    +0.000 OA
ATOM     26  H   UNL     1       1.270   5.960  21.327  0.00  0.00    +0.000 HD
ENDBRANCH   5  25
BRANCH   1  27
ATOM     27  C   UNL     1       0.073  11.041  18.450  0.00  0.00    +0.000 C 
BRANCH  27  33
ATOM     28  C   UNL     1      -2.444  11.795  18.631  0.00  0.00    +0.000 A 
ATOM     29  C   UNL     1      -3.769  11.547  18.219  0.00  0.00    +0.000 A 
ATOM     30  C   UNL     1      -4.063  10.585  17.252  0.00  0.00    +0.000 A 
ATOM     31  C   UNL     1      -3.035   9.859  16.668  0.00  0.00    +0.000 A 
ATOM     32  C   UNL     1      -1.723  10.066  17.086  0.00  0.00    +0.000 A 
ATOM     33  C   UNL     1      -1.401  11.012  18.087  0.00  0.00    +0.000 A 
BRANCH  28  35
ATOM     34  N   UNL     1      -2.137  13.732  20.356  0.00  0.00    +0.000 NA
ATOM     35  C   UNL     1      -2.263  12.891  19.565  0.00  0.00    +0.000 C 
ENDBRANCH  28  35
ENDBRANCH  27  33
ENDBRANCH   1  27
TORSDOF 5
ENDMDL
MODEL 2
REMARK VINA RESULT:      -9.3      1.563      2.539
REMARK  Name = 
REMARK  5 active torsions:
REMARK  status: ('A' for Active; 'I' for Inactive)
REMARK    1  A    between atoms: C_2  and  C_3
REMARK    2  A    between atoms: C_8  and  C_9
REMARK    3  A    between atoms: C_9  and  N_10
REMARK    4  A    between atoms: C_13  and  C_14
REMARK    5  A    between atoms: C_26  and  O_27
REMARK                            x       y       z     vdW  Elec       q    Type
REMARK                         _______ _______ _______ _____ _____    ______ ____
ROOT
ATOM      1  N   UNL     1       0.767  10.158  19.156  0.00  0.00    +0.000 N 
ATOM      2  C   UNL     1       1.616   9.263  18.506  0.00  0.00    +0.000 A 
ATOM      3  O   UNL     1       2.052   9.501  17.379  0.00  0.00    +0.000 OA
ATOM      4  C   UNL     1       1.962   7.984  19.192  0.00  0.00    +0.000 A 
ATOM      5  C   UNL     1       1.578   7.825  20.482  0.00  0.00    +0.000 A 
ATOM      6  C   UNL     1       0.823   8.865  21.209  0.00  0.00    +0.000 A 
ATOM      7  C   UNL     1       0.551   8.757  22.587  0.00  0.00    +0.000 A 
ATOM      8  C   UNL     1      -0.161   9.748  23.267  0.00  0.00    +0.000 A 
ATOM      9  C   UNL     1      -0.623  10.858  22.574  0.00  0.00    +0.000 A 
ATOM     10  C   UNL     1      -0.354  10.983  21.210  0.00  0.00    +0.000 A 
ATOM     11  C   UNL     1       0.384  10.001  20.519  0.00  0.00    +0.000 A 
ENDROOT
BRANCH   4  12
ATOM     12  C   UNL     1       2.843   6.946  18.483  0.00  0.00    +0.000 C 
ATOM     13  N   UNL     1       2.686   5.712  18.900  0.00  0.00    +0.000 NA
ATOM     14  S   UNL     1       3.762   4.616  18.393  0.00  0.00    +0.000 S 
ATOM     15  O   UNL     1       3.886   3.582  19.398  0.00  0.00    +0.000 OA
ATOM     16  O   UNL     1       3.486   4.277  17.008  0.00  0.00    +0.000 OA
ATOM     17  C   UNL     1       5.241   5.560  18.400  0.00  0.00    +0.000 A 
ATOM     18  C   UNL     1       6.429   5.159  18.987  0.00  0.00    +0.000 A 
ATOM     19  C   UNL     1       7.583   5.843  18.623  0.00  0.00    +0.000 A 
ATOM     20  C   UNL     1       7.521   6.839  17.637  0.00  0.00    +0.000 A 
ATOM     21  C   UNL     1       6.281   7.301  17.163  0.00  0.00    +0.000 A 
ATOM     22  C   UNL     1       5.117   6.722  17.653  0.00  0.00    +0.000 A 
ATOM     23  N   UNL     1       3.838   7.317  17.565  0.00  0.00    +0.000 N 
ATOM     24  H   UNL     1       3.541   7.479  16.605  0.00  0.00    +0.000 HD
ENDBRANCH   4  12
BRANCH   5  25
ATOM     25  O   UNL     1       1.850   6.706  21.251  0.00  0.00    +0.000 OA
ATOM     26  H   UNL     1       1.251   5.984  20.967  0.00  0.00    +0.000 HD
ENDBRANCH   5  25
BRANCH   1  27
ATOM     27  C   UNL     1       0.336  11.306  18.387  0.00  0.00    +0.000 C 
BRANCH  27  33
ATOM     28  C   UNL     1       0.500  13.825  19.139  0.00  0.00    +0.000 A 
ATOM     29  C   UNL     1       1.308  14.979  19.183  0.00  0.00    +0.000 A 
ATOM     30  C   UNL     1       2.640  14.952  18.771  0.00  0.00    +0.000 A 
ATOM     31  C   UNL     1       3.197  13.765  18.317  0.00  0.00    +0.000 A 
ATOM     32  C   UNL     1       2.406  12.622  18.234  0.00  0.00    +0.000 A 
ATOM     33  C   UNL     1       1.043  12.630  18.614  0.00  0.00    +0.000 A 
BRANCH  28  35
ATOM     34  N   UNL     1      -1.879  14.070  20.187  0.00  0.00    +0.000 NA
ATOM     35  C   UNL     1      -0.836  13.961  19.692  0.00  0.00    +0.000 C 
ENDBRANCH  28  35
ENDBRANCH  27  33
ENDBRANCH   1  27
TORSDOF 5
ENDMDL
MODEL 3
REMARK VINA RESULT:      -8.2      4.796      9.900
REMARK  Name = 
REMARK  5 active torsions:
REMARK  status: ('A' for Active; 'I' for Inactive)
REMARK    1  A    between atoms: C_2  and  C_3
REMARK    2  A    between atoms: C_8  and  C_9
REMARK    3  A    between atoms: C_9  and  N_10
REMARK    4  A    between atoms: C_13  and  C_14
REMARK    5  A    between atoms: C_26  and  O_27
REMARK                            x       y       z     vdW  Elec       q    Type
REMARK                         _______ _______ _______ _____ _____    ______ ____
ROOT
ATOM      1  N   UNL     1      -1.106  11.790  19.342  0.00  0.00    +0.000 N 
ATOM      2  C   UNL     1      -1.534  12.495  20.465  0.00  0.00    +0.000 A 
ATOM      3  O   UNL     1      -0.727  12.994  21.252  0.00  0.00    +0.000 OA
ATOM      4  C   UNL     1      -3.000  12.607  20.721  0.00  0.00    +0.000 A 
ATOM      5  C   UNL     1      -3.852  12.168  19.763  0.00  0.00    +0.000 A 
ATOM      6  C   UNL     1      -3.371  11.578  18.497  0.00  0.00    +0.000 A 
ATOM      7  C   UNL     1      -4.253  11.256  17.447  0.00  0.00    +0.000 A 
ATOM      8  C   UNL     1      -3.789  10.700  16.253  0.00  0.00    +0.000 A 
ATOM      9  C   UNL     1      -2.434  10.446  16.096  0.00  0.00    +0.000 A 
ATOM     10  C   UNL     1      -1.546  10.767  17.124  0.00  0.00    +0.000 A 
ATOM     11  C   UNL     1      -2.001  11.351  18.324  0.00  0.00    +0.000 A 
ENDROOT
BRANCH   4  12
ATOM     12  C   UNL     1      -3.509  13.322  21.980  0.00  0.00    +0.000 C 
ATOM     13  N   UNL     1      -3.434  12.617  23.083  0.00  0.00    +0.000 NA
ATOM     14  S   UNL     1      -4.191  13.199  24.389  0.00  0.00    +0.000 S 
ATOM     15  O   UNL     1      -4.598  12.092  25.226  0.00  0.00    +0.000 OA
ATOM     16  O   UNL     1      -3.424  14.304  24.936  0.00  0.00    +0.000 OA
ATOM     17  C   UNL     1      -5.633  13.891  23.666  0.00  0.00    +0.000 A 
ATOM     18  C   UNL     1      -6.925  13.660  24.107  0.00  0.00    +0.000 A 
ATOM     19  C   UNL     1      -7.915  14.526  23.663  0.00  0.00    +0.000 A 
ATOM     20  C   UNL     1      -7.571  15.629  22.867  0.00  0.00    +0.000 A 
ATOM     21  C   UNL     1      -6.275  15.753  22.338  0.00  0.00    +0.000 A 
ATOM     22  C   UNL     1      -5.325  14.790  22.655  0.00  0.00    +0.000 A 
ATOM     23  N   UNL     1      -4.137  14.577  21.921  0.00  0.00    +0.000 N 
ATOM     24  H   UNL     1      -3.531  15.395  21.901  0.00  0.00    +0.000 HD
ENDBRANCH   4  12
BRANCH   5  25
ATOM     25  O   UNL     1      -5.232  12.232  19.849  0.00  0.00    +0.000 OA
ATOM     26  H   UNL     1      -5.574  11.325  19.997  0.00  0.00    +0.000 HD
ENDBRANCH   5  25
BRANCH   1  27
ATOM     27  C   UNL     1       0.321  11.575  19.225  0.00  0.00    +0.000 C 
BRANCH  27  33
ATOM     28  C   UNL     1       0.928   9.450  20.658  0.00  0.00    +0.000 A 
ATOM     29  C   UNL     1       1.551   8.185  20.663  0.00  0.00    +0.000 A 
ATOM     30  C   UNL     1       2.047   7.613  19.492  0.00  0.00    +0.000 A 
ATOM     31  C   UNL     1       1.920   8.290  18.287  0.00  0.00    +0.000 A 
ATOM     32  C   UNL     1       1.339   9.554  18.267  0.00  0.00    +0.000 A 
ATOM     33  C   UNL     1       0.857  10.172  19.445  0.00  0.00    +0.000 A 
BRANCH  28  35
ATOM     34  N   UNL     1      -0.040  10.218  22.959  0.00  0.00    +0.000 NA
ATOM     35  C   UNL     1       0.362   9.887  21.922  0.00  0.00    +0.000 C 
ENDBRANCH  28  35
ENDBRANCH  27  33
ENDBRANCH   1  27
TORSDOF 5
ENDMDL
MODEL 4
REMARK VINA RESULT:      -8.2      2.752      8.341
REMARK  Name = 
REMARK  5 active torsions:
REMARK  status: ('A' for Active; 'I' for Inactive)
REMARK    1  A    between atoms: C_2  and  C_3
REMARK    2  A    between atoms: C_8  and  C_9
REMARK    3  A    between atoms: C_9  and  N_10
REMARK    4  A    between atoms: C_13  and  C_14
REMARK    5  A    between atoms: C_26  and  O_27
REMARK                            x       y       z     vdW  Elec       q    Type
REMARK                         _______ _______ _______ _____ _____    ______ ____
ROOT
ATOM      1  N   UNL     1       3.057   6.108  18.181  0.00  0.00    +0.000 N 
ATOM      2  C   UNL     1       2.663   7.434  18.351  0.00  0.00    +0.000 A 
ATOM      3  O   UNL     1       2.975   8.303  17.534  0.00  0.00    +0.000 OA
ATOM      4  C   UNL     1       1.877   7.794  19.568  0.00  0.00    +0.000 A 
ATOM      5  C   UNL     1       1.437   6.790  20.365  0.00  0.00    +0.000 A 
ATOM      6  C   UNL     1       1.723   5.372  20.069  0.00  0.00    +0.000 A 
ATOM      7  C   UNL     1       1.144   4.328  20.817  0.00  0.00    +0.000 A 
ATOM      8  C   UNL     1       1.418   2.989  20.528  0.00  0.00    +0.000 A 
ATOM      9  C   UNL     1       2.287   2.674  19.494  0.00  0.00    +0.000 A 
ATOM     10  C   UNL     1       2.861   3.698  18.738  0.00  0.00    +0.000 A 
ATOM     11  C   UNL     1       2.573   5.052  19.005  0.00  0.00    +0.000 A 
ENDROOT
BRANCH   4  12
ATOM     12  C   UNL     1       1.478   9.254  19.821  0.00  0.00    +0.000 C 
ATOM     13  N   UNL     1       1.363   9.583  21.085  0.00  0.00    +0.000 NA
ATOM     14  S   UNL     1       0.690  11.016  21.421  0.00  0.00    +0.000 S 
ATOM     15  O   UNL     1       0.031  10.934  22.706  0.00  0.00    +0.000 OA
ATOM     16  O   UNL     1       1.646  12.072  21.141  0.00  0.00    +0.000 OA
ATOM     17  C   UNL     1      -0.548  11.110  20.181  0.00  0.00    +0.000 A 
ATOM     18  C   UNL     1      -1.876  11.423  20.415  0.00  0.00    +0.000 A 
ATOM     19  C   UNL     1      -2.648  11.788  19.320  0.00  0.00    +0.000 A 
ATOM     20  C   UNL     1      -2.053  11.904  18.055  0.00  0.00    +0.000 A 
ATOM     21  C   UNL     1      -0.740  11.454  17.838  0.00  0.00    +0.000 A 
ATOM     22  C   UNL     1      -0.021  10.936  18.909  0.00  0.00    +0.000 A 
ATOM     23  N   UNL     1       1.125  10.122  18.775  0.00  0.00    +0.000 N 
ATOM     24  H   UNL     1       1.887  10.587  18.285  0.00  0.00    +0.000 HD
ENDBRANCH   4  12
BRANCH   5  25
ATOM     25  O   UNL     1       0.678   6.970  21.508  0.00  0.00    +0.000 OA
ATOM     26  H   UNL     1       0.913   7.837  21.901  0.00  0.00    +0.000 HD
ENDBRANCH   5  25
BRANCH   1  27
ATOM     27  C   UNL     1       3.948   5.842  17.071  0.00  0.00    +0.000 C 
BRANCH  27  33
ATOM     28  C   UNL     1       6.307   4.789  16.556  0.00  0.00    +0.000 A 
ATOM     29  C   UNL     1       7.583   4.479  17.068  0.00  0.00    +0.000 A 
ATOM     30  C   UNL     1       7.976   4.892  18.341  0.00  0.00    +0.000 A 
ATOM     31  C   UNL     1       7.105   5.633  19.126  0.00  0.00    +0.000 A 
ATOM     32  C   UNL     1       5.828   5.920  18.651  0.00  0.00    +0.000 A 
ATOM     33  C   UNL     1       5.391   5.487  17.377  0.00  0.00    +0.000 A 
BRANCH  28  35
ATOM     34  N   UNL     1       5.904   4.038  14.088  0.00  0.00    +0.000 NA
ATOM     35  C   UNL     1       6.058   4.393  15.182  0.00  0.00    +0.000 C 
ENDBRANCH  28  35
ENDBRANCH  27  33
ENDBRANCH   1  27
TORSDOF 5
ENDMDL
MODEL 5
REMARK VINA RESULT:      -8.2      1.523      2.526
REMARK  Name = 
REMARK  5 active torsions:
REMARK  status: ('A' for Active; 'I' for Inactive)
REMARK    1  A    between atoms: C_2  and  C_3
REMARK    2  A    between atoms: C_8  and  C_9
REMARK    3  A    between atoms: C_9  and  N_10
REMARK    4  A    between atoms: C_13  and  C_14
REMARK    5  A    between atoms: C_26  and  O_27
REMARK                            x       y       z     vdW  Elec       q    Type
REMARK                         _______ _______ _______ _____ _____    ______ ____
ROOT
ATOM      1  N   UNL     1       0.537  10.017  19.052  0.00  0.00    +0.000 N 
ATOM      2  C   UNL     1       1.428   9.163  18.405  0.00  0.00    +0.000 A 
ATOM      3  O   UNL     1       1.800   9.383  17.251  0.00  0.00    +0.000 OA
ATOM      4  C   UNL     1       1.902   7.947  19.128  0.00  0.00    +0.000 A 
ATOM      5  C   UNL     1       1.582   7.816  20.439  0.00  0.00    +0.000 A 
ATOM      6  C   UNL     1       0.776   8.826  21.153  0.00  0.00    +0.000 A 
ATOM      7  C   UNL     1       0.567   8.759  22.545  0.00  0.00    +0.000 A 
ATOM      8  C   UNL     1      -0.195   9.721  23.212  0.00  0.00    +0.000 A 
ATOM      9  C   UNL     1      -0.771  10.759  22.494  0.00  0.00    +0.000 A 
ATOM     10  C   UNL     1      -0.566  10.844  21.116  0.00  0.00    +0.000 A 
ATOM     11  C   UNL     1       0.221   9.892  20.436  0.00  0.00    +0.000 A 
ENDROOT
BRANCH   4  12
ATOM     12  C   UNL     1       2.834   6.950  18.427  0.00  0.00    +0.000 C 
ATOM     13  N   UNL     1       2.704   5.704  18.817  0.00  0.00    +0.000 NA
ATOM     14  S   UNL     1       3.828   4.650  18.321  0.00  0.00    +0.000 S 
ATOM     15  O   UNL     1       3.955   3.602  19.310  0.00  0.00    +0.000 OA
ATOM     16  O   UNL     1       3.602   4.330  16.923  0.00  0.00    +0.000 OA
ATOM     17  C   UNL     1       5.276   5.639  18.389  0.00  0.00    +0.000 A 
ATOM     18  C   UNL     1       6.458   5.263  19.003  0.00  0.00    +0.000 A 
ATOM     19  C   UNL     1       7.600   5.989  18.686  0.00  0.00    +0.000 A 
ATOM     20  C   UNL     1       7.536   7.001  17.717  0.00  0.00    +0.000 A 
ATOM     21  C   UNL     1       6.297   7.434  17.215  0.00  0.00    +0.000 A 
ATOM     22  C   UNL     1       5.137   6.811  17.660  0.00  0.00    +0.000 A 
ATOM     23  N   UNL     1       3.844   7.368  17.545  0.00  0.00    +0.000 N 
ATOM     24  H   UNL     1       3.570   7.540  16.580  0.00  0.00    +0.000 HD
ENDBRANCH   4  12
BRANCH   5  25
ATOM     25  O   UNL     1       1.972   6.758  21.242  0.00  0.00    +0.000 OA
ATOM     26  H   UNL     1       2.051   7.083  22.163  0.00  0.00    +0.000 HD
ENDBRANCH   5  25
BRANCH   1  27
ATOM     27  C   UNL     1      -0.014  11.092  18.254  0.00  0.00    +0.000 C 
BRANCH  27  33
ATOM     28  C   UNL     1       1.238  13.316  18.904  0.00  0.00    +0.000 A 
ATOM     29  C   UNL     1       1.129  14.579  19.521  0.00  0.00    +0.000 A 
ATOM     30  C   UNL     1      -0.098  15.066  19.971  0.00  0.00    +0.000 A 
ATOM     31  C   UNL     1      -1.245  14.304  19.804  0.00  0.00    +0.000 A 
ATOM     32  C   UNL     1      -1.153  13.040  19.227  0.00  0.00    +0.000 A 
ATOM     33  C   UNL     1       0.083  12.508  18.792  0.00  0.00    +0.000 A 
BRANCH  28  35
ATOM     34  N   UNL     1       3.597  12.743  17.941  0.00  0.00    +0.000 NA
ATOM     35  C   UNL     1       2.550  12.971  18.387  0.00  0.00    +0.000 C 
ENDBRANCH  28  35
ENDBRANCH  27  33
ENDBRANCH   1  27
TORSDOF 5
ENDMDL
MODEL 6
REMARK VINA RESULT:      -8.1      0.901      1.705
REMARK  Name = 
REMARK  5 active torsions:
REMARK  status: ('A' for Active; 'I' for Inactive)
REMARK    1  A    between atoms: C_2  and  C_3
REMARK    2  A    between atoms: C_8  and  C_9
REMARK    3  A    between atoms: C_9  and  N_10
REMARK    4  A    between atoms: C_13  and  C_14
REMARK    5  A    between atoms: C_26  and  O_27
REMARK                            x       y       z     vdW  Elec       q    Type
REMARK                         _______ _______ _______ _____ _____    ______ ____
ROOT
ATOM      1  N   UNL     1       0.541  10.077  19.260  0.00  0.00    +0.000 N 
ATOM      2  C   UNL     1       1.387   9.224  18.556  0.00  0.00    +0.000 A 
ATOM      3  O   UNL     1       1.736   9.480  17.402  0.00  0.00    +0.000 OA
ATOM      4  C   UNL     1       1.842   7.965  19.216  0.00  0.00    +0.000 A 
ATOM      5  C   UNL     1       1.553   7.790  20.529  0.00  0.00    +0.000 A 
ATOM      6  C   UNL     1       0.798   8.795  21.305  0.00  0.00    +0.000 A 
ATOM      7  C   UNL     1       0.624   8.677  22.698  0.00  0.00    +0.000 A 
ATOM      8  C   UNL     1      -0.090   9.634  23.424  0.00  0.00    +0.000 A 
ATOM      9  C   UNL     1      -0.651  10.717  22.765  0.00  0.00    +0.000 A 
ATOM     10  C   UNL     1      -0.480  10.852  21.386  0.00  0.00    +0.000 A 
ATOM     11  C   UNL     1       0.258   9.905  20.646  0.00  0.00    +0.000 A 
ENDROOT
BRANCH   4  12
ATOM     12  C   UNL     1       2.724   6.970  18.450  0.00  0.00    +0.000 C 
ATOM     13  N   UNL     1       2.566   5.714  18.793  0.00  0.00    +0.000 NA
ATOM     14  S   UNL     1       3.642   4.648  18.225  0.00  0.00    +0.000 S 
ATOM     15  O   UNL     1       3.763   3.557  19.168  0.00  0.00    +0.000 OA
ATOM     16  O   UNL     1       3.369   4.392  16.822  0.00  0.00    +0.000 OA
ATOM     17  C   UNL     1       5.122   5.589  18.291  0.00  0.00    +0.000 A 
ATOM     18  C   UNL     1       6.308   5.154  18.856  0.00  0.00    +0.000 A 
ATOM     19  C   UNL     1       7.462   5.857  18.537  0.00  0.00    +0.000 A 
ATOM     20  C   UNL     1       7.404   6.909  17.611  0.00  0.00    +0.000 A 
ATOM     21  C   UNL     1       6.166   7.399  17.161  0.00  0.00    +0.000 A 
ATOM     22  C   UNL     1       4.999   6.793  17.613  0.00  0.00    +0.000 A 
ATOM     23  N   UNL     1       3.722   7.393  17.557  0.00  0.00    +0.000 N 
ATOM     24  H   UNL     1       3.428   7.612  16.608  0.00  0.00    +0.000 HD
ENDBRANCH   4  12
BRANCH   5  25
ATOM     25  O   UNL     1       1.931   6.689  21.277  0.00  0.00    +0.000 OA
ATOM     26  H   UNL     1       2.846   6.834  21.597  0.00  0.00    +0.000 HD
ENDBRANCH   5  25
BRANCH   1  27
ATOM     27  C   UNL     1       0.004  11.200  18.523  0.00  0.00    +0.000 C 
BRANCH  27  33
ATOM     28  C   UNL     1      -2.485  10.952  17.697  0.00  0.00    +0.000 A 
ATOM     29  C   UNL     1      -3.819  11.375  17.868  0.00  0.00    +0.000 A 
ATOM     30  C   UNL     1      -4.185  12.224  18.912  0.00  0.00    +0.000 A 
ATOM     31  C   UNL     1      -3.226  12.659  19.815  0.00  0.00    +0.000 A 
ATOM     32  C   UNL     1      -1.898  12.279  19.644  0.00  0.00    +0.000 A 
ATOM     33  C   UNL     1      -1.493  11.445  18.576  0.00  0.00    +0.000 A 
BRANCH  28  35
ATOM     34  N   UNL     1      -2.115   9.239  15.760  0.00  0.00    +0.000 NA
ATOM     35  C   UNL     1      -2.254   9.988  16.637  0.00  0.00    +0.000 C 
ENDBRANCH  28  35
ENDBRANCH  27  33
ENDBRANCH   1  27
TORSDOF 5
ENDMDL
MODEL 7
REMARK VINA RESULT:      -7.9      5.270      9.997
REMARK  Name = 
REMARK  5 active torsions:
REMARK  status: ('A' for Active; 'I' for Inactive)
REMARK    1  A    between atoms: C_2  and  C_3
REMARK    2  A    between atoms: C_8  and  C_9
REMARK    3  A    between atoms: C_9  and  N_10
REMARK    4  A    between atoms: C_13  and  C_14
REMARK    5  A    between atoms: C_26  and  O_27
REMARK                            x       y       z     vdW  Elec       q    Type
REMARK                         _______ _______ _______ _____ _____    ______ ____
ROOT
ATOM      1  N   UNL     1      -1.827  12.035  19.252  0.00  0.00    +0.000 N 
ATOM      2  C   UNL     1      -2.454  12.638  20.340  0.00  0.00    +0.000 A 
ATOM      3  O   UNL     1      -1.802  13.193  21.227  0.00  0.00    +0.000 OA
ATOM      4  C   UNL     1      -3.942  12.569  20.434  0.00  0.00    +0.000 A 
ATOM      5  C   UNL     1      -4.628  12.075  19.374  0.00  0.00    +0.000 A 
ATOM      6  C   UNL     1      -3.946  11.599  18.154  0.00  0.00    +0.000 A 
ATOM      7  C   UNL     1      -4.666  11.222  17.003  0.00  0.00    +0.000 A 
ATOM      8  C   UNL     1      -4.013  10.774  15.852  0.00  0.00    +0.000 A 
ATOM      9  C   UNL     1      -2.629  10.686  15.839  0.00  0.00    +0.000 A 
ATOM     10  C   UNL     1      -1.901  11.064  16.970  0.00  0.00    +0.000 A 
ATOM     11  C   UNL     1      -2.549  11.539  18.128  0.00  0.00    +0.000 A 
ENDROOT
BRANCH   4  12
ATOM     12  C   UNL     1      -4.664  13.166  21.649  0.00  0.00    +0.000 C 
ATOM     13  N   UNL     1      -5.704  13.912  21.361  0.00  0.00    +0.000 NA
ATOM     14  S   UNL     1      -6.347  14.785  22.563  0.00  0.00    +0.000 S 
ATOM     15  O   UNL     1      -6.947  15.978  22.006  0.00  0.00    +0.000 OA
ATOM     16  O   UNL     1      -7.105  13.910  23.439  0.00  0.00    +0.000 OA
ATOM     17  C   UNL     1      -4.907  15.263  23.445  0.00  0.00    +0.000 A 
ATOM     18  C   UNL     1      -4.619  16.558  23.841  0.00  0.00    +0.000 A 
ATOM     19  C   UNL     1      -3.635  16.725  24.807  0.00  0.00    +0.000 A 
ATOM     20  C   UNL     1      -3.037  15.601  25.395  0.00  0.00    +0.000 A 
ATOM     21  C   UNL     1      -3.264  14.315  24.876  0.00  0.00    +0.000 A 
ATOM     22  C   UNL     1      -4.129  14.169  23.798  0.00  0.00    +0.000 A 
ATOM     23  N   UNL     1      -4.159  13.038  22.953  0.00  0.00    +0.000 N 
ATOM     24  H   UNL     1      -4.382  12.177  23.450  0.00  0.00    +0.000 HD
ENDBRANCH   4  12
BRANCH   5  25
ATOM     25  O   UNL     1      -6.007  11.975  19.308  0.00  0.00    +0.000 OA
ATOM     26  H   UNL     1      -6.340  12.693  18.730  0.00  0.00    +0.000 HD
ENDBRANCH   5  25
BRANCH   1  27
ATOM     27  C   UNL     1      -0.381  11.992  19.289  0.00  0.00    +0.000 C 
BRANCH  27  33
ATOM     28  C   UNL     1       0.453  10.019  20.822  0.00  0.00    +0.000 A 
ATOM     29  C   UNL     1       1.195   8.822  20.882  0.00  0.00    +0.000 A 
ATOM     30  C   UNL     1       1.723   8.234  19.733  0.00  0.00    +0.000 A 
ATOM     31  C   UNL     1       1.511   8.825  18.496  0.00  0.00    +0.000 A 
ATOM     32  C   UNL     1       0.810  10.026  18.420  0.00  0.00    +0.000 A 
ATOM     33  C   UNL     1       0.292  10.661  19.572  0.00  0.00    +0.000 A 
BRANCH  28  35
ATOM     34  N   UNL     1      -0.564  10.791  23.100  0.00  0.00    +0.000 NA
ATOM     35  C   UNL     1      -0.129  10.471  22.072  0.00  0.00    +0.000 C 
ENDBRANCH  28  35
ENDBRANCH  27  33
ENDBRANCH   1  27
TORSDOF 5
ENDMDL
MODEL 8
REMARK VINA RESULT:      -7.8      3.319      8.130
REMARK  Name = 
REMARK  5 active torsions:
REMARK  status: ('A' for Active; 'I' for Inactive)
REMARK    1  A    between atoms: C_2  and  C_3
REMARK    2  A    between atoms: C_8  and  C_9
REMARK    3  A    between atoms: C_9  and  N_10
REMARK    4  A    between atoms: C_13  and  C_14
REMARK    5  A    between atoms: C_26  and  O_27
REMARK                            x       y       z     vdW  Elec       q    Type
REMARK                         _______ _______ _______ _____ _____    ______ ____
ROOT
ATOM      1  N   UNL     1       2.593   6.402  19.729  0.00  0.00    +0.000 N 
ATOM      2  C   UNL     1       1.843   7.498  20.151  0.00  0.00    +0.000 A 
ATOM      3  O   UNL     1       1.302   7.513  21.258  0.00  0.00    +0.000 OA
ATOM      4  C   UNL     1       1.675   8.649  19.217  0.00  0.00    +0.000 A 
ATOM      5  C   UNL     1       2.399   8.655  18.071  0.00  0.00    +0.000 A 
ATOM      6  C   UNL     1       3.325   7.557  17.724  0.00  0.00    +0.000 A 
ATOM      7  C   UNL     1       4.179   7.634  16.607  0.00  0.00    +0.000 A 
ATOM      8  C   UNL     1       5.054   6.592  16.288  0.00  0.00    +0.000 A 
ATOM      9  C   UNL     1       5.077   5.451  17.076  0.00  0.00    +0.000 A 
ATOM     10  C   UNL     1       4.242   5.364  18.192  0.00  0.00    +0.000 A 
ATOM     11  C   UNL     1       3.373   6.419  18.537  0.00  0.00    +0.000 A 
ENDROOT
BRANCH   4  12
ATOM     12  C   UNL     1       0.804   9.847  19.621  0.00  0.00    +0.000 C 
ATOM     13  N   UNL     1      -0.267  10.024  18.885  0.00  0.00    +0.000 NA
ATOM     14  S   UNL     1      -1.081  11.408  19.080  0.00  0.00    +0.000 S 
ATOM     15  O   UNL     1      -1.731  11.748  17.833  0.00  0.00    +0.000 OA
ATOM     16  O   UNL     1      -1.833  11.352  20.321  0.00  0.00    +0.000 OA
ATOM     17  C   UNL     1       0.233  12.543  19.334  0.00  0.00    +0.000 A 
ATOM     18  C   UNL     1       0.375  13.747  18.665  0.00  0.00    +0.000 A 
ATOM     19  C   UNL     1       1.256  14.676  19.203  0.00  0.00    +0.000 A 
ATOM     20  C   UNL     1       1.896  14.405  20.422  0.00  0.00    +0.000 A 
ATOM     21  C   UNL     1       1.824  13.126  21.000  0.00  0.00    +0.000 A 
ATOM     22  C   UNL     1       1.069  12.145  20.367  0.00  0.00    +0.000 A 
ATOM     23  N   UNL     1       1.207  10.760  20.609  0.00  0.00    +0.000 N 
ATOM     24  H   UNL     1       1.017  10.505  21.576  0.00  0.00    +0.000 HD
ENDBRANCH   4  12
BRANCH   5  25
ATOM     25  O   UNL     1       2.367   9.665  17.125  0.00  0.00    +0.000 OA
ATOM     26  H   UNL     1       1.585  10.229  17.304  0.00  0.00    +0.000 HD
ENDBRANCH   5  25
BRANCH   1  27
ATOM     27  C   UNL     1       2.594   5.250  20.605  0.00  0.00    +0.000 C 
BRANCH  27  33
ATOM     28  C   UNL     1       2.770   2.698  19.980  0.00  0.00    +0.000 A 
ATOM     29  C   UNL     1       2.143   1.605  19.347  0.00  0.00    +0.000 A 
ATOM     30  C   UNL     1       0.844   1.702  18.846  0.00  0.00    +0.000 A 
ATOM     31  C   UNL     1       0.141   2.890  18.978  0.00  0.00    +0.000 A 
ATOM     32  C   UNL     1       0.756   3.990  19.570  0.00  0.00    +0.000 A 
ATOM     33  C   UNL     1       2.082   3.930  20.058  0.00  0.00    +0.000 A 
BRANCH  28  35
ATOM     34  N   UNL     1       5.129   2.179  20.974  0.00  0.00    +0.000 NA
ATOM     35  C   UNL     1       4.080   2.437  20.550  0.00  0.00    +0.000 C 
ENDBRANCH  28  35
ENDBRANCH  27  33
ENDBRANCH   1  27
TORSDOF 5
ENDMDL
MODEL 9
REMARK VINA RESULT:      -7.7      1.940      2.824
REMARK  Name = 
REMARK  5 active torsions:
REMARK  status: ('A' for Active; 'I' for Inactive)
REMARK    1  A    between atoms: C_2  and  C_3
REMARK    2  A    between atoms: C_8  and  C_9
REMARK    3  A    between atoms: C_9  and  N_10
REMARK    4  A    between atoms: C_13  and  C_14
REMARK    5  A    between atoms: C_26  and  O_27
REMARK                            x       y       z     vdW  Elec       q    Type
REMARK                         _______ _______ _______ _____ _____    ______ ____
ROOT
ATOM      1  N   UNL     1       1.416   9.185  18.704  0.00  0.00    +0.000 N 
ATOM      2  C   UNL     1       2.343   8.212  18.336  0.00  0.00    +0.000 A 
ATOM      3  O   UNL     1       2.972   8.296  17.280  0.00  0.00    +0.000 OA
ATOM      4  C   UNL     1       2.537   7.037  19.235  0.00  0.00    +0.000 A 
ATOM      5  C   UNL     1       1.934   7.053  20.448  0.00  0.00    +0.000 A 
ATOM      6  C   UNL     1       1.089   8.181  20.889  0.00  0.00    +0.000 A 
ATOM      7  C   UNL     1       0.582   8.260  22.201  0.00  0.00    +0.000 A 
ATOM      8  C   UNL     1      -0.213   9.333  22.609  0.00  0.00    +0.000 A 
ATOM      9  C   UNL     1      -0.524  10.339  21.706  0.00  0.00    +0.000 A 
ATOM     10  C   UNL     1      -0.022  10.279  20.405  0.00  0.00    +0.000 A 
ATOM     11  C   UNL     1       0.801   9.214  19.989  0.00  0.00    +0.000 A 
ENDROOT
BRANCH   4  12
ATOM     12  C   UNL     1       3.503   5.914  18.834  0.00  0.00    +0.000 C 
ATOM     13  N   UNL     1       4.482   5.699  19.680  0.00  0.00    +0.000 NA
ATOM     14  S   UNL     1       5.679   4.723  19.198  0.00  0.00    +0.000 S 
ATOM     15  O   UNL     1       6.902   5.119  19.863  0.00  0.00    +0.000 OA
ATOM     16  O   UNL     1       5.222   3.346  19.239  0.00  0.00    +0.000 OA
ATOM     17  C   UNL     1       5.816   5.163  17.505  0.00  0.00    +0.000 A 
ATOM     18  C   UNL     1       7.002   5.479  16.866  0.00  0.00    +0.000 A 
ATOM     19  C   UNL     1       7.001   5.472  15.477  0.00  0.00    +0.000 A 
ATOM     20  C   UNL     1       5.848   5.075  14.783  0.00  0.00    +0.000 A 
ATOM     21  C   UNL     1       4.633   4.887  15.463  0.00  0.00    +0.000 A 
ATOM     22  C   UNL     1       4.601   5.056  16.843  0.00  0.00    +0.000 A 
ATOM     23  N   UNL     1       3.421   5.271  17.588  0.00  0.00    +0.000 N 
ATOM     24  H   UNL     1       2.756   4.504  17.508  0.00  0.00    +0.000 HD
ENDBRANCH   4  12
BRANCH   5  25
ATOM     25  O   UNL     1       2.045   6.048  21.395  0.00  0.00    +0.000 OA
ATOM     26  H   UNL     1       2.629   6.367  22.115  0.00  0.00    +0.000 HD
ENDBRANCH   5  25
BRANCH   1  27
ATOM     27  C   UNL     1       1.149  10.219  17.726  0.00  0.00    +0.000 C 
BRANCH  27  33
ATOM     28  C   UNL     1       0.026  12.530  18.305  0.00  0.00    +0.000 A 
ATOM     29  C   UNL     1       0.244  13.873  18.672  0.00  0.00    +0.000 A 
ATOM     30  C   UNL     1       1.520  14.347  18.977  0.00  0.00    +0.000 A 
ATOM     31  C   UNL     1       2.605  13.484  18.930  0.00  0.00    +0.000 A 
ATOM     32  C   UNL     1       2.415  12.162  18.537  0.00  0.00    +0.000 A 
ATOM     33  C   UNL     1       1.138  11.663  18.192  0.00  0.00    +0.000 A 
BRANCH  28  35
ATOM     34  N   UNL     1      -2.462  11.844  17.909  0.00  0.00    +0.000 NA
ATOM     35  C   UNL     1      -1.358  12.137  18.115  0.00  0.00    +0.000 C 
ENDBRANCH  28  35
ENDBRANCH  27  33
ENDBRANCH   1  27
TORSDOF 5
ENDMDL
