MODEL 1
REMARK VINA RESULT:      -7.1      0.000      0.000
REMARK  Name = 
REMARK  4 active torsions:
REMARK  status: ('A' for Active; 'I' for Inactive)
REMARK    1  A    between atoms: C_1  and  C_2
REMARK    2  A    between atoms: C_4  and  C_5
REMARK    3  A    between atoms: C_6  and  C_7
REMARK    4  A    between atoms: C_20  and  C_21
REMARK                            x       y       z     vdW  Elec       q    Type
REMARK                         _______ _______ _______ _____ _____    ______ ____
ROOT
ATOM      1  C   UNL     1       3.879   5.728  18.216  0.00  0.00    +0.000 A 
ATOM      2  O   UNL     1       3.333   6.981  17.978  0.00  0.00    +0.000 OA
ATOM      3  C   UNL     1       2.490   7.516  18.917  0.00  0.00    +0.000 A 
ATOM      4  C   UNL     1       1.937   8.767  18.641  0.00  0.00    +0.000 A 
ATOM      5  C   UNL     1       1.034   9.342  19.541  0.00  0.00    +0.000 A 
ATOM      6  C   UNL     1       0.697   8.666  20.715  0.00  0.00    +0.000 A 
ATOM      7 CL   UNL     1      -0.436   9.364  21.804  0.00  0.00    +0.000 Cl
ATOM      8  C   UNL     1       1.265   7.429  21.006  0.00  0.00    +0.000 A 
ATOM      9  C   UNL     1       2.165   6.858  20.098  0.00  0.00    +0.000 A 
ATOM     10  C   UNL     1       2.776   5.548  20.376  0.00  0.00    +0.000 A 
ATOM     11  O   UNL     1       2.517   4.955  21.419  0.00  0.00    +0.000 OA
ATOM     12  C   UNL     1       3.681   5.008  19.334  0.00  0.00    +0.000 A 
ATOM     13 CL   UNL     1       4.406   3.473  19.638  0.00  0.00    +0.000 Cl
ENDROOT
BRANCH   1  19
ATOM     14  C   UNL     1       6.915   4.078  13.560  0.00  0.00    +0.000 C 
ATOM     15  C   UNL     1       6.162   4.443  14.804  0.00  0.00    +0.000 A 
ATOM     16  C   UNL     1       4.969   3.800  15.144  0.00  0.00    +0.000 A 
ATOM     17  C   UNL     1       4.231   4.191  16.273  0.00  0.00    +0.000 A 
ATOM     18  C   UNL     1       2.954   3.453  16.589  0.00  0.00    +0.000 C 
ATOM     19  C   UNL     1       4.702   5.254  17.083  0.00  0.00    +0.000 A 
ATOM     20  C   UNL     1       5.931   5.874  16.774  0.00  0.00    +0.000 A 
ATOM     21  C   UNL     1       6.531   6.988  17.590  0.00  0.00    +0.000 C 
ATOM     22  C   UNL     1       6.639   5.464  15.630  0.00  0.00    +0.000 A 
ENDBRANCH   1  19
TORSDOF 1
ENDMDL
MODEL 2
REMARK VINA RESULT:      -7.0      2.920      6.780
REMARK  Name = 
REMARK  4 active torsions:
REMARK  status: ('A' for Active; 'I' for Inactive)
REMARK    1  A    between atoms: C_1  and  C_2
REMARK    2  A    between atoms: C_4  and  C_5
REMARK    3  A    between atoms: C_6  and  C_7
REMARK    4  A    between atoms: C_20  and  C_21
REMARK                            x       y       z     vdW  Elec       q    Type
REMARK                         _______ _______ _______ _____ _____    ______ ____
ROOT
ATOM      1  C   UNL     1       4.797   4.162  17.690  0.00  0.00    +0.000 A 
ATOM      2  O   UNL     1       4.456   3.717  16.421  0.00  0.00    +0.000 OA
ATOM      3  C   UNL     1       5.286   4.027  15.375  0.00  0.00    +0.000 A 
ATOM      4  C   UNL     1       4.907   3.588  14.106  0.00  0.00    +0.000 A 
ATOM      5  C   UNL     1       5.691   3.915  12.994  0.00  0.00    +0.000 A 
ATOM      6  C   UNL     1       6.852   4.671  13.160  0.00  0.00    +0.000 A 
ATOM      7 CL   UNL     1       7.797   5.094  11.787  0.00  0.00    +0.000 Cl
ATOM      8  C   UNL     1       7.247   5.091  14.427  0.00  0.00    +0.000 A 
ATOM      9  C   UNL     1       6.455   4.764  15.535  0.00  0.00    +0.000 A 
ATOM     10  C   UNL     1       6.844   5.200  16.886  0.00  0.00    +0.000 A 
ATOM     11  O   UNL     1       7.879   5.836  17.055  0.00  0.00    +0.000 OA
ATOM     12  C   UNL     1       5.918   4.842  17.987  0.00  0.00    +0.000 A 
ATOM     13 CL   UNL     1       6.352   5.346  19.577  0.00  0.00    +0.000 Cl
ENDROOT
BRANCH   1  19
ATOM     14  C   UNL     1       1.023   2.820  21.882  0.00  0.00    +0.000 C 
ATOM     15  C   UNL     1       1.944   3.145  20.744  0.00  0.00    +0.000 A 
ATOM     16  C   UNL     1       2.687   2.148  20.107  0.00  0.00    +0.000 A 
ATOM     17  C   UNL     1       3.599   2.465  19.087  0.00  0.00    +0.000 A 
ATOM     18  C   UNL     1       4.368   1.344  18.435  0.00  0.00    +0.000 C 
ATOM     19  C   UNL     1       3.770   3.817  18.696  0.00  0.00    +0.000 A 
ATOM     20  C   UNL     1       2.985   4.822  19.300  0.00  0.00    +0.000 A 
ATOM     21  C   UNL     1       3.069   6.279  18.932  0.00  0.00    +0.000 C 
ATOM     22  C   UNL     1       2.089   4.470  20.326  0.00  0.00    +0.000 A 
ENDBRANCH   1  19
TORSDOF 1
ENDMDL
MODEL 3
REMARK VINA RESULT:      -6.7      2.945      6.891
REMARK  Name = 
REMARK  4 active torsions:
REMARK  status: ('A' for Active; 'I' for Inactive)
REMARK    1  A    between atoms: C_1  and  C_2
REMARK    2  A    between atoms: C_4  and  C_5
REMARK    3  A    between atoms: C_6  and  C_7
REMARK    4  A    between atoms: C_20  and  C_21
REMARK                            x       y       z     vdW  Elec       q    Type
REMARK                         _______ _______ _______ _____ _____    ______ ____
ROOT
ATOM      1  C   UNL     1       4.978   4.217  17.937  0.00  0.00    +0.000 A 
ATOM      2  O   UNL     1       4.573   3.711  16.710  0.00  0.00    +0.000 OA
ATOM      3  C   UNL     1       5.335   3.988  15.605  0.00  0.00    +0.000 A 
ATOM      4  C   UNL     1       4.892   3.487  14.381  0.00  0.00    +0.000 A 
ATOM      5  C   UNL     1       5.604   3.777  13.212  0.00  0.00    +0.000 A 
ATOM      6  C   UNL     1       6.758   4.558  13.277  0.00  0.00    +0.000 A 
ATOM      7 CL   UNL     1       7.614   4.936  11.833  0.00  0.00    +0.000 Cl
ATOM      8  C   UNL     1       7.218   5.041  14.499  0.00  0.00    +0.000 A 
ATOM      9  C   UNL     1       6.497   4.750  15.664  0.00  0.00    +0.000 A 
ATOM     10  C   UNL     1       6.955   5.252  16.970  0.00  0.00    +0.000 A 
ATOM     11  O   UNL     1       7.987   5.912  17.051  0.00  0.00    +0.000 OA
ATOM     12  C   UNL     1       6.102   4.928  18.138  0.00  0.00    +0.000 A 
ATOM     13 CL   UNL     1       6.617   5.508  19.677  0.00  0.00    +0.000 Cl
ENDROOT
BRANCH   1  19
ATOM     14  C   UNL     1       0.973   2.893  21.914  0.00  0.00    +0.000 C 
ATOM     15  C   UNL     1       2.052   3.270  20.944  0.00  0.00    +0.000 A 
ATOM     16  C   UNL     1       2.111   4.551  20.390  0.00  0.00    +0.000 A 
ATOM     17  C   UNL     1       3.082   4.880  19.429  0.00  0.00    +0.000 A 
ATOM     18  C   UNL     1       3.097   6.282  18.873  0.00  0.00    +0.000 C 
ATOM     19  C   UNL     1       4.018   3.900  19.015  0.00  0.00    +0.000 A 
ATOM     20  C   UNL     1       3.994   2.619  19.608  0.00  0.00    +0.000 A 
ATOM     21  C   UNL     1       4.964   1.521  19.260  0.00  0.00    +0.000 C 
ATOM     22  C   UNL     1       3.002   2.321  20.559  0.00  0.00    +0.000 A 
ENDBRANCH   1  19
TORSDOF 1
ENDMDL
MODEL 4
REMARK VINA RESULT:      -6.6      4.514      7.080
REMARK  Name = 
REMARK  4 active torsions:
REMARK  status: ('A' for Active; 'I' for Inactive)
REMARK    1  A    between atoms: C_1  and  C_2
REMARK    2  A    between atoms: C_4  and  C_5
REMARK    3  A    between atoms: C_6  and  C_7
REMARK    4  A    between atoms: C_20  and  C_21
REMARK                            x       y       z     vdW  Elec       q    Type
REMARK                         _______ _______ _______ _____ _____    ______ ____
ROOT
ATOM      1  C   UNL     1       0.648  10.548  19.584  0.00  0.00    +0.000 A 
ATOM      2  O   UNL     1       1.527  11.515  20.050  0.00  0.00    +0.000 OA
ATOM      3  C   UNL     1       1.262  12.830  19.768  0.00  0.00    +0.000 A 
ATOM      4  C   UNL     1       2.176  13.779  20.228  0.00  0.00    +0.000 A 
ATOM      5  C   UNL     1       1.982  15.132  19.931  0.00  0.00    +0.000 A 
ATOM      6  C   UNL     1       0.871  15.528  19.184  0.00  0.00    +0.000 A 
ATOM      7 CL   UNL     1       0.653  17.189  18.796  0.00  0.00    +0.000 Cl
ATOM      8  C   UNL     1      -0.056  14.587  18.743  0.00  0.00    +0.000 A 
ATOM      9  C   UNL     1       0.148  13.234  19.041  0.00  0.00    +0.000 A 
ATOM     10  C   UNL     1      -0.812  12.217  18.582  0.00  0.00    +0.000 A 
ATOM     11  O   UNL     1      -1.811  12.549  17.952  0.00  0.00    +0.000 OA
ATOM     12  C   UNL     1      -0.486  10.808  18.909  0.00  0.00    +0.000 A 
ATOM     13 CL   UNL     1      -1.595   9.598  18.378  0.00  0.00    +0.000 Cl
ENDROOT
BRANCH   1  19
ATOM     14  C   UNL     1       2.137   5.056  20.694  0.00  0.00    +0.000 C 
ATOM     15  C   UNL     1       1.814   6.500  20.453  0.00  0.00    +0.000 A 
ATOM     16  C   UNL     1       1.084   7.244  21.383  0.00  0.00    +0.000 A 
ATOM     17  C   UNL     1       0.724   8.577  21.123  0.00  0.00    +0.000 A 
ATOM     18  C   UNL     1      -0.060   9.328  22.169  0.00  0.00    +0.000 C 
ATOM     19  C   UNL     1       1.106   9.179  19.898  0.00  0.00    +0.000 A 
ATOM     20  C   UNL     1       1.887   8.449  18.976  0.00  0.00    +0.000 A 
ATOM     21  C   UNL     1       2.370   9.010  17.665  0.00  0.00    +0.000 C 
ATOM     22  C   UNL     1       2.221   7.114  19.265  0.00  0.00    +0.000 A 
ENDBRANCH   1  19
TORSDOF 1
ENDMDL
MODEL 5
REMARK VINA RESULT:      -6.5      4.529      7.130
REMARK  Name = 
REMARK  4 active torsions:
REMARK  status: ('A' for Active; 'I' for Inactive)
REMARK    1  A    between atoms: C_1  and  C_2
REMARK    2  A    between atoms: C_4  and  C_5
REMARK    3  A    between atoms: C_6  and  C_7
REMARK    4  A    between atoms: C_20  and  C_21
REMARK                            x       y       z     vdW  Elec       q    Type
REMARK                         _______ _______ _______ _____ _____    ______ ____
ROOT
ATOM      1  C   UNL     1       0.852  10.608  19.644  0.00  0.00    +0.000 A 
ATOM      2  O   UNL     1       1.748  11.438  20.303  0.00  0.00    +0.000 OA
ATOM      3  C   UNL     1       1.661  12.790  20.095  0.00  0.00    +0.000 A 
ATOM      4  C   UNL     1       2.589  13.598  20.752  0.00  0.00    +0.000 A 
ATOM      5  C   UNL     1       2.579  14.981  20.542  0.00  0.00    +0.000 A 
ATOM      6  C   UNL     1       1.635  15.547  19.684  0.00  0.00    +0.000 A 
ATOM      7 CL   UNL     1       1.644  17.244  19.406  0.00  0.00    +0.000 Cl
ATOM      8  C   UNL     1       0.691  14.747  19.045  0.00  0.00    +0.000 A 
ATOM      9  C   UNL     1       0.711  13.363  19.257  0.00  0.00    +0.000 A 
ATOM     10  C   UNL     1      -0.270  12.492  18.589  0.00  0.00    +0.000 A 
ATOM     11  O   UNL     1      -1.128  12.975  17.858  0.00  0.00    +0.000 OA
ATOM     12  C   UNL     1      -0.140  11.037  18.843  0.00  0.00    +0.000 A 
ATOM     13 CL   UNL     1      -1.276   9.997  18.069  0.00  0.00    +0.000 Cl
ENDROOT
BRANCH   1  19
ATOM     14  C   UNL     1       2.211   5.096  20.817  0.00  0.00    +0.000 C 
ATOM     15  C   UNL     1       1.800   6.494  20.466  0.00  0.00    +0.000 A 
ATOM     16  C   UNL     1       2.225   7.097  19.279  0.00  0.00    +0.000 A 
ATOM     17  C   UNL     1       1.895   8.431  18.986  0.00  0.00    +0.000 A 
ATOM     18  C   UNL     1       2.380   9.023  17.687  0.00  0.00    +0.000 C 
ATOM     19  C   UNL     1       1.119   9.179  19.906  0.00  0.00    +0.000 A 
ATOM     20  C   UNL     1       0.645   8.560  21.083  0.00  0.00    +0.000 A 
ATOM     21  C   UNL     1      -0.212   9.258  22.105  0.00  0.00    +0.000 C 
ATOM     22  C   UNL     1       1.003   7.226  21.350  0.00  0.00    +0.000 A 
ENDBRANCH   1  19
TORSDOF 1
ENDMDL
MODEL 6
REMARK VINA RESULT:      -6.5      0.236      1.873
REMARK  Name = 
REMARK  4 active torsions:
REMARK  status: ('A' for Active; 'I' for Inactive)
REMARK    1  A    between atoms: C_1  and  C_2
REMARK    2  A    between atoms: C_4  and  C_5
REMARK    3  A    between atoms: C_6  and  C_7
REMARK    4  A    between atoms: C_20  and  C_21
REMARK                            x       y       z     vdW  Elec       q    Type
REMARK                         _______ _______ _______ _____ _____    ______ ____
ROOT
ATOM      1  C   UNL     1       3.759   5.811  18.234  0.00  0.00    +0.000 A 
ATOM      2  O   UNL     1       3.183   7.064  18.077  0.00  0.00    +0.000 OA
ATOM      3  C   UNL     1       2.368   7.538  19.073  0.00  0.00    +0.000 A 
ATOM      4  C   UNL     1       1.783   8.789  18.878  0.00  0.00    +0.000 A 
ATOM      5  C   UNL     1       0.907   9.304  19.839  0.00  0.00    +0.000 A 
ATOM      6  C   UNL     1       0.629   8.568  20.992  0.00  0.00    +0.000 A 
ATOM      7 CL   UNL     1      -0.472   9.192  22.156  0.00  0.00    +0.000 Cl
ATOM      8  C   UNL     1       1.229   7.329  21.202  0.00  0.00    +0.000 A 
ATOM      9  C   UNL     1       2.102   6.819  20.233  0.00  0.00    +0.000 A 
ATOM     10  C   UNL     1       2.746   5.509  20.424  0.00  0.00    +0.000 A 
ATOM     11  O   UNL     1       2.539   4.863  21.447  0.00  0.00    +0.000 OA
ATOM     12  C   UNL     1       3.618   5.036  19.323  0.00  0.00    +0.000 A 
ATOM     13 CL   UNL     1       4.380   3.503  19.525  0.00  0.00    +0.000 Cl
ENDROOT
BRANCH   1  19
ATOM     14  C   UNL     1       7.042   4.029  13.800  0.00  0.00    +0.000 C 
ATOM     15  C   UNL     1       6.163   4.546  14.898  0.00  0.00    +0.000 A 
ATOM     16  C   UNL     1       6.529   5.663  15.654  0.00  0.00    +0.000 A 
ATOM     17  C   UNL     1       5.735   6.103  16.727  0.00  0.00    +0.000 A 
ATOM     18  C   UNL     1       6.182   7.318  17.501  0.00  0.00    +0.000 C 
ATOM     19  C   UNL     1       4.544   5.407  17.049  0.00  0.00    +0.000 A 
ATOM     20  C   UNL     1       4.143   4.309  16.258  0.00  0.00    +0.000 A 
ATOM     21  C   UNL     1       2.880   3.525  16.498  0.00  0.00    +0.000 C 
ATOM     22  C   UNL     1       4.966   3.888  15.198  0.00  0.00    +0.000 A 
ENDBRANCH   1  19
TORSDOF 1
ENDMDL
MODEL 7
REMARK VINA RESULT:      -6.5      3.804      8.168
REMARK  Name = 
REMARK  4 active torsions:
REMARK  status: ('A' for Active; 'I' for Inactive)
REMARK    1  A    between atoms: C_1  and  C_2
REMARK    2  A    between atoms: C_4  and  C_5
REMARK    3  A    between atoms: C_6  and  C_7
REMARK    4  A    between atoms: C_20  and  C_21
REMARK                            x       y       z     vdW  Elec       q    Type
REMARK                         _______ _______ _______ _____ _____    ______ ____
ROOT
ATOM      1  C   UNL     1       0.750  11.391  19.959  0.00  0.00    +0.000 A 
ATOM      2  O   UNL     1       1.359  10.605  18.991  0.00  0.00    +0.000 OA
ATOM      3  C   UNL     1       1.594   9.284  19.275  0.00  0.00    +0.000 A 
ATOM      4  C   UNL     1       2.230   8.523  18.293  0.00  0.00    +0.000 A 
ATOM      5  C   UNL     1       2.537   7.182  18.544  0.00  0.00    +0.000 A 
ATOM      6  C   UNL     1       2.200   6.609  19.771  0.00  0.00    +0.000 A 
ATOM      7 CL   UNL     1       2.606   4.968  20.086  0.00  0.00    +0.000 Cl
ATOM      8  C   UNL     1       1.545   7.358  20.745  0.00  0.00    +0.000 A 
ATOM      9  C   UNL     1       1.244   8.701  20.488  0.00  0.00    +0.000 A 
ATOM     10  C   UNL     1       0.558   9.520  21.501  0.00  0.00    +0.000 A 
ATOM     11  O   UNL     1       0.223   9.024  22.572  0.00  0.00    +0.000 OA
ATOM     12  C   UNL     1       0.323  10.941  21.152  0.00  0.00    +0.000 A 
ATOM     13 CL   UNL     1      -0.476  11.920  22.325  0.00  0.00    +0.000 Cl
ENDROOT
BRANCH   1  19
ATOM     14  C   UNL     1       0.082  16.984  18.586  0.00  0.00    +0.000 C 
ATOM     15  C   UNL     1       0.286  15.526  18.868  0.00  0.00    +0.000 A 
ATOM     16  C   UNL     1      -0.628  14.568  18.424  0.00  0.00    +0.000 A 
ATOM     17  C   UNL     1      -0.469  13.210  18.748  0.00  0.00    +0.000 A 
ATOM     18  C   UNL     1      -1.488  12.224  18.234  0.00  0.00    +0.000 C 
ATOM     19  C   UNL     1       0.635  12.803  19.538  0.00  0.00    +0.000 A 
ATOM     20  C   UNL     1       1.589  13.759  19.948  0.00  0.00    +0.000 A 
ATOM     21  C   UNL     1       2.811  13.422  20.760  0.00  0.00    +0.000 C 
ATOM     22  C   UNL     1       1.393  15.111  19.614  0.00  0.00    +0.000 A 
ENDBRANCH   1  19
TORSDOF 1
ENDMDL
MODEL 8
REMARK VINA RESULT:      -6.4      7.132     10.403
REMARK  Name = 
REMARK  4 active torsions:
REMARK  status: ('A' for Active; 'I' for Inactive)
REMARK    1  A    between atoms: C_1  and  C_2
REMARK    2  A    between atoms: C_4  and  C_5
REMARK    3  A    between atoms: C_6  and  C_7
REMARK    4  A    between atoms: C_20  and  C_21
REMARK                            x       y       z     vdW  Elec       q    Type
REMARK                         _______ _______ _______ _____ _____    ______ ____
ROOT
ATOM      1  C   UNL     1      -1.352  12.397  20.292  0.00  0.00    +0.000 A 
ATOM      2  O   UNL     1      -2.595  12.466  19.678  0.00  0.00    +0.000 OA
ATOM      3  C   UNL     1      -2.801  11.734  18.537  0.00  0.00    +0.000 A 
ATOM      4  C   UNL     1      -4.051  11.840  17.928  0.00  0.00    +0.000 A 
ATOM      5  C   UNL     1      -4.304  11.152  16.736  0.00  0.00    +0.000 A 
ATOM      6  C   UNL     1      -3.308  10.357  16.167  0.00  0.00    +0.000 A 
ATOM      7 CL   UNL     1      -3.614   9.537  14.687  0.00  0.00    +0.000 Cl
ATOM      8  C   UNL     1      -2.067  10.229  16.784  0.00  0.00    +0.000 A 
ATOM      9  C   UNL     1      -1.820  10.924  17.975  0.00  0.00    +0.000 A 
ATOM     10  C   UNL     1      -0.515  10.814  18.647  0.00  0.00    +0.000 A 
ATOM     11  O   UNL     1       0.362  10.093  18.179  0.00  0.00    +0.000 OA
ATOM     12  C   UNL     1      -0.336  11.621  19.877  0.00  0.00    +0.000 A 
ATOM     13 CL   UNL     1       1.187  11.510  20.679  0.00  0.00    +0.000 Cl
ENDROOT
BRANCH   1  19
ATOM     14  C   UNL     1      -1.323  16.016  24.822  0.00  0.00    +0.000 C 
ATOM     15  C   UNL     1      -1.250  15.078  23.655  0.00  0.00    +0.000 A 
ATOM     16  C   UNL     1      -0.974  15.544  22.367  0.00  0.00    +0.000 A 
ATOM     17  C   UNL     1      -0.975  14.672  21.266  0.00  0.00    +0.000 A 
ATOM     18  C   UNL     1      -0.664  15.235  19.902  0.00  0.00    +0.000 C 
ATOM     19  C   UNL     1      -1.259  13.297  21.461  0.00  0.00    +0.000 A 
ATOM     20  C   UNL     1      -1.489  12.811  22.766  0.00  0.00    +0.000 A 
ATOM     21  C   UNL     1      -1.766  11.366  23.081  0.00  0.00    +0.000 C 
ATOM     22  C   UNL     1      -1.491  13.714  23.844  0.00  0.00    +0.000 A 
ENDBRANCH   1  19
TORSDOF 1
ENDMDL
MODEL 9
REMARK VINA RESULT:      -6.4      3.761      8.318
REMARK  Name = 
REMARK  4 active torsions:
REMARK  status: ('A' for Active; 'I' for Inactive)
REMARK    1  A    between atoms: C_1  and  C_2
REMARK    2  A    between atoms: C_4  and  C_5
REMARK    3  A    between atoms: C_6  and  C_7
REMARK    4  A    between atoms: C_20  and  C_21
REMARK                            x       y       z     vdW  Elec       q    Type
REMARK                         _______ _______ _______ _____ _____    ______ ____
ROOT
ATOM      1  C   UNL     1       0.784  11.349  19.892  0.00  0.00    +0.000 A 
ATOM      2  O   UNL     1       1.402  10.675  18.848  0.00  0.00    +0.000 OA
ATOM      3  C   UNL     1       1.716   9.352  19.019  0.00  0.00    +0.000 A 
ATOM      4  C   UNL     1       2.358   8.705  17.963  0.00  0.00    +0.000 A 
ATOM      5  C   UNL     1       2.744   7.368  18.098  0.00  0.00    +0.000 A 
ATOM      6  C   UNL     1       2.478   6.684  19.286  0.00  0.00    +0.000 A 
ATOM      7 CL   UNL     1       2.981   5.048  19.458  0.00  0.00    +0.000 Cl
ATOM      8  C   UNL     1       1.817   7.317  20.334  0.00  0.00    +0.000 A 
ATOM      9  C   UNL     1       1.437   8.658  20.192  0.00  0.00    +0.000 A 
ATOM     10  C   UNL     1       0.742   9.356  21.286  0.00  0.00    +0.000 A 
ATOM     11  O   UNL     1       0.470   8.762  22.324  0.00  0.00    +0.000 OA
ATOM     12  C   UNL     1       0.421  10.785  21.057  0.00  0.00    +0.000 A 
ATOM     13 CL   UNL     1      -0.390  11.624  22.327  0.00  0.00    +0.000 Cl
ENDROOT
BRANCH   1  19
ATOM     14  C   UNL     1       0.187  16.922  18.409  0.00  0.00    +0.000 C 
ATOM     15  C   UNL     1       0.312  15.499  18.865  0.00  0.00    +0.000 A 
ATOM     16  C   UNL     1       1.402  15.077  19.629  0.00  0.00    +0.000 A 
ATOM     17  C   UNL     1       1.550  13.729  19.996  0.00  0.00    +0.000 A 
ATOM     18  C   UNL     1       2.747  13.337  20.826  0.00  0.00    +0.000 C 
ATOM     19  C   UNL     1       0.580  12.781  19.587  0.00  0.00    +0.000 A 
ATOM     20  C   UNL     1      -0.550  13.210  18.858  0.00  0.00    +0.000 A 
ATOM     21  C   UNL     1      -1.650  12.287  18.405  0.00  0.00    +0.000 C 
ATOM     22  C   UNL     1      -0.661  14.565  18.498  0.00  0.00    +0.000 A 
ENDBRANCH   1  19
TORSDOF 1
ENDMDL
