MODEL 1
REMARK VINA RESULT:      -9.2      0.000      0.000
REMARK  Name = 
REMARK  4 active torsions:
REMARK  status: ('A' for Active; 'I' for Inactive)
REMARK    1  A    between atoms: C_1  and  C_2
REMARK    2  A    between atoms: C_2  and  C_3
REMARK    3  A    between atoms: N_20  and  C_21
REMARK    4  A    between atoms: C_21  and  C_22
REMARK                            x       y       z     vdW  Elec       q    Type
REMARK                         _______ _______ _______ _____ _____    ______ ____
ROOT
ATOM      1  C   UNL     1       4.091   6.925  16.698  0.00  0.00    +0.000 C 
ATOM      2  C   UNL     1       5.145   5.817  16.799  0.00  0.00    +0.000 C 
ATOM      3  C   UNL     1       6.346   6.302  17.590  0.00  0.00    +0.000 A 
ATOM      4  C   UNL     1       7.148   7.421  17.415  0.00  0.00    +0.000 A 
ATOM      5  C   UNL     1       8.186   7.644  18.328  0.00  0.00    +0.000 A 
ATOM      6  C   UNL     1       8.420   6.755  19.393  0.00  0.00    +0.000 A 
ATOM      7  C   UNL     1       7.621   5.626  19.561  0.00  0.00    +0.000 A 
ATOM      8  C   UNL     1       6.599   5.431  18.650  0.00  0.00    +0.000 A 
ATOM      9  C   UNL     1       5.594   4.368  18.631  0.00  0.00    +0.000 C 
ATOM     10  O   UNL     1       5.570   3.441  19.416  0.00  0.00    +0.000 OA
ATOM     11  N   UNL     1       4.717   4.662  17.607  0.00  0.00    +0.000 N 
ENDROOT
BRANCH   2  12
ATOM     12  C   UNL     1       5.518   5.291  15.426  0.00  0.00    +0.000 A 
ATOM     13  N   UNL     1       4.829   4.420  14.709  0.00  0.00    +0.000 NA
ATOM     14  C   UNL     1       5.613   4.120  13.625  0.00  0.00    +0.000 A 
ATOM     15  C   UNL     1       5.427   3.159  12.624  0.00  0.00    +0.000 A 
ATOM     16  C   UNL     1       6.407   3.030  11.632  0.00  0.00    +0.000 A 
ATOM     17  C   UNL     1       7.505   3.894  11.594  0.00  0.00    +0.000 A 
ATOM     18  C   UNL     1       7.703   4.865  12.583  0.00  0.00    +0.000 A 
ATOM     19  C   UNL     1       6.759   4.904  13.611  0.00  0.00    +0.000 A 
ATOM     20  N   UNL     1       6.717   5.574  14.806  0.00  0.00    +0.000 N 
ATOM     21  H   UNL     1       7.479   6.102  15.209  0.00  0.00    +0.000 HD
ENDBRANCH   2  12
BRANCH  11  22
ATOM     22  C   UNL     1       3.470   3.939  17.392  0.00  0.00    +0.000 C 
BRANCH  22  23
ATOM     23  C   UNL     1       2.641   3.826  18.656  0.00  0.00    +0.000 A 
ATOM     24  C   UNL     1       2.234   4.971  19.349  0.00  0.00    +0.000 A 
ATOM     25  C   UNL     1       1.498   4.862  20.534  0.00  0.00    +0.000 A 
ATOM     26  C   UNL     1       1.149   3.612  21.030  0.00  0.00    +0.000 A 
ATOM     27  C   UNL     1       1.521   2.467  20.331  0.00  0.00    +0.000 A 
ATOM     28  C   UNL     1       2.244   2.569  19.147  0.00  0.00    +0.000 A 
ENDBRANCH  22  23
ENDBRANCH  11  22
TORSDOF 3
ENDMDL
MODEL 2
REMARK VINA RESULT:      -9.0      0.193      1.135
REMARK  Name = 
REMARK  4 active torsions:
REMARK  status: ('A' for Active; 'I' for Inactive)
REMARK    1  A    between atoms: C_1  and  C_2
REMARK    2  A    between atoms: C_2  and  C_3
REMARK    3  A    between atoms: N_20  and  C_21
REMARK    4  A    between atoms: C_21  and  C_22
REMARK                            x       y       z     vdW  Elec       q    Type
REMARK                         _______ _______ _______ _____ _____    ______ ____
ROOT
ATOM      1  C   UNL     1       4.285   6.831  16.533  0.00  0.00    +0.000 C 
ATOM      2  C   UNL     1       5.320   5.724  16.763  0.00  0.00    +0.000 C 
ATOM      3  C   UNL     1       6.468   6.244  17.609  0.00  0.00    +0.000 A 
ATOM      4  C   UNL     1       7.289   7.348  17.432  0.00  0.00    +0.000 A 
ATOM      5  C   UNL     1       8.264   7.613  18.400  0.00  0.00    +0.000 A 
ATOM      6  C   UNL     1       8.418   6.779  19.524  0.00  0.00    +0.000 A 
ATOM      7  C   UNL     1       7.599   5.665  19.695  0.00  0.00    +0.000 A 
ATOM      8  C   UNL     1       6.641   5.428  18.727  0.00  0.00    +0.000 A 
ATOM      9  C   UNL     1       5.629   4.371  18.694  0.00  0.00    +0.000 C 
ATOM     10  O   UNL     1       5.544   3.486  19.523  0.00  0.00    +0.000 OA
ATOM     11  N   UNL     1       4.827   4.616  17.598  0.00  0.00    +0.000 N 
ENDROOT
BRANCH   2  12
ATOM     12  C   UNL     1       5.781   5.126  15.448  0.00  0.00    +0.000 A 
ATOM     13  N   UNL     1       6.896   5.421  14.802  0.00  0.00    +0.000 NA
ATOM     14  C   UNL     1       6.819   4.768  13.599  0.00  0.00    +0.000 A 
ATOM     15  C   UNL     1       7.664   4.842  12.486  0.00  0.00    +0.000 A 
ATOM     16  C   UNL     1       7.341   4.087  11.351  0.00  0.00    +0.000 A 
ATOM     17  C   UNL     1       6.246   3.219  11.358  0.00  0.00    +0.000 A 
ATOM     18  C   UNL     1       5.395   3.127  12.465  0.00  0.00    +0.000 A 
ATOM     19  C   UNL     1       5.689   3.964  13.543  0.00  0.00    +0.000 A 
ATOM     20  N   UNL     1       5.004   4.275  14.689  0.00  0.00    +0.000 N 
ATOM     21  H   UNL     1       4.051   4.007  14.893  0.00  0.00    +0.000 HD
ENDBRANCH   2  12
BRANCH  11  22
ATOM     22  C   UNL     1       3.592   3.888  17.336  0.00  0.00    +0.000 C 
BRANCH  22  23
ATOM     23  C   UNL     1       2.689   3.822  18.552  0.00  0.00    +0.000 A 
ATOM     24  C   UNL     1       2.300   4.989  19.219  0.00  0.00    +0.000 A 
ATOM     25  C   UNL     1       1.495   4.921  20.362  0.00  0.00    +0.000 A 
ATOM     26  C   UNL     1       1.060   3.692  20.841  0.00  0.00    +0.000 A 
ATOM     27  C   UNL     1       1.415   2.526  20.167  0.00  0.00    +0.000 A 
ATOM     28  C   UNL     1       2.207   2.588  19.024  0.00  0.00    +0.000 A 
ENDBRANCH  22  23
ENDBRANCH  11  22
TORSDOF 3
ENDMDL
MODEL 3
REMARK VINA RESULT:      -8.7      2.971      7.378
REMARK  Name = 
REMARK  4 active torsions:
REMARK  status: ('A' for Active; 'I' for Inactive)
REMARK    1  A    between atoms: C_1  and  C_2
REMARK    2  A    between atoms: C_2  and  C_3
REMARK    3  A    between atoms: N_20  and  C_21
REMARK    4  A    between atoms: C_21  and  C_22
REMARK                            x       y       z     vdW  Elec       q    Type
REMARK                         _______ _______ _______ _____ _____    ______ ____
ROOT
ATOM      1  C   UNL     1       1.640   5.402  17.474  0.00  0.00    +0.000 C 
ATOM      2  C   UNL     1       2.420   5.639  18.772  0.00  0.00    +0.000 C 
ATOM      3  C   UNL     1       2.232   4.470  19.721  0.00  0.00    +0.000 A 
ATOM      4  C   UNL     1       1.073   3.881  20.207  0.00  0.00    +0.000 A 
ATOM      5  C   UNL     1       1.196   2.777  21.059  0.00  0.00    +0.000 A 
ATOM      6  C   UNL     1       2.461   2.277  21.423  0.00  0.00    +0.000 A 
ATOM      7  C   UNL     1       3.623   2.875  20.942  0.00  0.00    +0.000 A 
ATOM      8  C   UNL     1       3.475   3.961  20.099  0.00  0.00    +0.000 A 
ATOM      9  C   UNL     1       4.520   4.729  19.419  0.00  0.00    +0.000 C 
ATOM     10  O   UNL     1       5.710   4.540  19.572  0.00  0.00    +0.000 OA
ATOM     11  N   UNL     1       3.882   5.633  18.594  0.00  0.00    +0.000 N 
ENDROOT
BRANCH   2  12
ATOM     12  C   UNL     1       2.048   6.971  19.396  0.00  0.00    +0.000 A 
ATOM     13  N   UNL     1       1.809   7.194  20.677  0.00  0.00    +0.000 NA
ATOM     14  C   UNL     1       1.360   8.486  20.757  0.00  0.00    +0.000 A 
ATOM     15  C   UNL     1       0.840   9.188  21.851  0.00  0.00    +0.000 A 
ATOM     16  C   UNL     1       0.415  10.508  21.658  0.00  0.00    +0.000 A 
ATOM     17  C   UNL     1       0.581  11.139  20.421  0.00  0.00    +0.000 A 
ATOM     18  C   UNL     1       1.105  10.455  19.319  0.00  0.00    +0.000 A 
ATOM     19  C   UNL     1       1.428   9.112  19.519  0.00  0.00    +0.000 A 
ATOM     20  N   UNL     1       1.785   8.106  18.659  0.00  0.00    +0.000 N 
ATOM     21  H   UNL     1       1.759   8.160  17.650  0.00  0.00    +0.000 HD
ENDBRANCH   2  12
BRANCH  11  22
ATOM     22  C   UNL     1       4.584   6.449  17.612  0.00  0.00    +0.000 C 
BRANCH  22  23
ATOM     23  C   UNL     1       5.321   5.612  16.585  0.00  0.00    +0.000 A 
ATOM     24  C   UNL     1       6.701   5.756  16.401  0.00  0.00    +0.000 A 
ATOM     25  C   UNL     1       7.372   5.007  15.429  0.00  0.00    +0.000 A 
ATOM     26  C   UNL     1       6.677   4.098  14.641  0.00  0.00    +0.000 A 
ATOM     27  C   UNL     1       5.309   3.922  14.837  0.00  0.00    +0.000 A 
ATOM     28  C   UNL     1       4.638   4.658  15.809  0.00  0.00    +0.000 A 
ENDBRANCH  22  23
ENDBRANCH  11  22
TORSDOF 3
ENDMDL
MODEL 4
REMARK VINA RESULT:      -8.3      1.658      6.391
REMARK  Name = 
REMARK  4 active torsions:
REMARK  status: ('A' for Active; 'I' for Inactive)
REMARK    1  A    between atoms: C_1  and  C_2
REMARK    2  A    between atoms: C_2  and  C_3
REMARK    3  A    between atoms: N_20  and  C_21
REMARK    4  A    between atoms: C_21  and  C_22
REMARK                            x       y       z     vdW  Elec       q    Type
REMARK                         _______ _______ _______ _____ _____    ______ ____
ROOT
ATOM      1  C   UNL     1       7.423   3.921  17.335  0.00  0.00    +0.000 C 
ATOM      2  C   UNL     1       6.387   5.024  17.579  0.00  0.00    +0.000 C 
ATOM      3  C   UNL     1       7.079   6.330  17.924  0.00  0.00    +0.000 A 
ATOM      4  C   UNL     1       8.017   6.621  18.904  0.00  0.00    +0.000 A 
ATOM      5  C   UNL     1       8.517   7.926  18.977  0.00  0.00    +0.000 A 
ATOM      6  C   UNL     1       8.077   8.925  18.089  0.00  0.00    +0.000 A 
ATOM      7  C   UNL     1       7.127   8.633  17.112  0.00  0.00    +0.000 A 
ATOM      8  C   UNL     1       6.652   7.336  17.057  0.00  0.00    +0.000 A 
ATOM      9  C   UNL     1       5.702   6.759  16.104  0.00  0.00    +0.000 C 
ATOM     10  O   UNL     1       5.134   7.398  15.241  0.00  0.00    +0.000 OA
ATOM     11  N   UNL     1       5.633   5.407  16.373  0.00  0.00    +0.000 N 
ENDROOT
BRANCH   2  12
ATOM     12  C   UNL     1       5.374   4.599  18.626  0.00  0.00    +0.000 A 
ATOM     13  N   UNL     1       5.336   3.433  19.248  0.00  0.00    +0.000 NA
ATOM     14  C   UNL     1       4.174   3.433  19.976  0.00  0.00    +0.000 A 
ATOM     15  C   UNL     1       3.577   2.401  20.709  0.00  0.00    +0.000 A 
ATOM     16  C   UNL     1       2.355   2.652  21.344  0.00  0.00    +0.000 A 
ATOM     17  C   UNL     1       1.784   3.928  21.316  0.00  0.00    +0.000 A 
ATOM     18  C   UNL     1       2.370   4.973  20.594  0.00  0.00    +0.000 A 
ATOM     19  C   UNL     1       3.537   4.664  19.892  0.00  0.00    +0.000 A 
ATOM     20  N   UNL     1       4.271   5.354  18.963  0.00  0.00    +0.000 N 
ATOM     21  H   UNL     1       3.995   6.222  18.525  0.00  0.00    +0.000 HD
ENDBRANCH   2  12
BRANCH  11  22
ATOM     22  C   UNL     1       4.936   4.458  15.515  0.00  0.00    +0.000 C 
BRANCH  22  23
ATOM     23  C   UNL     1       5.648   4.240  14.194  0.00  0.00    +0.000 A 
ATOM     24  C   UNL     1       5.057   3.479  13.180  0.00  0.00    +0.000 A 
ATOM     25  C   UNL     1       5.731   3.251  11.976  0.00  0.00    +0.000 A 
ATOM     26  C   UNL     1       6.994   3.792  11.766  0.00  0.00    +0.000 A 
ATOM     27  C   UNL     1       7.578   4.578  12.756  0.00  0.00    +0.000 A 
ATOM     28  C   UNL     1       6.908   4.816  13.952  0.00  0.00    +0.000 A 
ENDBRANCH  22  23
ENDBRANCH  11  22
TORSDOF 3
ENDMDL
MODEL 5
REMARK VINA RESULT:      -8.3      2.263      4.404
REMARK  Name = 
REMARK  4 active torsions:
REMARK  status: ('A' for Active; 'I' for Inactive)
REMARK    1  A    between atoms: C_1  and  C_2
REMARK    2  A    between atoms: C_2  and  C_3
REMARK    3  A    between atoms: N_20  and  C_21
REMARK    4  A    between atoms: C_21  and  C_22
REMARK                            x       y       z     vdW  Elec       q    Type
REMARK                         _______ _______ _______ _____ _____    ______ ____
ROOT
ATOM      1  C   UNL     1       5.432   5.324  19.106  0.00  0.00    +0.000 C 
ATOM      2  C   UNL     1       4.538   4.820  17.967  0.00  0.00    +0.000 C 
ATOM      3  C   UNL     1       3.845   3.532  18.371  0.00  0.00    +0.000 A 
ATOM      4  C   UNL     1       4.369   2.340  18.851  0.00  0.00    +0.000 A 
ATOM      5  C   UNL     1       3.480   1.309  19.179  0.00  0.00    +0.000 A 
ATOM      6  C   UNL     1       2.091   1.469  19.021  0.00  0.00    +0.000 A 
ATOM      7  C   UNL     1       1.568   2.664  18.530  0.00  0.00    +0.000 A 
ATOM      8  C   UNL     1       2.466   3.668  18.218  0.00  0.00    +0.000 A 
ATOM      9  C   UNL     1       2.179   5.022  17.742  0.00  0.00    +0.000 C 
ATOM     10  O   UNL     1       1.064   5.430  17.486  0.00  0.00    +0.000 OA
ATOM     11  N   UNL     1       3.385   5.692  17.688  0.00  0.00    +0.000 N 
ENDROOT
BRANCH   2  12
ATOM     12  C   UNL     1       5.323   4.687  16.676  0.00  0.00    +0.000 A 
ATOM     13  N   UNL     1       6.474   5.276  16.395  0.00  0.00    +0.000 NA
ATOM     14  C   UNL     1       6.726   5.001  15.076  0.00  0.00    +0.000 A 
ATOM     15  C   UNL     1       7.735   5.488  14.238  0.00  0.00    +0.000 A 
ATOM     16  C   UNL     1       7.754   5.070  12.902  0.00  0.00    +0.000 A 
ATOM     17  C   UNL     1       6.834   4.125  12.435  0.00  0.00    +0.000 A 
ATOM     18  C   UNL     1       5.823   3.623  13.262  0.00  0.00    +0.000 A 
ATOM     19  C   UNL     1       5.773   4.133  14.560  0.00  0.00    +0.000 A 
ATOM     20  N   UNL     1       4.849   4.018  15.566  0.00  0.00    +0.000 N 
ATOM     21  H   UNL     1       3.933   3.602  15.476  0.00  0.00    +0.000 HD
ENDBRANCH   2  12
BRANCH  11  22
ATOM     22  C   UNL     1       3.490   7.124  17.440  0.00  0.00    +0.000 C 
BRANCH  22  23
ATOM     23  C   UNL     1       2.553   7.934  18.316  0.00  0.00    +0.000 A 
ATOM     24  C   UNL     1       1.887   9.054  17.806  0.00  0.00    +0.000 A 
ATOM     25  C   UNL     1       1.050   9.818  18.627  0.00  0.00    +0.000 A 
ATOM     26  C   UNL     1       0.860   9.466  19.957  0.00  0.00    +0.000 A 
ATOM     27  C   UNL     1       1.492   8.334  20.466  0.00  0.00    +0.000 A 
ATOM     28  C   UNL     1       2.318   7.564  19.652  0.00  0.00    +0.000 A 
ENDBRANCH  22  23
ENDBRANCH  11  22
TORSDOF 3
ENDMDL
MODEL 6
REMARK VINA RESULT:      -8.3      2.927      7.342
REMARK  Name = 
REMARK  4 active torsions:
REMARK  status: ('A' for Active; 'I' for Inactive)
REMARK    1  A    between atoms: C_1  and  C_2
REMARK    2  A    between atoms: C_2  and  C_3
REMARK    3  A    between atoms: N_20  and  C_21
REMARK    4  A    between atoms: C_21  and  C_22
REMARK                            x       y       z     vdW  Elec       q    Type
REMARK                         _______ _______ _______ _____ _____    ______ ____
ROOT
ATOM      1  C   UNL     1       1.669   5.170  17.376  0.00  0.00    +0.000 C 
ATOM      2  C   UNL     1       2.392   5.514  18.683  0.00  0.00    +0.000 C 
ATOM      3  C   UNL     1       2.263   4.372  19.674  0.00  0.00    +0.000 A 
ATOM      4  C   UNL     1       1.136   3.719  20.154  0.00  0.00    +0.000 A 
ATOM      5  C   UNL     1       1.314   2.661  21.053  0.00  0.00    +0.000 A 
ATOM      6  C   UNL     1       2.601   2.270  21.470  0.00  0.00    +0.000 A 
ATOM      7  C   UNL     1       3.730   2.933  20.995  0.00  0.00    +0.000 A 
ATOM      8  C   UNL     1       3.528   3.972  20.104  0.00  0.00    +0.000 A 
ATOM      9  C   UNL     1       4.533   4.788  19.422  0.00  0.00    +0.000 C 
ATOM     10  O   UNL     1       5.729   4.693  19.613  0.00  0.00    +0.000 OA
ATOM     11  N   UNL     1       3.855   5.609  18.544  0.00  0.00    +0.000 N 
ENDROOT
BRANCH   2  12
ATOM     12  C   UNL     1       1.906   6.838  19.243  0.00  0.00    +0.000 A 
ATOM     13  N   UNL     1       1.642   7.931  18.547  0.00  0.00    +0.000 NA
ATOM     14  C   UNL     1       1.393   8.913  19.470  0.00  0.00    +0.000 A 
ATOM     15  C   UNL     1       1.193  10.286  19.284  0.00  0.00    +0.000 A 
ATOM     16  C   UNL     1       0.987  11.090  20.412  0.00  0.00    +0.000 A 
ATOM     17  C   UNL     1       0.903  10.525  21.688  0.00  0.00    +0.000 A 
ATOM     18  C   UNL     1       1.094   9.154  21.891  0.00  0.00    +0.000 A 
ATOM     19  C   UNL     1       1.393   8.394  20.758  0.00  0.00    +0.000 A 
ATOM     20  N   UNL     1       1.805   7.098  20.594  0.00  0.00    +0.000 N 
ATOM     21  H   UNL     1       2.086   6.473  21.337  0.00  0.00    +0.000 HD
ENDBRANCH   2  12
BRANCH  11  22
ATOM     22  C   UNL     1       4.524   6.436  17.548  0.00  0.00    +0.000 C 
BRANCH  22  23
ATOM     23  C   UNL     1       5.299   5.612  16.538  0.00  0.00    +0.000 A 
ATOM     24  C   UNL     1       6.683   5.768  16.399  0.00  0.00    +0.000 A 
ATOM     25  C   UNL     1       7.389   5.031  15.442  0.00  0.00    +0.000 A 
ATOM     26  C   UNL     1       6.726   4.123  14.626  0.00  0.00    +0.000 A 
ATOM     27  C   UNL     1       5.354   3.937  14.778  0.00  0.00    +0.000 A 
ATOM     28  C   UNL     1       4.648   4.659  15.734  0.00  0.00    +0.000 A 
ENDBRANCH  22  23
ENDBRANCH  11  22
TORSDOF 3
ENDMDL
MODEL 7
REMARK VINA RESULT:      -8.1      1.107      1.892
REMARK  Name = 
REMARK  4 active torsions:
REMARK  status: ('A' for Active; 'I' for Inactive)
REMARK    1  A    between atoms: C_1  and  C_2
REMARK    2  A    between atoms: C_2  and  C_3
REMARK    3  A    between atoms: N_20  and  C_21
REMARK    4  A    between atoms: C_21  and  C_22
REMARK                            x       y       z     vdW  Elec       q    Type
REMARK                         _______ _______ _______ _____ _____    ______ ____
ROOT
ATOM      1  C   UNL     1       4.438   6.581  17.292  0.00  0.00    +0.000 C 
ATOM      2  C   UNL     1       5.892   6.098  17.248  0.00  0.00    +0.000 C 
ATOM      3  C   UNL     1       6.836   7.239  17.580  0.00  0.00    +0.000 A 
ATOM      4  C   UNL     1       6.955   8.503  17.019  0.00  0.00    +0.000 A 
ATOM      5  C   UNL     1       7.908   9.379  17.552  0.00  0.00    +0.000 A 
ATOM      6  C   UNL     1       8.734   8.991  18.624  0.00  0.00    +0.000 A 
ATOM      7  C   UNL     1       8.620   7.718  19.179  0.00  0.00    +0.000 A 
ATOM      8  C   UNL     1       7.668   6.873  18.638  0.00  0.00    +0.000 A 
ATOM      9  C   UNL     1       7.312   5.520  19.066  0.00  0.00    +0.000 C 
ATOM     10  O   UNL     1       7.882   4.915  19.952  0.00  0.00    +0.000 OA
ATOM     11  N   UNL     1       6.228   5.130  18.305  0.00  0.00    +0.000 N 
ENDROOT
BRANCH   2  12
ATOM     12  C   UNL     1       6.208   5.440  15.918  0.00  0.00    +0.000 A 
ATOM     13  N   UNL     1       7.282   5.652  15.176  0.00  0.00    +0.000 NA
ATOM     14  C   UNL     1       7.069   4.974  14.004  0.00  0.00    +0.000 A 
ATOM     15  C   UNL     1       7.822   4.968  12.824  0.00  0.00    +0.000 A 
ATOM     16  C   UNL     1       7.364   4.205  11.743  0.00  0.00    +0.000 A 
ATOM     17  C   UNL     1       6.226   3.403  11.865  0.00  0.00    +0.000 A 
ATOM     18  C   UNL     1       5.465   3.391  13.040  0.00  0.00    +0.000 A 
ATOM     19  C   UNL     1       5.894   4.236  14.064  0.00  0.00    +0.000 A 
ATOM     20  N   UNL     1       5.325   4.616  15.252  0.00  0.00    +0.000 N 
ATOM     21  H   UNL     1       4.378   4.411  15.541  0.00  0.00    +0.000 HD
ENDBRANCH   2  12
BRANCH  11  22
ATOM     22  C   UNL     1       5.466   3.916  18.567  0.00  0.00    +0.000 C 
BRANCH  22  23
ATOM     23  C   UNL     1       4.027   4.205  18.948  0.00  0.00    +0.000 A 
ATOM     24  C   UNL     1       3.728   4.954  20.092  0.00  0.00    +0.000 A 
ATOM     25  C   UNL     1       2.398   5.190  20.460  0.00  0.00    +0.000 A 
ATOM     26  C   UNL     1       1.358   4.694  19.684  0.00  0.00    +0.000 A 
ATOM     27  C   UNL     1       1.645   3.975  18.526  0.00  0.00    +0.000 A 
ATOM     28  C   UNL     1       2.964   3.746  18.150  0.00  0.00    +0.000 A 
ENDBRANCH  22  23
ENDBRANCH  11  22
TORSDOF 3
ENDMDL
MODEL 8
REMARK VINA RESULT:      -8.1      2.842      6.880
REMARK  Name = 
REMARK  4 active torsions:
REMARK  status: ('A' for Active; 'I' for Inactive)
REMARK    1  A    between atoms: C_1  and  C_2
REMARK    2  A    between atoms: C_2  and  C_3
REMARK    3  A    between atoms: N_20  and  C_21
REMARK    4  A    between atoms: C_21  and  C_22
REMARK                            x       y       z     vdW  Elec       q    Type
REMARK                         _______ _______ _______ _____ _____    ______ ____
ROOT
ATOM      1  C   UNL     1       1.528   4.284  17.282  0.00  0.00    +0.000 C 
ATOM      2  C   UNL     1       2.409   4.729  18.455  0.00  0.00    +0.000 C 
ATOM      3  C   UNL     1       2.128   3.876  19.678  0.00  0.00    +0.000 A 
ATOM      4  C   UNL     1       0.934   3.599  20.329  0.00  0.00    +0.000 A 
ATOM      5  C   UNL     1       0.963   2.740  21.434  0.00  0.00    +0.000 A 
ATOM      6  C   UNL     1       2.171   2.175  21.884  0.00  0.00    +0.000 A 
ATOM      7  C   UNL     1       3.370   2.462  21.236  0.00  0.00    +0.000 A 
ATOM      8  C   UNL     1       3.315   3.309  20.144  0.00  0.00    +0.000 A 
ATOM      9  C   UNL     1       4.408   3.724  19.264  0.00  0.00    +0.000 C 
ATOM     10  O   UNL     1       5.570   3.414  19.432  0.00  0.00    +0.000 OA
ATOM     11  N   UNL     1       3.845   4.472  18.249  0.00  0.00    +0.000 N 
ENDROOT
BRANCH   2  12
ATOM     12  C   UNL     1       2.252   6.214  18.723  0.00  0.00    +0.000 A 
ATOM     13  N   UNL     1       2.002   6.775  19.893  0.00  0.00    +0.000 NA
ATOM     14  C   UNL     1       1.785   8.104  19.635  0.00  0.00    +0.000 A 
ATOM     15  C   UNL     1       1.352   9.123  20.492  0.00  0.00    +0.000 A 
ATOM     16  C   UNL     1       1.176  10.408  19.965  0.00  0.00    +0.000 A 
ATOM     17  C   UNL     1       1.502  10.687  18.634  0.00  0.00    +0.000 A 
ATOM     18  C   UNL     1       1.943   9.682  17.766  0.00  0.00    +0.000 A 
ATOM     19  C   UNL     1       2.016   8.392  18.297  0.00  0.00    +0.000 A 
ATOM     20  N   UNL     1       2.225   7.165  17.724  0.00  0.00    +0.000 N 
ATOM     21  H   UNL     1       2.251   6.978  16.731  0.00  0.00    +0.000 HD
ENDBRANCH   2  12
BRANCH  11  22
ATOM     22  C   UNL     1       4.587   4.905  17.073  0.00  0.00    +0.000 C 
BRANCH  22  23
ATOM     23  C   UNL     1       5.750   5.813  17.423  0.00  0.00    +0.000 A 
ATOM     24  C   UNL     1       6.861   5.317  18.114  0.00  0.00    +0.000 A 
ATOM     25  C   UNL     1       7.916   6.166  18.466  0.00  0.00    +0.000 A 
ATOM     26  C   UNL     1       7.880   7.510  18.121  0.00  0.00    +0.000 A 
ATOM     27  C   UNL     1       6.794   8.008  17.405  0.00  0.00    +0.000 A 
ATOM     28  C   UNL     1       5.746   7.167  17.043  0.00  0.00    +0.000 A 
ENDBRANCH  22  23
ENDBRANCH  11  22
TORSDOF 3
ENDMDL
MODEL 9
REMARK VINA RESULT:      -7.9      1.673      6.414
REMARK  Name = 
REMARK  4 active torsions:
REMARK  status: ('A' for Active; 'I' for Inactive)
REMARK    1  A    between atoms: C_1  and  C_2
REMARK    2  A    between atoms: C_2  and  C_3
REMARK    3  A    between atoms: N_20  and  C_21
REMARK    4  A    between atoms: C_21  and  C_22
REMARK                            x       y       z     vdW  Elec       q    Type
REMARK                         _______ _______ _______ _____ _____    ______ ____
ROOT
ATOM      1  C   UNL     1       7.179   3.699  17.125  0.00  0.00    +0.000 C 
ATOM      2  C   UNL     1       6.196   4.841  17.406  0.00  0.00    +0.000 C 
ATOM      3  C   UNL     1       6.945   6.081  17.859  0.00  0.00    +0.000 A 
ATOM      4  C   UNL     1       7.861   6.255  18.887  0.00  0.00    +0.000 A 
ATOM      5  C   UNL     1       8.429   7.522  19.064  0.00  0.00    +0.000 A 
ATOM      6  C   UNL     1       8.077   8.599  18.228  0.00  0.00    +0.000 A 
ATOM      7  C   UNL     1       7.149   8.425  17.203  0.00  0.00    +0.000 A 
ATOM      8  C   UNL     1       6.606   7.163  17.047  0.00  0.00    +0.000 A 
ATOM      9  C   UNL     1       5.663   6.704  16.026  0.00  0.00    +0.000 C 
ATOM     10  O   UNL     1       5.163   7.427  15.188  0.00  0.00    +0.000 OA
ATOM     11  N   UNL     1       5.510   5.343  16.203  0.00  0.00    +0.000 N 
ENDROOT
BRANCH   2  12
ATOM     12  C   UNL     1       5.124   4.409  18.388  0.00  0.00    +0.000 A 
ATOM     13  N   UNL     1       4.096   5.135  18.793  0.00  0.00    +0.000 NA
ATOM     14  C   UNL     1       3.491   4.410  19.787  0.00  0.00    +0.000 A 
ATOM     15  C   UNL     1       2.445   4.767  20.646  0.00  0.00    +0.000 A 
ATOM     16  C   UNL     1       2.027   3.843  21.611  0.00  0.00    +0.000 A 
ATOM     17  C   UNL     1       2.586   2.562  21.663  0.00  0.00    +0.000 A 
ATOM     18  C   UNL     1       3.627   2.186  20.808  0.00  0.00    +0.000 A 
ATOM     19  C   UNL     1       4.086   3.163  19.923  0.00  0.00    +0.000 A 
ATOM     20  N   UNL     1       5.171   3.220  19.086  0.00  0.00    +0.000 N 
ATOM     21  H   UNL     1       5.929   2.552  19.062  0.00  0.00    +0.000 HD
ENDBRANCH   2  12
BRANCH  11  22
ATOM     22  C   UNL     1       4.795   4.492  15.262  0.00  0.00    +0.000 C 
BRANCH  22  23
ATOM     23  C   UNL     1       5.593   4.225  14.001  0.00  0.00    +0.000 A 
ATOM     24  C   UNL     1       6.862   4.787  13.825  0.00  0.00    +0.000 A 
ATOM     25  C   UNL     1       7.581   4.565  12.645  0.00  0.00    +0.000 A 
ATOM     26  C   UNL     1       7.048   3.772  11.637  0.00  0.00    +0.000 A 
ATOM     27  C   UNL     1       5.799   3.181  11.815  0.00  0.00    +0.000 A 
ATOM     28  C   UNL     1       5.083   3.390  12.990  0.00  0.00    +0.000 A 
ENDBRANCH  22  23
ENDBRANCH  11  22
TORSDOF 3
ENDMDL
