MODEL 1
REMARK VINA RESULT:      -6.9      0.000      0.000
REMARK  Name = 
REMARK  1 active torsions:
REMARK  status: ('A' for Active; 'I' for Inactive)
REMARK    1  A    between atoms: C_6  and  N_7
REMARK                            x       y       z     vdW  Elec       q    Type
REMARK                         _______ _______ _______ _____ _____    ______ ____
ROOT
ATOM      1  N   UNL     1       3.483   4.696  18.641  0.00  0.00    +0.000 N 
ATOM      2  C   UNL     1       3.092   5.582  19.737  0.00  0.00    +0.000 C 
ATOM      3  C   UNL     1       1.914   4.875  20.382  0.00  0.00    +0.000 C 
ATOM      4  C   UNL     1       2.308   3.767  21.347  0.00  0.00    +0.000 C 
ATOM      5  N   UNL     1       1.204   2.803  21.282  0.00  0.00    +0.000 NA
ATOM      6  C   UNL     1       0.576   2.947  19.956  0.00  0.00    +0.000 C 
ATOM      7  C   UNL     1       1.253   4.111  19.249  0.00  0.00    +0.000 C 
ATOM      8  C   UNL     1       2.430   3.717  18.340  0.00  0.00    +0.000 C 
ATOM      9  H   UNL     1       0.517   3.035  22.000  0.00  0.00    +0.000 HD
ENDROOT
BRANCH   1  15
ATOM     10 BR   UNL     1       6.612   4.420  14.382  0.00  0.00    +0.000 Br
ATOM     11  C   UNL     1       6.301   4.536  16.239  0.00  0.00    +0.000 A 
ATOM     12  C   UNL     1       7.357   4.569  17.129  0.00  0.00    +0.000 A 
ATOM     13  N   UNL     1       7.197   4.656  18.463  0.00  0.00    +0.000 NA
ATOM     14  C   UNL     1       5.912   4.704  18.907  0.00  0.00    +0.000 A 
ATOM     15  C   UNL     1       4.755   4.662  18.115  0.00  0.00    +0.000 A 
ATOM     16  C   UNL     1       4.996   4.586  16.738  0.00  0.00    +0.000 A 
ENDBRANCH   1  15
TORSDOF 1
ENDMDL
MODEL 2
REMARK VINA RESULT:      -6.9      1.765      2.257
REMARK  Name = 
REMARK  1 active torsions:
REMARK  status: ('A' for Active; 'I' for Inactive)
REMARK    1  A    between atoms: C_6  and  N_7
REMARK                            x       y       z     vdW  Elec       q    Type
REMARK                         _______ _______ _______ _____ _____    ______ ____
ROOT
ATOM      1  N   UNL     1       4.495   4.326  17.605  0.00  0.00    +0.000 N 
ATOM      2  C   UNL     1       4.867   3.677  18.862  0.00  0.00    +0.000 C 
ATOM      3  C   UNL     1       3.571   3.064  19.360  0.00  0.00    +0.000 C 
ATOM      4  C   UNL     1       3.227   1.731  18.713  0.00  0.00    +0.000 C 
ATOM      5  N   UNL     1       1.761   1.677  18.726  0.00  0.00    +0.000 NA
ATOM      6  C   UNL     1       1.271   3.067  18.729  0.00  0.00    +0.000 C 
ATOM      7  C   UNL     1       2.482   3.982  18.835  0.00  0.00    +0.000 C 
ATOM      8  C   UNL     1       3.039   4.475  17.488  0.00  0.00    +0.000 C 
ATOM      9  H   UNL     1       1.452   1.216  19.583  0.00  0.00    +0.000 HD
ENDROOT
BRANCH   1  15
ATOM     10 BR   UNL     1       5.987   3.467  12.601  0.00  0.00    +0.000 Br
ATOM     11  C   UNL     1       6.183   4.249  14.306  0.00  0.00    +0.000 A 
ATOM     12  C   UNL     1       7.253   5.077  14.583  0.00  0.00    +0.000 A 
ATOM     13  N   UNL     1       7.442   5.667  15.778  0.00  0.00    +0.000 NA
ATOM     14  C   UNL     1       6.509   5.398  16.729  0.00  0.00    +0.000 A 
ATOM     15  C   UNL     1       5.389   4.565  16.586  0.00  0.00    +0.000 A 
ATOM     16  C   UNL     1       5.247   3.997  15.314  0.00  0.00    +0.000 A 
ENDBRANCH   1  15
TORSDOF 1
ENDMDL
MODEL 3
REMARK VINA RESULT:      -6.8      1.749      2.296
REMARK  Name = 
REMARK  1 active torsions:
REMARK  status: ('A' for Active; 'I' for Inactive)
REMARK    1  A    between atoms: C_6  and  N_7
REMARK                            x       y       z     vdW  Elec       q    Type
REMARK                         _______ _______ _______ _____ _____    ______ ____
ROOT
ATOM      1  N   UNL     1       3.743   3.430  18.325  0.00  0.00    +0.000 N 
ATOM      2  C   UNL     1       2.908   2.282  17.970  0.00  0.00    +0.000 C 
ATOM      3  C   UNL     1       2.069   2.038  19.211  0.00  0.00    +0.000 C 
ATOM      4  C   UNL     1       0.857   2.950  19.329  0.00  0.00    +0.000 C 
ATOM      5  N   UNL     1       0.637   3.094  20.772  0.00  0.00    +0.000 NA
ATOM      6  C   UNL     1       1.937   2.885  21.436  0.00  0.00    +0.000 C 
ATOM      7  C   UNL     1       2.943   2.492  20.365  0.00  0.00    +0.000 C 
ATOM      8  C   UNL     1       3.747   3.663  19.775  0.00  0.00    +0.000 C 
ATOM      9  H   UNL     1      -0.013   2.371  21.084  0.00  0.00    +0.000 HD
ENDROOT
BRANCH   1  15
ATOM     10 BR   UNL     1       6.395   4.129  13.798  0.00  0.00    +0.000 Br
ATOM     11  C   UNL     1       5.485   4.748  15.331  0.00  0.00    +0.000 A 
ATOM     12  C   UNL     1       5.346   6.102  15.568  0.00  0.00    +0.000 A 
ATOM     13  N   UNL     1       4.704   6.602  16.640  0.00  0.00    +0.000 NA
ATOM     14  C   UNL     1       4.190   5.689  17.507  0.00  0.00    +0.000 A 
ATOM     15  C   UNL     1       4.274   4.293  17.393  0.00  0.00    +0.000 A 
ATOM     16  C   UNL     1       4.942   3.843  16.248  0.00  0.00    +0.000 A 
ENDBRANCH   1  15
TORSDOF 1
ENDMDL
MODEL 4
REMARK VINA RESULT:      -6.8      1.282      1.686
REMARK  Name = 
REMARK  1 active torsions:
REMARK  status: ('A' for Active; 'I' for Inactive)
REMARK    1  A    between atoms: C_6  and  N_7
REMARK                            x       y       z     vdW  Elec       q    Type
REMARK                         _______ _______ _______ _____ _____    ______ ____
ROOT
ATOM      1  N   UNL     1       4.454   3.957  19.168  0.00  0.00    +0.000 N 
ATOM      2  C   UNL     1       4.303   2.643  19.792  0.00  0.00    +0.000 C 
ATOM      3  C   UNL     1       2.878   2.643  20.315  0.00  0.00    +0.000 C 
ATOM      4  C   UNL     1       1.830   2.322  19.259  0.00  0.00    +0.000 C 
ATOM      5  N   UNL     1       0.629   3.042  19.695  0.00  0.00    +0.000 NA
ATOM      6  C   UNL     1       1.075   4.194  20.498  0.00  0.00    +0.000 C 
ATOM      7  C   UNL     1       2.587   4.096  20.644  0.00  0.00    +0.000 C 
ATOM      8  C   UNL     1       3.388   4.876  19.588  0.00  0.00    +0.000 C 
ATOM      9  H   UNL     1       0.066   2.426  20.283  0.00  0.00    +0.000 HD
ENDROOT
BRANCH   1  15
ATOM     10 BR   UNL     1       5.586   3.971  13.998  0.00  0.00    +0.000 Br
ATOM     11  C   UNL     1       6.002   4.267  15.815  0.00  0.00    +0.000 A 
ATOM     12  C   UNL     1       7.246   4.738  16.185  0.00  0.00    +0.000 A 
ATOM     13  N   UNL     1       7.598   4.973  17.463  0.00  0.00    +0.000 NA
ATOM     14  C   UNL     1       6.648   4.711  18.399  0.00  0.00    +0.000 A 
ATOM     15  C   UNL     1       5.357   4.216  18.162  0.00  0.00    +0.000 A 
ATOM     16  C   UNL     1       5.054   4.009  16.811  0.00  0.00    +0.000 A 
ENDBRANCH   1  15
TORSDOF 1
ENDMDL
MODEL 5
REMARK VINA RESULT:      -6.6      1.968      2.584
REMARK  Name = 
REMARK  1 active torsions:
REMARK  status: ('A' for Active; 'I' for Inactive)
REMARK    1  A    between atoms: C_6  and  N_7
REMARK                            x       y       z     vdW  Elec       q    Type
REMARK                         _______ _______ _______ _____ _____    ______ ____
ROOT
ATOM      1  N   UNL     1       4.053   3.379  18.594  0.00  0.00    +0.000 N 
ATOM      2  C   UNL     1       3.427   2.097  18.272  0.00  0.00    +0.000 C 
ATOM      3  C   UNL     1       2.277   1.989  19.257  0.00  0.00    +0.000 C 
ATOM      4  C   UNL     1       1.033   2.761  18.843  0.00  0.00    +0.000 C 
ATOM      5  N   UNL     1       0.392   3.141  20.107  0.00  0.00    +0.000 NA
ATOM      6  C   UNL     1       1.450   3.211  21.131  0.00  0.00    +0.000 C 
ATOM      7  C   UNL     1       2.747   2.746  20.486  0.00  0.00    +0.000 C 
ATOM      8  C   UNL     1       3.619   3.874  19.907  0.00  0.00    +0.000 C 
ATOM      9  H   UNL     1      -0.278   2.418  20.372  0.00  0.00    +0.000 HD
ENDROOT
BRANCH   1  15
ATOM     10 BR   UNL     1       7.530   7.258  17.661  0.00  0.00    +0.000 Br
ATOM     11  C   UNL     1       6.369   5.872  17.124  0.00  0.00    +0.000 A 
ATOM     12  C   UNL     1       6.206   5.567  15.787  0.00  0.00    +0.000 A 
ATOM     13  N   UNL     1       5.397   4.587  15.344  0.00  0.00    +0.000 NA
ATOM     14  C   UNL     1       4.722   3.895  16.301  0.00  0.00    +0.000 A 
ATOM     15  C   UNL     1       4.783   4.112  17.686  0.00  0.00    +0.000 A 
ATOM     16  C   UNL     1       5.655   5.136  18.075  0.00  0.00    +0.000 A 
ENDBRANCH   1  15
TORSDOF 1
ENDMDL
MODEL 6
REMARK VINA RESULT:      -6.5      1.676      1.956
REMARK  Name = 
REMARK  1 active torsions:
REMARK  status: ('A' for Active; 'I' for Inactive)
REMARK    1  A    between atoms: C_6  and  N_7
REMARK                            x       y       z     vdW  Elec       q    Type
REMARK                         _______ _______ _______ _____ _____    ______ ____
ROOT
ATOM      1  N   UNL     1       3.013   3.911  18.252  0.00  0.00    +0.000 N 
ATOM      2  C   UNL     1       1.619   4.253  18.533  0.00  0.00    +0.000 C 
ATOM      3  C   UNL     1       1.351   3.626  19.889  0.00  0.00    +0.000 C 
ATOM      4  C   UNL     1       1.847   4.456  21.064  0.00  0.00    +0.000 C 
ATOM      5  N   UNL     1       2.171   3.474  22.105  0.00  0.00    +0.000 NA
ATOM      6  C   UNL     1       2.499   2.207  21.425  0.00  0.00    +0.000 C 
ATOM      7  C   UNL     1       2.253   2.406  19.937  0.00  0.00    +0.000 C 
ATOM      8  C   UNL     1       3.491   2.837  19.131  0.00  0.00    +0.000 C 
ATOM      9  H   UNL     1       1.350   3.330  22.695  0.00  0.00    +0.000 HD
ENDROOT
BRANCH   1  15
ATOM     10 BR   UNL     1       6.342   4.066  14.140  0.00  0.00    +0.000 Br
ATOM     11  C   UNL     1       5.363   4.857  15.546  0.00  0.00    +0.000 A 
ATOM     12  C   UNL     1       5.446   6.215  15.785  0.00  0.00    +0.000 A 
ATOM     13  N   UNL     1       4.767   6.835  16.768  0.00  0.00    +0.000 NA
ATOM     14  C   UNL     1       3.980   6.041  17.541  0.00  0.00    +0.000 A 
ATOM     15  C   UNL     1       3.818   4.653  17.416  0.00  0.00    +0.000 A 
ATOM     16  C   UNL     1       4.541   4.076  16.365  0.00  0.00    +0.000 A 
ENDBRANCH   1  15
TORSDOF 1
ENDMDL
MODEL 7
REMARK VINA RESULT:      -6.5      1.771      1.934
REMARK  Name = 
REMARK  1 active torsions:
REMARK  status: ('A' for Active; 'I' for Inactive)
REMARK    1  A    between atoms: C_6  and  N_7
REMARK                            x       y       z     vdW  Elec       q    Type
REMARK                         _______ _______ _______ _____ _____    ______ ____
ROOT
ATOM      1  N   UNL     1       3.331   4.745  17.709  0.00  0.00    +0.000 N 
ATOM      2  C   UNL     1       2.714   5.554  18.759  0.00  0.00    +0.000 C 
ATOM      3  C   UNL     1       1.694   4.625  19.391  0.00  0.00    +0.000 C 
ATOM      4  C   UNL     1       2.283   3.658  20.408  0.00  0.00    +0.000 C 
ATOM      5  N   UNL     1       1.419   2.474  20.341  0.00  0.00    +0.000 NA
ATOM      6  C   UNL     1       0.827   2.439  18.992  0.00  0.00    +0.000 C 
ATOM      7  C   UNL     1       1.261   3.703  18.265  0.00  0.00    +0.000 C 
ATOM      8  C   UNL     1       2.531   3.551  17.409  0.00  0.00    +0.000 C 
ATOM      9  H   UNL     1       0.670   2.569  21.029  0.00  0.00    +0.000 HD
ENDROOT
BRANCH   1  15
ATOM     10 BR   UNL     1       7.640   7.816  17.592  0.00  0.00    +0.000 Br
ATOM     11  C   UNL     1       6.636   6.303  17.082  0.00  0.00    +0.000 A 
ATOM     12  C   UNL     1       7.149   5.387  16.184  0.00  0.00    +0.000 A 
ATOM     13  N   UNL     1       6.482   4.287  15.788  0.00  0.00    +0.000 NA
ATOM     14  C   UNL     1       5.243   4.117  16.321  0.00  0.00    +0.000 A 
ATOM     15  C   UNL     1       4.600   4.976  17.226  0.00  0.00    +0.000 A 
ATOM     16  C   UNL     1       5.357   6.091  17.605  0.00  0.00    +0.000 A 
ENDBRANCH   1  15
TORSDOF 1
ENDMDL
MODEL 8
REMARK VINA RESULT:      -6.5      2.854      5.782
REMARK  Name = 
REMARK  1 active torsions:
REMARK  status: ('A' for Active; 'I' for Inactive)
REMARK    1  A    between atoms: C_6  and  N_7
REMARK                            x       y       z     vdW  Elec       q    Type
REMARK                         _______ _______ _______ _____ _____    ______ ____
ROOT
ATOM      1  N   UNL     1       5.129   4.967  17.534  0.00  0.00    +0.000 N 
ATOM      2  C   UNL     1       6.370   4.215  17.351  0.00  0.00    +0.000 C 
ATOM      3  C   UNL     1       7.461   5.260  17.501  0.00  0.00    +0.000 C 
ATOM      4  C   UNL     1       7.810   5.589  18.945  0.00  0.00    +0.000 C 
ATOM      5  N   UNL     1       8.254   6.987  18.912  0.00  0.00    +0.000 NA
ATOM      6  C   UNL     1       7.601   7.627  17.755  0.00  0.00    +0.000 C 
ATOM      7  C   UNL     1       6.832   6.549  17.006  0.00  0.00    +0.000 C 
ATOM      8  C   UNL     1       5.354   6.413  17.411  0.00  0.00    +0.000 C 
ATOM      9  H   UNL     1       9.265   7.013  18.777  0.00  0.00    +0.000 HD
ENDROOT
BRANCH   1  15
ATOM     10 BR   UNL     1       2.093   3.391  21.572  0.00  0.00    +0.000 Br
ATOM     11  C   UNL     1       2.470   3.623  19.738  0.00  0.00    +0.000 A 
ATOM     12  C   UNL     1       1.574   3.199  18.776  0.00  0.00    +0.000 A 
ATOM     13  N   UNL     1       1.785   3.342  17.454  0.00  0.00    +0.000 NA
ATOM     14  C   UNL     1       2.957   3.933  17.099  0.00  0.00    +0.000 A 
ATOM     15  C   UNL     1       3.956   4.393  17.971  0.00  0.00    +0.000 A 
ATOM     16  C   UNL     1       3.664   4.225  19.329  0.00  0.00    +0.000 A 
ENDBRANCH   1  15
TORSDOF 1
ENDMDL
MODEL 9
REMARK VINA RESULT:      -6.4      1.937      2.359
REMARK  Name = 
REMARK  1 active torsions:
REMARK  status: ('A' for Active; 'I' for Inactive)
REMARK    1  A    between atoms: C_6  and  N_7
REMARK                            x       y       z     vdW  Elec       q    Type
REMARK                         _______ _______ _______ _____ _____    ______ ____
ROOT
ATOM      1  N   UNL     1       4.294   4.175  19.164  0.00  0.00    +0.000 N 
ATOM      2  C   UNL     1       4.274   2.781  19.605  0.00  0.00    +0.000 C 
ATOM      3  C   UNL     1       2.867   2.582  20.138  0.00  0.00    +0.000 C 
ATOM      4  C   UNL     1       1.827   2.312  19.060  0.00  0.00    +0.000 C 
ATOM      5  N   UNL     1       0.577   2.856  19.602  0.00  0.00    +0.000 NA
ATOM      6  C   UNL     1       0.939   3.925  20.549  0.00  0.00    +0.000 C 
ATOM      7  C   UNL     1       2.456   3.945  20.664  0.00  0.00    +0.000 C 
ATOM      8  C   UNL     1       3.161   4.930  19.716  0.00  0.00    +0.000 C 
ATOM      9  H   UNL     1       0.084   2.118  20.107  0.00  0.00    +0.000 HD
ENDROOT
BRANCH   1  15
ATOM     10 BR   UNL     1       7.757   7.851  17.582  0.00  0.00    +0.000 Br
ATOM     11  C   UNL     1       6.751   6.273  17.347  0.00  0.00    +0.000 A 
ATOM     12  C   UNL     1       6.833   5.553  16.171  0.00  0.00    +0.000 A 
ATOM     13  N   UNL     1       6.144   4.419  15.948  0.00  0.00    +0.000 NA
ATOM     14  C   UNL     1       5.336   4.005  16.959  0.00  0.00    +0.000 A 
ATOM     15  C   UNL     1       5.148   4.647  18.193  0.00  0.00    +0.000 A 
ATOM     16  C   UNL     1       5.906   5.812  18.362  0.00  0.00    +0.000 A 
ENDBRANCH   1  15
TORSDOF 1
ENDMDL
