MODEL 1
REMARK VINA RESULT:      -8.7      0.000      0.000
REMARK  Name = 
REMARK  6 active torsions:
REMARK  status: ('A' for Active; 'I' for Inactive)
REMARK    1  A    between atoms: C_2  and  O_3
REMARK    2  A    between atoms: C_2  and  C_4
REMARK    3  A    between atoms: C_9  and  C_10
REMARK    4  A    between atoms: C_13  and  O_14
REMARK    5  A    between atoms: O_14  and  C_15
REMARK    6  A    between atoms: C_15  and  C_16
REMARK                            x       y       z     vdW  Elec       q    Type
REMARK                         _______ _______ _______ _____ _____    ______ ____
ROOT
ATOM      1  C   UNL     1      -0.504  10.826  22.259  0.00  0.00    +0.000 A 
ATOM      2  C   UNL     1       0.082   9.736  22.922  0.00  0.00    +0.000 A 
ATOM      3  C   UNL     1       0.801   8.781  22.198  0.00  0.00    +0.000 A 
ATOM      4  C   UNL     1       0.925   8.908  20.813  0.00  0.00    +0.000 A 
ATOM      5  O   UNL     1       1.657   7.953  20.157  0.00  0.00    +0.000 OA
ATOM      6  C   UNL     1       1.852   8.104  18.792  0.00  0.00    +0.000 A 
ATOM      7  C   UNL     1       1.289   9.064  18.047  0.00  0.00    +0.000 A 
ATOM      8  C   UNL     1       0.462  10.080  18.699  0.00  0.00    +0.000 A 
ATOM      9  O   UNL     1      -0.052  10.978  18.051  0.00  0.00    +0.000 OA
ATOM     10  C   UNL     1       0.319   9.979  20.156  0.00  0.00    +0.000 A 
ATOM     11  C   UNL     1      -0.397  10.939  20.869  0.00  0.00    +0.000 A 
ENDROOT
BRANCH   6  12
ATOM     12  C   UNL     1       2.750   7.105  18.181  0.00  0.00    +0.000 A 
ATOM     13  C   UNL     1       3.984   7.498  17.633  0.00  0.00    +0.000 A 
ATOM     14  C   UNL     1       4.814   6.559  17.069  0.00  0.00    +0.000 A 
ATOM     15  C   UNL     1       4.502   5.208  17.056  0.00  0.00    +0.000 A 
ATOM     16  C   UNL     1       3.270   4.791  17.598  0.00  0.00    +0.000 A 
ATOM     17  C   UNL     1       2.415   5.750  18.168  0.00  0.00    +0.000 A 
BRANCH  15  18
ATOM     18  O   UNL     1       5.367   4.292  16.507  0.00  0.00    +0.000 OA
BRANCH  18  19
ATOM     19  C   UNL     1       6.591   4.890  15.999  0.00  0.00    +0.000 C 
BRANCH  19  20
ATOM     20  C   UNL     1       6.710   4.619  14.524  0.00  0.00    +0.000 A 
ATOM     21  C   UNL     1       5.895   3.661  13.909  0.00  0.00    +0.000 A 
ATOM     22  C   UNL     1       6.038   3.380  12.551  0.00  0.00    +0.000 A 
ATOM     23  C   UNL     1       6.978   4.071  11.789  0.00  0.00    +0.000 A 
ATOM     24  C   UNL     1       7.766   5.054  12.383  0.00  0.00    +0.000 A 
ATOM     25  C   UNL     1       7.634   5.328  13.744  0.00  0.00    +0.000 A 
ENDBRANCH  19  20
ENDBRANCH  18  19
ENDBRANCH  15  18
ENDBRANCH   6  12
BRANCH   1  27
ATOM     26  O   UNL     1      -0.851  12.977  23.208  0.00  0.00    +0.000 OA
ATOM     27  C   UNL     1      -1.281  11.859  22.986  0.00  0.00    +0.000 C 
BRANCH  27  28
ATOM     28  O   UNL     1      -2.491  11.433  23.406  0.00  0.00    +0.000 OA
ATOM     29  H   UNL     1      -2.893  10.725  22.873  0.00  0.00    +0.000 HD
ENDBRANCH  27  28
ENDBRANCH   1  27
TORSDOF 6
ENDMDL
MODEL 2
REMARK VINA RESULT:      -8.4      3.544     10.750
REMARK  Name = 
REMARK  6 active torsions:
REMARK  status: ('A' for Active; 'I' for Inactive)
REMARK    1  A    between atoms: C_2  and  O_3
REMARK    2  A    between atoms: C_2  and  C_4
REMARK    3  A    between atoms: C_9  and  C_10
REMARK    4  A    between atoms: C_13  and  O_14
REMARK    5  A    between atoms: O_14  and  C_15
REMARK    6  A    between atoms: C_15  and  C_16
REMARK                            x       y       z     vdW  Elec       q    Type
REMARK                         _______ _______ _______ _____ _____    ______ ____
ROOT
ATOM      1  C   UNL     1       3.390   3.130  19.689  0.00  0.00    +0.000 A 
ATOM      2  C   UNL     1       2.652   3.207  20.881  0.00  0.00    +0.000 A 
ATOM      3  C   UNL     1       2.054   4.413  21.257  0.00  0.00    +0.000 A 
ATOM      4  C   UNL     1       2.203   5.543  20.451  0.00  0.00    +0.000 A 
ATOM      5  O   UNL     1       1.578   6.693  20.859  0.00  0.00    +0.000 OA
ATOM      6  C   UNL     1       1.654   7.805  20.033  0.00  0.00    +0.000 A 
ATOM      7  C   UNL     1       2.382   7.867  18.910  0.00  0.00    +0.000 A 
ATOM      8  C   UNL     1       3.102   6.675  18.459  0.00  0.00    +0.000 A 
ATOM      9  O   UNL     1       3.760   6.694  17.430  0.00  0.00    +0.000 OA
ATOM     10  C   UNL     1       2.958   5.468  19.281  0.00  0.00    +0.000 A 
ATOM     11  C   UNL     1       3.556   4.269  18.895  0.00  0.00    +0.000 A 
ENDROOT
BRANCH   6  12
ATOM     12  C   UNL     1       0.858   8.964  20.481  0.00  0.00    +0.000 A 
ATOM     13  C   UNL     1       0.623   9.178  21.851  0.00  0.00    +0.000 A 
ATOM     14  C   UNL     1      -0.118  10.262  22.258  0.00  0.00    +0.000 A 
ATOM     15  C   UNL     1      -0.616  11.196  21.362  0.00  0.00    +0.000 A 
ATOM     16  C   UNL     1      -0.394  11.000  19.984  0.00  0.00    +0.000 A 
ATOM     17  C   UNL     1       0.356   9.888  19.564  0.00  0.00    +0.000 A 
BRANCH  15  18
ATOM     18  O   UNL     1      -1.331  12.283  21.804  0.00  0.00    +0.000 OA
BRANCH  18  19
ATOM     19  C   UNL     1      -1.864  12.112  23.146  0.00  0.00    +0.000 C 
BRANCH  19  20
ATOM     20  C   UNL     1      -3.336  12.427  23.148  0.00  0.00    +0.000 A 
ATOM     21  C   UNL     1      -4.066  12.402  24.343  0.00  0.00    +0.000 A 
ATOM     22  C   UNL     1      -5.439  12.650  24.335  0.00  0.00    +0.000 A 
ATOM     23  C   UNL     1      -6.088  12.950  23.140  0.00  0.00    +0.000 A 
ATOM     24  C   UNL     1      -5.362  13.016  21.952  0.00  0.00    +0.000 A 
ATOM     25  C   UNL     1      -3.993  12.756  21.954  0.00  0.00    +0.000 A 
ENDBRANCH  19  20
ENDBRANCH  18  19
ENDBRANCH  15  18
ENDBRANCH   6  12
BRANCH   1  27
ATOM     26  O   UNL     1       3.604   1.168  18.365  0.00  0.00    +0.000 OA
ATOM     27  C   UNL     1       4.047   1.874  19.254  0.00  0.00    +0.000 C 
BRANCH  27  28
ATOM     28  O   UNL     1       5.158   1.570  19.958  0.00  0.00    +0.000 OA
ATOM     29  H   UNL     1       5.283   2.076  20.780  0.00  0.00    +0.000 HD
ENDBRANCH  27  28
ENDBRANCH   1  27
TORSDOF 6
ENDMDL
MODEL 3
REMARK VINA RESULT:      -8.4      0.595      1.339
REMARK  Name = 
REMARK  6 active torsions:
REMARK  status: ('A' for Active; 'I' for Inactive)
REMARK    1  A    between atoms: C_2  and  O_3
REMARK    2  A    between atoms: C_2  and  C_4
REMARK    3  A    between atoms: C_9  and  C_10
REMARK    4  A    between atoms: C_13  and  O_14
REMARK    5  A    between atoms: O_14  and  C_15
REMARK    6  A    between atoms: C_15  and  C_16
REMARK                            x       y       z     vdW  Elec       q    Type
REMARK                         _______ _______ _______ _____ _____    ______ ____
ROOT
ATOM      1  C   UNL     1      -0.659  10.900  22.341  0.00  0.00    +0.000 A 
ATOM      2  C   UNL     1       0.022   9.901  23.054  0.00  0.00    +0.000 A 
ATOM      3  C   UNL     1       0.826   8.981  22.375  0.00  0.00    +0.000 A 
ATOM      4  C   UNL     1       0.939   9.051  20.985  0.00  0.00    +0.000 A 
ATOM      5  O   UNL     1       1.757   8.135  20.374  0.00  0.00    +0.000 OA
ATOM      6  C   UNL     1       1.938   8.236  19.003  0.00  0.00    +0.000 A 
ATOM      7  C   UNL     1       1.290   9.103  18.214  0.00  0.00    +0.000 A 
ATOM      8  C   UNL     1       0.373  10.070  18.818  0.00  0.00    +0.000 A 
ATOM      9  O   UNL     1      -0.220  10.885  18.128  0.00  0.00    +0.000 OA
ATOM     10  C   UNL     1       0.240  10.028  20.279  0.00  0.00    +0.000 A 
ATOM     11  C   UNL     1      -0.562  10.953  20.947  0.00  0.00    +0.000 A 
ENDROOT
BRANCH   6  12
ATOM     12  C   UNL     1       2.924   7.294  18.439  0.00  0.00    +0.000 A 
ATOM     13  C   UNL     1       3.070   6.006  18.985  0.00  0.00    +0.000 A 
ATOM     14  C   UNL     1       3.990   5.135  18.451  0.00  0.00    +0.000 A 
ATOM     15  C   UNL     1       4.762   5.460  17.347  0.00  0.00    +0.000 A 
ATOM     16  C   UNL     1       4.633   6.746  16.783  0.00  0.00    +0.000 A 
ATOM     17  C   UNL     1       3.700   7.643  17.333  0.00  0.00    +0.000 A 
BRANCH  15  18
ATOM     18  O   UNL     1       5.653   4.556  16.820  0.00  0.00    +0.000 OA
BRANCH  18  19
ATOM     19  C   UNL     1       5.115   3.808  15.695  0.00  0.00    +0.000 C 
BRANCH  19  20
ATOM     20  C   UNL     1       5.944   4.076  14.469  0.00  0.00    +0.000 A 
ATOM     21  C   UNL     1       7.037   4.951  14.526  0.00  0.00    +0.000 A 
ATOM     22  C   UNL     1       7.776   5.232  13.378  0.00  0.00    +0.000 A 
ATOM     23  C   UNL     1       7.447   4.623  12.169  0.00  0.00    +0.000 A 
ATOM     24  C   UNL     1       6.387   3.720  12.110  0.00  0.00    +0.000 A 
ATOM     25  C   UNL     1       5.638   3.447  13.254  0.00  0.00    +0.000 A 
ENDBRANCH  19  20
ENDBRANCH  18  19
ENDBRANCH  15  18
ENDBRANCH   6  12
BRANCH   1  27
ATOM     26  O   UNL     1      -1.126  12.980  23.390  0.00  0.00    +0.000 OA
ATOM     27  C   UNL     1      -1.528  11.891  23.019  0.00  0.00    +0.000 C 
BRANCH  27  28
ATOM     28  O   UNL     1      -2.792  11.462  23.217  0.00  0.00    +0.000 OA
ATOM     29  H   UNL     1      -2.877  10.623  23.704  0.00  0.00    +0.000 HD
ENDBRANCH  27  28
ENDBRANCH   1  27
TORSDOF 6
ENDMDL
MODEL 4
REMARK VINA RESULT:      -8.1      1.335      2.141
REMARK  Name = 
REMARK  6 active torsions:
REMARK  status: ('A' for Active; 'I' for Inactive)
REMARK    1  A    between atoms: C_2  and  O_3
REMARK    2  A    between atoms: C_2  and  C_4
REMARK    3  A    between atoms: C_9  and  C_10
REMARK    4  A    between atoms: C_13  and  O_14
REMARK    5  A    between atoms: O_14  and  C_15
REMARK    6  A    between atoms: C_15  and  C_16
REMARK                            x       y       z     vdW  Elec       q    Type
REMARK                         _______ _______ _______ _____ _____    ______ ____
ROOT
ATOM      1  C   UNL     1      -1.401  11.646  20.062  0.00  0.00    +0.000 A 
ATOM      2  C   UNL     1      -1.186  11.622  18.675  0.00  0.00    +0.000 A 
ATOM      3  C   UNL     1      -0.291  10.703  18.121  0.00  0.00    +0.000 A 
ATOM      4  C   UNL     1       0.399   9.818  18.953  0.00  0.00    +0.000 A 
ATOM      5  O   UNL     1       1.250   8.926  18.354  0.00  0.00    +0.000 OA
ATOM      6  C   UNL     1       1.888   7.992  19.157  0.00  0.00    +0.000 A 
ATOM      7  C   UNL     1       1.810   7.963  20.494  0.00  0.00    +0.000 A 
ATOM      8  C   UNL     1       0.948   8.926  21.180  0.00  0.00    +0.000 A 
ATOM      9  O   UNL     1       0.842   8.915  22.397  0.00  0.00    +0.000 OA
ATOM     10  C   UNL     1       0.202   9.864  20.333  0.00  0.00    +0.000 A 
ATOM     11  C   UNL     1      -0.692  10.775  20.895  0.00  0.00    +0.000 A 
ENDROOT
BRANCH   6  12
ATOM     12  C   UNL     1       2.690   6.993  18.427  0.00  0.00    +0.000 A 
ATOM     13  C   UNL     1       3.788   7.396  17.645  0.00  0.00    +0.000 A 
ATOM     14  C   UNL     1       4.531   6.457  16.970  0.00  0.00    +0.000 A 
ATOM     15  C   UNL     1       4.268   5.099  17.063  0.00  0.00    +0.000 A 
ATOM     16  C   UNL     1       3.171   4.672  17.839  0.00  0.00    +0.000 A 
ATOM     17  C   UNL     1       2.404   5.631  18.524  0.00  0.00    +0.000 A 
BRANCH  15  18
ATOM     18  O   UNL     1       5.046   4.184  16.397  0.00  0.00    +0.000 OA
BRANCH  18  19
ATOM     19  C   UNL     1       6.347   4.709  16.011  0.00  0.00    +0.000 C 
BRANCH  19  20
ATOM     20  C   UNL     1       6.551   4.516  14.533  0.00  0.00    +0.000 A 
ATOM     21  C   UNL     1       5.734   3.637  13.812  0.00  0.00    +0.000 A 
ATOM     22  C   UNL     1       5.953   3.427  12.451  0.00  0.00    +0.000 A 
ATOM     23  C   UNL     1       6.973   4.112  11.793  0.00  0.00    +0.000 A 
ATOM     24  C   UNL     1       7.765   5.019  12.494  0.00  0.00    +0.000 A 
ATOM     25  C   UNL     1       7.557   5.221  13.858  0.00  0.00    +0.000 A 
ENDBRANCH  19  20
ENDBRANCH  18  19
ENDBRANCH  15  18
ENDBRANCH   6  12
BRANCH   1  27
ATOM     26  O   UNL     1      -2.446  12.731  21.900  0.00  0.00    +0.000 OA
ATOM     27  C   UNL     1      -2.337  12.608  20.693  0.00  0.00    +0.000 C 
BRANCH  27  28
ATOM     28  O   UNL     1      -3.076  13.308  19.807  0.00  0.00    +0.000 OA
ATOM     29  H   UNL     1      -3.969  12.956  19.638  0.00  0.00    +0.000 HD
ENDBRANCH  27  28
ENDBRANCH   1  27
TORSDOF 6
ENDMDL
MODEL 5
REMARK VINA RESULT:      -8.1      3.188     10.687
REMARK  Name = 
REMARK  6 active torsions:
REMARK  status: ('A' for Active; 'I' for Inactive)
REMARK    1  A    between atoms: C_2  and  O_3
REMARK    2  A    between atoms: C_2  and  C_4
REMARK    3  A    between atoms: C_9  and  C_10
REMARK    4  A    between atoms: C_13  and  O_14
REMARK    5  A    between atoms: O_14  and  C_15
REMARK    6  A    between atoms: C_15  and  C_16
REMARK                            x       y       z     vdW  Elec       q    Type
REMARK                         _______ _______ _______ _____ _____    ______ ____
ROOT
ATOM      1  C   UNL     1       3.143   4.063  18.761  0.00  0.00    +0.000 A 
ATOM      2  C   UNL     1       2.685   3.875  20.075  0.00  0.00    +0.000 A 
ATOM      3  C   UNL     1       2.133   4.945  20.784  0.00  0.00    +0.000 A 
ATOM      4  C   UNL     1       2.051   6.205  20.186  0.00  0.00    +0.000 A 
ATOM      5  O   UNL     1       1.483   7.213  20.921  0.00  0.00    +0.000 OA
ATOM      6  C   UNL     1       1.326   8.452  20.316  0.00  0.00    +0.000 A 
ATOM      7  C   UNL     1       1.783   8.764  19.096  0.00  0.00    +0.000 A 
ATOM      8  C   UNL     1       2.436   7.729  18.293  0.00  0.00    +0.000 A 
ATOM      9  O   UNL     1       2.849   7.977  17.171  0.00  0.00    +0.000 OA
ATOM     10  C   UNL     1       2.531   6.392  18.890  0.00  0.00    +0.000 A 
ATOM     11  C   UNL     1       3.080   5.330  18.174  0.00  0.00    +0.000 A 
ENDROOT
BRANCH   6  12
ATOM     12  C   UNL     1       0.599   9.447  21.126  0.00  0.00    +0.000 A 
ATOM     13  C   UNL     1      -0.039   9.064  22.320  0.00  0.00    +0.000 A 
ATOM     14  C   UNL     1      -0.712  10.001  23.069  0.00  0.00    +0.000 A 
ATOM     15  C   UNL     1      -0.752  11.340  22.716  0.00  0.00    +0.000 A 
ATOM     16  C   UNL     1      -0.122  11.747  21.523  0.00  0.00    +0.000 A 
ATOM     17  C   UNL     1       0.560  10.790  20.750  0.00  0.00    +0.000 A 
BRANCH  15  18
ATOM     18  O   UNL     1      -1.411  12.255  23.501  0.00  0.00    +0.000 OA
BRANCH  18  19
ATOM     19  C   UNL     1      -2.009  13.340  22.740  0.00  0.00    +0.000 C 
BRANCH  19  20
ATOM     20  C   UNL     1      -3.484  13.088  22.576  0.00  0.00    +0.000 A 
ATOM     21  C   UNL     1      -4.026  12.841  21.308  0.00  0.00    +0.000 A 
ATOM     22  C   UNL     1      -5.399  12.652  21.153  0.00  0.00    +0.000 A 
ATOM     23  C   UNL     1      -6.238  12.683  22.265  0.00  0.00    +0.000 A 
ATOM     24  C   UNL     1      -5.703  12.888  23.535  0.00  0.00    +0.000 A 
ATOM     25  C   UNL     1      -4.333  13.090  23.691  0.00  0.00    +0.000 A 
ENDBRANCH  19  20
ENDBRANCH  18  19
ENDBRANCH  15  18
ENDBRANCH   6  12
BRANCH   1  27
ATOM     26  O   UNL     1       3.430   1.790  18.131  0.00  0.00    +0.000 OA
ATOM     27  C   UNL     1       3.742   2.957  17.975  0.00  0.00    +0.000 C 
BRANCH  27  28
ATOM     28  O   UNL     1       4.685   3.361  17.099  0.00  0.00    +0.000 OA
ATOM     29  H   UNL     1       4.508   3.147  16.166  0.00  0.00    +0.000 HD
ENDBRANCH  27  28
ENDBRANCH   1  27
TORSDOF 6
ENDMDL
MODEL 6
REMARK VINA RESULT:      -8.0      2.229      3.662
REMARK  Name = 
REMARK  6 active torsions:
REMARK  status: ('A' for Active; 'I' for Inactive)
REMARK    1  A    between atoms: C_2  and  O_3
REMARK    2  A    between atoms: C_2  and  C_4
REMARK    3  A    between atoms: C_9  and  C_10
REMARK    4  A    between atoms: C_13  and  O_14
REMARK    5  A    between atoms: O_14  and  C_15
REMARK    6  A    between atoms: C_15  and  C_16
REMARK                            x       y       z     vdW  Elec       q    Type
REMARK                         _______ _______ _______ _____ _____    ______ ____
ROOT
ATOM      1  C   UNL     1      -1.675  12.648  20.589  0.00  0.00    +0.000 A 
ATOM      2  C   UNL     1      -1.438  12.344  19.239  0.00  0.00    +0.000 A 
ATOM      3  C   UNL     1      -0.663  11.232  18.898  0.00  0.00    +0.000 A 
ATOM      4  C   UNL     1      -0.116  10.432  19.903  0.00  0.00    +0.000 A 
ATOM      5  O   UNL     1       0.619   9.343  19.510  0.00  0.00    +0.000 OA
ATOM      6  C   UNL     1       1.109   8.497  20.494  0.00  0.00    +0.000 A 
ATOM      7  C   UNL     1       1.001   8.722  21.810  0.00  0.00    +0.000 A 
ATOM      8  C   UNL     1       0.263   9.897  22.275  0.00  0.00    +0.000 A 
ATOM      9  O   UNL     1       0.132  10.122  23.469  0.00  0.00    +0.000 OA
ATOM     10  C   UNL     1      -0.333  10.753  21.243  0.00  0.00    +0.000 A 
ATOM     11  C   UNL     1      -1.107  11.859  21.593  0.00  0.00    +0.000 A 
ENDROOT
BRANCH   6  12
ATOM     12  C   UNL     1       1.783   7.286  19.989  0.00  0.00    +0.000 A 
ATOM     13  C   UNL     1       1.820   6.115  20.768  0.00  0.00    +0.000 A 
ATOM     14  C   UNL     1       2.450   4.992  20.286  0.00  0.00    +0.000 A 
ATOM     15  C   UNL     1       3.021   4.947  19.024  0.00  0.00    +0.000 A 
ATOM     16  C   UNL     1       2.998   6.110  18.227  0.00  0.00    +0.000 A 
ATOM     17  C   UNL     1       2.363   7.263  18.720  0.00  0.00    +0.000 A 
BRANCH  15  18
ATOM     18  O   UNL     1       3.620   3.800  18.563  0.00  0.00    +0.000 OA
BRANCH  18  19
ATOM     19  C   UNL     1       4.976   3.621  19.057  0.00  0.00    +0.000 C 
BRANCH  19  20
ATOM     20  C   UNL     1       5.893   4.604  18.381  0.00  0.00    +0.000 A 
ATOM     21  C   UNL     1       5.985   4.644  16.984  0.00  0.00    +0.000 A 
ATOM     22  C   UNL     1       6.869   5.525  16.361  0.00  0.00    +0.000 A 
ATOM     23  C   UNL     1       7.648   6.391  17.126  0.00  0.00    +0.000 A 
ATOM     24  C   UNL     1       7.534   6.386  18.514  0.00  0.00    +0.000 A 
ATOM     25  C   UNL     1       6.661   5.497  19.141  0.00  0.00    +0.000 A 
ENDBRANCH  19  20
ENDBRANCH  18  19
ENDBRANCH  15  18
ENDBRANCH   6  12
BRANCH   1  27
ATOM     26  O   UNL     1      -2.189  14.535  21.939  0.00  0.00    +0.000 OA
ATOM     27  C   UNL     1      -2.485  13.821  20.997  0.00  0.00    +0.000 C 
BRANCH  27  28
ATOM     28  O   UNL     1      -3.594  14.003  20.250  0.00  0.00    +0.000 OA
ATOM     29  H   UNL     1      -3.990  14.891  20.299  0.00  0.00    +0.000 HD
ENDBRANCH  27  28
ENDBRANCH   1  27
TORSDOF 6
ENDMDL
MODEL 7
REMARK VINA RESULT:      -8.0      2.276     11.031
REMARK  Name = 
REMARK  6 active torsions:
REMARK  status: ('A' for Active; 'I' for Inactive)
REMARK    1  A    between atoms: C_2  and  O_3
REMARK    2  A    between atoms: C_2  and  C_4
REMARK    3  A    between atoms: C_9  and  C_10
REMARK    4  A    between atoms: C_13  and  O_14
REMARK    5  A    between atoms: O_14  and  C_15
REMARK    6  A    between atoms: C_15  and  C_16
REMARK                            x       y       z     vdW  Elec       q    Type
REMARK                         _______ _______ _______ _____ _____    ______ ____
ROOT
ATOM      1  C   UNL     1       4.480   5.450  17.472  0.00  0.00    +0.000 A 
ATOM      2  C   UNL     1       4.336   6.731  16.918  0.00  0.00    +0.000 A 
ATOM      3  C   UNL     1       3.501   7.669  17.532  0.00  0.00    +0.000 A 
ATOM      4  C   UNL     1       2.802   7.324  18.690  0.00  0.00    +0.000 A 
ATOM      5  O   UNL     1       2.013   8.289  19.260  0.00  0.00    +0.000 OA
ATOM      6  C   UNL     1       1.369   7.986  20.451  0.00  0.00    +0.000 A 
ATOM      7  C   UNL     1       1.380   6.780  21.034  0.00  0.00    +0.000 A 
ATOM      8  C   UNL     1       2.174   5.706  20.435  0.00  0.00    +0.000 A 
ATOM      9  O   UNL     1       2.219   4.600  20.951  0.00  0.00    +0.000 OA
ATOM     10  C   UNL     1       2.928   6.041  19.222  0.00  0.00    +0.000 A 
ATOM     11  C   UNL     1       3.761   5.099  18.619  0.00  0.00    +0.000 A 
ENDROOT
BRANCH   6  12
ATOM     12  C   UNL     1       0.639   9.112  21.063  0.00  0.00    +0.000 A 
ATOM     13  C   UNL     1       0.072   8.980  22.344  0.00  0.00    +0.000 A 
ATOM     14  C   UNL     1      -0.604  10.037  22.906  0.00  0.00    +0.000 A 
ATOM     15  C   UNL     1      -0.715  11.265  22.273  0.00  0.00    +0.000 A 
ATOM     16  C   UNL     1      -0.156  11.420  20.988  0.00  0.00    +0.000 A 
ATOM     17  C   UNL     1       0.528  10.339  20.407  0.00  0.00    +0.000 A 
BRANCH  15  18
ATOM     18  O   UNL     1      -1.376  12.310  22.875  0.00  0.00    +0.000 OA
BRANCH  18  19
ATOM     19  C   UNL     1      -2.414  12.891  22.038  0.00  0.00    +0.000 C 
BRANCH  19  20
ATOM     20  C   UNL     1      -3.738  12.809  22.748  0.00  0.00    +0.000 A 
ATOM     21  C   UNL     1      -4.923  13.145  22.082  0.00  0.00    +0.000 A 
ATOM     22  C   UNL     1      -6.144  13.111  22.754  0.00  0.00    +0.000 A 
ATOM     23  C   UNL     1      -6.196  12.717  24.090  0.00  0.00    +0.000 A 
ATOM     24  C   UNL     1      -5.027  12.343  24.749  0.00  0.00    +0.000 A 
ATOM     25  C   UNL     1      -3.803  12.388  24.083  0.00  0.00    +0.000 A 
ENDBRANCH  19  20
ENDBRANCH  18  19
ENDBRANCH  15  18
ENDBRANCH   6  12
BRANCH   1  27
ATOM     26  O   UNL     1       5.225   4.062  15.693  0.00  0.00    +0.000 OA
ATOM     27  C   UNL     1       5.349   4.422  16.851  0.00  0.00    +0.000 C 
BRANCH  27  28
ATOM     28  O   UNL     1       6.264   3.900  17.695  0.00  0.00    +0.000 OA
ATOM     29  H   UNL     1       7.084   4.415  17.793  0.00  0.00    +0.000 HD
ENDBRANCH  27  28
ENDBRANCH   1  27
TORSDOF 6
ENDMDL
MODEL 8
REMARK VINA RESULT:      -8.0      2.002     10.968
REMARK  Name = 
REMARK  6 active torsions:
REMARK  status: ('A' for Active; 'I' for Inactive)
REMARK    1  A    between atoms: C_2  and  O_3
REMARK    2  A    between atoms: C_2  and  C_4
REMARK    3  A    between atoms: C_9  and  C_10
REMARK    4  A    between atoms: C_13  and  O_14
REMARK    5  A    between atoms: O_14  and  C_15
REMARK    6  A    between atoms: C_15  and  C_16
REMARK                            x       y       z     vdW  Elec       q    Type
REMARK                         _______ _______ _______ _____ _____    ______ ____
ROOT
ATOM      1  C   UNL     1       5.704   5.172  16.585  0.00  0.00    +0.000 A 
ATOM      2  C   UNL     1       5.416   6.397  15.962  0.00  0.00    +0.000 A 
ATOM      3  C   UNL     1       4.453   7.250  16.506  0.00  0.00    +0.000 A 
ATOM      4  C   UNL     1       3.769   6.876  17.664  0.00  0.00    +0.000 A 
ATOM      5  O   UNL     1       2.849   7.760  18.165  0.00  0.00    +0.000 OA
ATOM      6  C   UNL     1       2.213   7.437  19.355  0.00  0.00    +0.000 A 
ATOM      7  C   UNL     1       2.359   6.272  20.000  0.00  0.00    +0.000 A 
ATOM      8  C   UNL     1       3.298   5.279  19.476  0.00  0.00    +0.000 A 
ATOM      9  O   UNL     1       3.466   4.213  20.050  0.00  0.00    +0.000 OA
ATOM     10  C   UNL     1       4.039   5.646  18.265  0.00  0.00    +0.000 A 
ATOM     11  C   UNL     1       5.001   4.790  17.731  0.00  0.00    +0.000 A 
ENDROOT
BRANCH   6  12
ATOM     12  C   UNL     1       1.330   8.490  19.891  0.00  0.00    +0.000 A 
ATOM     13  C   UNL     1       0.797   8.379  21.188  0.00  0.00    +0.000 A 
ATOM     14  C   UNL     1      -0.023   9.368  21.678  0.00  0.00    +0.000 A 
ATOM     15  C   UNL     1      -0.316  10.513  20.954  0.00  0.00    +0.000 A 
ATOM     16  C   UNL     1       0.206  10.644  19.651  0.00  0.00    +0.000 A 
ATOM     17  C   UNL     1       1.038   9.631  19.143  0.00  0.00    +0.000 A 
BRANCH  15  18
ATOM     18  O   UNL     1      -1.118  11.495  21.484  0.00  0.00    +0.000 OA
BRANCH  18  19
ATOM     19  C   UNL     1      -1.216  11.436  22.934  0.00  0.00    +0.000 C 
BRANCH  19  20
ATOM     20  C   UNL     1      -2.075  12.568  23.428  0.00  0.00    +0.000 A 
ATOM     21  C   UNL     1      -1.529  13.844  23.616  0.00  0.00    +0.000 A 
ATOM     22  C   UNL     1      -2.317  14.881  24.117  0.00  0.00    +0.000 A 
ATOM     23  C   UNL     1      -3.660  14.658  24.410  0.00  0.00    +0.000 A 
ATOM     24  C   UNL     1      -4.222  13.403  24.188  0.00  0.00    +0.000 A 
ATOM     25  C   UNL     1      -3.434  12.361  23.700  0.00  0.00    +0.000 A 
ENDBRANCH  19  20
ENDBRANCH  18  19
ENDBRANCH  15  18
ENDBRANCH   6  12
BRANCH   1  27
ATOM     26  O   UNL     1       7.890   4.271  16.350  0.00  0.00    +0.000 OA
ATOM     27  C   UNL     1       6.713   4.233  16.038  0.00  0.00    +0.000 C 
BRANCH  27  28
ATOM     28  O   UNL     1       6.212   3.359  15.140  0.00  0.00    +0.000 OA
ATOM     29  H   UNL     1       5.458   3.684  14.616  0.00  0.00    +0.000 HD
ENDBRANCH  27  28
ENDBRANCH   1  27
TORSDOF 6
ENDMDL
MODEL 9
REMARK VINA RESULT:      -8.0      3.325     10.644
REMARK  Name = 
REMARK  6 active torsions:
REMARK  status: ('A' for Active; 'I' for Inactive)
REMARK    1  A    between atoms: C_2  and  O_3
REMARK    2  A    between atoms: C_2  and  C_4
REMARK    3  A    between atoms: C_9  and  C_10
REMARK    4  A    between atoms: C_13  and  O_14
REMARK    5  A    between atoms: O_14  and  C_15
REMARK    6  A    between atoms: C_15  and  C_16
REMARK                            x       y       z     vdW  Elec       q    Type
REMARK                         _______ _______ _______ _____ _____    ______ ____
ROOT
ATOM      1  C   UNL     1       2.806   3.919  18.739  0.00  0.00    +0.000 A 
ATOM      2  C   UNL     1       2.275   3.725  20.024  0.00  0.00    +0.000 A 
ATOM      3  C   UNL     1       1.784   4.813  20.751  0.00  0.00    +0.000 A 
ATOM      4  C   UNL     1       1.835   6.095  20.200  0.00  0.00    +0.000 A 
ATOM      5  O   UNL     1       1.321   7.122  20.949  0.00  0.00    +0.000 OA
ATOM      6  C   UNL     1       1.297   8.391  20.388  0.00  0.00    +0.000 A 
ATOM      7  C   UNL     1       1.834   8.705  19.202  0.00  0.00    +0.000 A 
ATOM      8  C   UNL     1       2.433   7.647  18.387  0.00  0.00    +0.000 A 
ATOM      9  O   UNL     1       2.916   7.898  17.293  0.00  0.00    +0.000 OA
ATOM     10  C   UNL     1       2.387   6.287  18.934  0.00  0.00    +0.000 A 
ATOM     11  C   UNL     1       2.877   5.207  18.200  0.00  0.00    +0.000 A 
ENDROOT
BRANCH   6  12
ATOM     12  C   UNL     1       0.621   9.416  21.205  0.00  0.00    +0.000 A 
ATOM     13  C   UNL     1       0.598  10.758  20.786  0.00  0.00    +0.000 A 
ATOM     14  C   UNL     1      -0.037  11.706  21.554  0.00  0.00    +0.000 A 
ATOM     15  C   UNL     1      -0.707  11.382  22.723  0.00  0.00    +0.000 A 
ATOM     16  C   UNL     1      -0.696  10.043  23.164  0.00  0.00    +0.000 A 
ATOM     17  C   UNL     1      -0.040   9.073  22.385  0.00  0.00    +0.000 A 
BRANCH  15  18
ATOM     18  O   UNL     1      -1.355  12.349  23.454  0.00  0.00    +0.000 OA
BRANCH  18  19
ATOM     19  C   UNL     1      -1.951  13.388  22.630  0.00  0.00    +0.000 C 
BRANCH  19  20
ATOM     20  C   UNL     1      -3.437  13.166  22.536  0.00  0.00    +0.000 A 
ATOM     21  C   UNL     1      -4.245  13.279  23.675  0.00  0.00    +0.000 A 
ATOM     22  C   UNL     1      -5.615  13.029  23.595  0.00  0.00    +0.000 A 
ATOM     23  C   UNL     1      -6.193  12.691  22.373  0.00  0.00    +0.000 A 
ATOM     24  C   UNL     1      -5.404  12.616  21.227  0.00  0.00    +0.000 A 
ATOM     25  C   UNL     1      -4.032  12.852  21.307  0.00  0.00    +0.000 A 
ENDBRANCH  19  20
ENDBRANCH  18  19
ENDBRANCH  15  18
ENDBRANCH   6  12
BRANCH   1  27
ATOM     26  O   UNL     1       4.438   2.827  17.402  0.00  0.00    +0.000 OA
ATOM     27  C   UNL     1       3.344   2.795  17.936  0.00  0.00    +0.000 C 
BRANCH  27  28
ATOM     28  O   UNL     1       2.496   1.751  17.826  0.00  0.00    +0.000 OA
ATOM     29  H   UNL     1       2.056   1.660  16.962  0.00  0.00    +0.000 HD
ENDBRANCH  27  28
ENDBRANCH   1  27
TORSDOF 6
ENDMDL
