MODEL 1
REMARK VINA RESULT:      -8.6      0.000      0.000
REMARK  Name = 
REMARK  6 active torsions:
REMARK  status: ('A' for Active; 'I' for Inactive)
REMARK    1  A    between atoms: C_1  and  C_2
REMARK    2  A    between atoms: C_4  and  C_5
REMARK    3  A    between atoms: C_12  and  C_13
REMARK    4  A    between atoms: C_19  and  C_20
REMARK    5  A    between atoms: C_23  and  C_24
REMARK    6  A    between atoms: C_24  and  N_25
REMARK                            x       y       z     vdW  Elec       q    Type
REMARK                         _______ _______ _______ _____ _____    ______ ____
ROOT
ATOM      1  C   UNL     1       3.283  14.783  20.902  0.00  0.00    +0.000 C 
ATOM      2  C   UNL     1       1.983  14.612  20.156  0.00  0.00    +0.000 A 
ATOM      3  C   UNL     1       1.275  15.690  19.763  0.00  0.00    +0.000 A 
ATOM      4  C   UNL     1      -0.025  15.603  19.091  0.00  0.00    +0.000 A 
ATOM      5  C   UNL     1      -0.526  14.366  18.896  0.00  0.00    +0.000 A 
ATOM      6  N   UNL     1       0.212  13.234  19.234  0.00  0.00    +0.000 N 
ATOM      7  C   UNL     1      -0.073  11.878  19.041  0.00  0.00    +0.000 A 
ATOM      8  C   UNL     1       1.061  11.238  19.553  0.00  0.00    +0.000 A 
ATOM      9  N   UNL     1       1.964  12.130  20.073  0.00  0.00    +0.000 NA
ATOM     10  C   UNL     1       1.454  13.313  19.854  0.00  0.00    +0.000 A 
ENDROOT
BRANCH   4  11
ATOM     11  C   UNL     1      -0.720  16.777  18.658  0.00  0.00    +0.000 A 
ATOM     12  C   UNL     1      -1.828  17.419  19.251  0.00  0.00    +0.000 A 
ATOM     13  N   UNL     1      -2.209  18.511  18.580  0.00  0.00    +0.000 NA
ATOM     14  N   UNL     1      -1.335  18.574  17.559  0.00  0.00    +0.000 N 
ATOM     15  C   UNL     1      -0.420  17.564  17.568  0.00  0.00    +0.000 A 
ATOM     16  H   UNL     1      -1.425  19.337  16.896  0.00  0.00    +0.000 HD
ENDBRANCH   4  11
BRANCH   7  17
ATOM     17  C   UNL     1      -1.323  11.344  18.459  0.00  0.00    +0.000 A 
ATOM     18  C   UNL     1      -1.314  10.320  17.500  0.00  0.00    +0.000 A 
ATOM     19  C   UNL     1      -2.502   9.849  16.932  0.00  0.00    +0.000 A 
ATOM     20  C   UNL     1      -3.729  10.326  17.381  0.00  0.00    +0.000 A 
ATOM     21  C   UNL     1      -3.765  11.293  18.381  0.00  0.00    +0.000 A 
ATOM     22  C   UNL     1      -2.574  11.822  18.884  0.00  0.00    +0.000 A 
ENDBRANCH   7  17
BRANCH   8  23
ATOM     23  C   UNL     1       1.316   9.811  19.603  0.00  0.00    +0.000 A 
ATOM     24  C   UNL     1       1.020   9.055  20.735  0.00  0.00    +0.000 A 
ATOM     25  C   UNL     1       1.413   7.724  20.817  0.00  0.00    +0.000 A 
ATOM     26  C   UNL     1       2.054   7.065  19.750  0.00  0.00    +0.000 A 
ATOM     27  C   UNL     1       2.249   7.822  18.579  0.00  0.00    +0.000 A 
ATOM     28  C   UNL     1       1.898   9.173  18.503  0.00  0.00    +0.000 A 
BRANCH  26  29
ATOM     29  C   UNL     1       2.471   5.558  19.865  0.00  0.00    +0.000 C 
ATOM     30  C   UNL     1       2.011   4.667  21.049  0.00  0.00    +0.000 C 
ATOM     31  C   UNL     1       0.939   4.082  20.110  0.00  0.00    +0.000 C 
ATOM     32  C   UNL     1       1.833   4.496  18.925  0.00  0.00    +0.000 C 
BRANCH  29  33
ATOM     33  N   UNL     1       3.928   5.453  19.761  0.00  0.00    +0.000 NA
ATOM     34  H   UNL     1       4.252   5.616  18.807  0.00  0.00    +0.000 HD
ATOM     35  H   UNL     1       4.266   4.518  19.985  0.00  0.00    +0.000 HD
ENDBRANCH  29  33
ENDBRANCH  26  29
ENDBRANCH   8  23
TORSDOF 5
ENDMDL
MODEL 2
REMARK VINA RESULT:      -8.4      0.345      1.118
REMARK  Name = 
REMARK  6 active torsions:
REMARK  status: ('A' for Active; 'I' for Inactive)
REMARK    1  A    between atoms: C_1  and  C_2
REMARK    2  A    between atoms: C_4  and  C_5
REMARK    3  A    between atoms: C_12  and  C_13
REMARK    4  A    between atoms: C_19  and  C_20
REMARK    5  A    between atoms: C_23  and  C_24
REMARK    6  A    between atoms: C_24  and  N_25
REMARK                            x       y       z     vdW  Elec       q    Type
REMARK                         _______ _______ _______ _____ _____    ______ ____
ROOT
ATOM      1  C   UNL     1       2.873  14.746  21.532  0.00  0.00    +0.000 C 
ATOM      2  C   UNL     1       1.649  14.578  20.666  0.00  0.00    +0.000 A 
ATOM      3  C   UNL     1       0.942  15.655  20.269  0.00  0.00    +0.000 A 
ATOM      4  C   UNL     1      -0.290  15.567  19.480  0.00  0.00    +0.000 A 
ATOM      5  C   UNL     1      -0.730  14.328  19.177  0.00  0.00    +0.000 A 
ATOM      6  N   UNL     1       0.013  13.202  19.521  0.00  0.00    +0.000 N 
ATOM      7  C   UNL     1      -0.208  11.850  19.233  0.00  0.00    +0.000 A 
ATOM      8  C   UNL     1       0.899  11.217  19.809  0.00  0.00    +0.000 A 
ATOM      9  N   UNL     1       1.722  12.105  20.453  0.00  0.00    +0.000 NA
ATOM     10  C   UNL     1       1.193  13.283  20.251  0.00  0.00    +0.000 A 
ENDROOT
BRANCH   4  11
ATOM     11  C   UNL     1      -0.985  16.742  19.049  0.00  0.00    +0.000 A 
ATOM     12  C   UNL     1      -0.710  17.579  17.947  0.00  0.00    +0.000 A 
ATOM     13  N   UNL     1      -1.584  18.584  17.834  0.00  0.00    +0.000 NA
ATOM     14  N   UNL     1      -2.428  18.385  18.863  0.00  0.00    +0.000 N 
ATOM     15  C   UNL     1      -2.117  17.290  19.612  0.00  0.00    +0.000 A 
ATOM     16  H   UNL     1      -3.195  19.037  18.988  0.00  0.00    +0.000 HD
ENDBRANCH   4  11
BRANCH   7  17
ATOM     17  C   UNL     1      -1.383  11.312  18.516  0.00  0.00    +0.000 A 
ATOM     18  C   UNL     1      -2.686  11.752  18.797  0.00  0.00    +0.000 A 
ATOM     19  C   UNL     1      -3.792  11.209  18.135  0.00  0.00    +0.000 A 
ATOM     20  C   UNL     1      -3.610  10.284  17.113  0.00  0.00    +0.000 A 
ATOM     21  C   UNL     1      -2.323   9.883  16.771  0.00  0.00    +0.000 A 
ATOM     22  C   UNL     1      -1.227  10.363  17.492  0.00  0.00    +0.000 A 
ENDBRANCH   7  17
BRANCH   8  23
ATOM     23  C   UNL     1       1.197   9.797  19.808  0.00  0.00    +0.000 A 
ATOM     24  C   UNL     1       0.930   8.994  20.914  0.00  0.00    +0.000 A 
ATOM     25  C   UNL     1       1.364   7.672  20.947  0.00  0.00    +0.000 A 
ATOM     26  C   UNL     1       2.017   7.072  19.854  0.00  0.00    +0.000 A 
ATOM     27  C   UNL     1       2.182   7.874  18.710  0.00  0.00    +0.000 A 
ATOM     28  C   UNL     1       1.791   9.216  18.683  0.00  0.00    +0.000 A 
BRANCH  26  29
ATOM     29  C   UNL     1       2.480   5.575  19.914  0.00  0.00    +0.000 C 
ATOM     30  C   UNL     1       2.069   4.634  21.078  0.00  0.00    +0.000 C 
ATOM     31  C   UNL     1       0.996   4.046  20.140  0.00  0.00    +0.000 C 
ATOM     32  C   UNL     1       1.855   4.523  18.953  0.00  0.00    +0.000 C 
BRANCH  29  33
ATOM     33  N   UNL     1       3.937   5.516  19.779  0.00  0.00    +0.000 NA
ATOM     34  H   UNL     1       4.289   6.238  19.150  0.00  0.00    +0.000 HD
ATOM     35  H   UNL     1       4.253   4.641  19.360  0.00  0.00    +0.000 HD
ENDBRANCH  29  33
ENDBRANCH  26  29
ENDBRANCH   8  23
TORSDOF 5
ENDMDL
MODEL 3
REMARK VINA RESULT:      -8.3      0.736      1.355
REMARK  Name = 
REMARK  6 active torsions:
REMARK  status: ('A' for Active; 'I' for Inactive)
REMARK    1  A    between atoms: C_1  and  C_2
REMARK    2  A    between atoms: C_4  and  C_5
REMARK    3  A    between atoms: C_12  and  C_13
REMARK    4  A    between atoms: C_19  and  C_20
REMARK    5  A    between atoms: C_23  and  C_24
REMARK    6  A    between atoms: C_24  and  N_25
REMARK                            x       y       z     vdW  Elec       q    Type
REMARK                         _______ _______ _______ _____ _____    ______ ____
ROOT
ATOM      1  C   UNL     1       3.416  14.828  20.475  0.00  0.00    +0.000 C 
ATOM      2  C   UNL     1       2.059  14.656  19.839  0.00  0.00    +0.000 A 
ATOM      3  C   UNL     1       1.313  15.732  19.521  0.00  0.00    +0.000 A 
ATOM      4  C   UNL     1      -0.038  15.642  18.960  0.00  0.00    +0.000 A 
ATOM      5  C   UNL     1      -0.545  14.404  18.791  0.00  0.00    +0.000 A 
ATOM      6  N   UNL     1       0.227  13.274  19.052  0.00  0.00    +0.000 N 
ATOM      7  C   UNL     1      -0.063  11.918  18.868  0.00  0.00    +0.000 A 
ATOM      8  C   UNL     1       1.114  11.282  19.274  0.00  0.00    +0.000 A 
ATOM      9  N   UNL     1       2.052  12.175  19.727  0.00  0.00    +0.000 NA
ATOM     10  C   UNL     1       1.516  13.356  19.567  0.00  0.00    +0.000 A 
ENDROOT
BRANCH   4  11
ATOM     11  C   UNL     1      -0.776  16.816  18.602  0.00  0.00    +0.000 A 
ATOM     12  C   UNL     1      -1.855  17.424  19.277  0.00  0.00    +0.000 A 
ATOM     13  N   UNL     1      -2.292  18.527  18.660  0.00  0.00    +0.000 NA
ATOM     14  N   UNL     1      -1.482  18.631  17.590  0.00  0.00    +0.000 N 
ATOM     15  C   UNL     1      -0.553  17.637  17.518  0.00  0.00    +0.000 A 
ATOM     16  H   UNL     1      -1.623  19.410  16.955  0.00  0.00    +0.000 HD
ENDBRANCH   4  11
BRANCH   7  17
ATOM     17  C   UNL     1      -1.354  11.381  18.386  0.00  0.00    +0.000 A 
ATOM     18  C   UNL     1      -2.581  11.885  18.842  0.00  0.00    +0.000 A 
ATOM     19  C   UNL     1      -3.795  11.344  18.405  0.00  0.00    +0.000 A 
ATOM     20  C   UNL     1      -3.806  10.350  17.432  0.00  0.00    +0.000 A 
ATOM     21  C   UNL     1      -2.603   9.881  16.916  0.00  0.00    +0.000 A 
ATOM     22  C   UNL     1      -1.391  10.364  17.417  0.00  0.00    +0.000 A 
ENDBRANCH   7  17
BRANCH   8  23
ATOM     23  C   UNL     1       1.383   9.856  19.284  0.00  0.00    +0.000 A 
ATOM     24  C   UNL     1       1.176   9.082  20.424  0.00  0.00    +0.000 A 
ATOM     25  C   UNL     1       1.584   7.753  20.457  0.00  0.00    +0.000 A 
ATOM     26  C   UNL     1       2.150   7.115  19.338  0.00  0.00    +0.000 A 
ATOM     27  C   UNL     1       2.253   7.889  18.166  0.00  0.00    +0.000 A 
ATOM     28  C   UNL     1       1.888   9.238  18.136  0.00  0.00    +0.000 A 
BRANCH  26  29
ATOM     29  C   UNL     1       2.585   5.610  19.400  0.00  0.00    +0.000 C 
ATOM     30  C   UNL     1       2.455   4.666  18.175  0.00  0.00    +0.000 C 
ATOM     31  C   UNL     1       3.962   4.875  17.933  0.00  0.00    +0.000 C 
ATOM     32  C   UNL     1       4.095   5.233  19.426  0.00  0.00    +0.000 C 
BRANCH  29  33
ATOM     33  N   UNL     1       1.928   4.966  20.539  0.00  0.00    +0.000 NA
ATOM     34  H   UNL     1       0.920   5.122  20.534  0.00  0.00    +0.000 HD
ATOM     35  H   UNL     1       2.237   5.348  21.432  0.00  0.00    +0.000 HD
ENDBRANCH  29  33
ENDBRANCH  26  29
ENDBRANCH   8  23
TORSDOF 5
ENDMDL
MODEL 4
REMARK VINA RESULT:      -7.7      0.987      1.465
REMARK  Name = 
REMARK  6 active torsions:
REMARK  status: ('A' for Active; 'I' for Inactive)
REMARK    1  A    between atoms: C_1  and  C_2
REMARK    2  A    between atoms: C_4  and  C_5
REMARK    3  A    between atoms: C_12  and  C_13
REMARK    4  A    between atoms: C_19  and  C_20
REMARK    5  A    between atoms: C_23  and  C_24
REMARK    6  A    between atoms: C_24  and  N_25
REMARK                            x       y       z     vdW  Elec       q    Type
REMARK                         _______ _______ _______ _____ _____    ______ ____
ROOT
ATOM      1  C   UNL     1       3.174  14.753  20.938  0.00  0.00    +0.000 C 
ATOM      2  C   UNL     1       1.839  14.589  20.256  0.00  0.00    +0.000 A 
ATOM      3  C   UNL     1       1.036  15.655  20.063  0.00  0.00    +0.000 A 
ATOM      4  C   UNL     1      -0.299  15.564  19.465  0.00  0.00    +0.000 A 
ATOM      5  C   UNL     1      -0.731  14.331  19.127  0.00  0.00    +0.000 A 
ATOM      6  N   UNL     1       0.101  13.222  19.256  0.00  0.00    +0.000 N 
ATOM      7  C   UNL     1      -0.107  11.888  18.891  0.00  0.00    +0.000 A 
ATOM      8  C   UNL     1       1.100  11.271  19.237  0.00  0.00    +0.000 A 
ATOM      9  N   UNL     1       1.977  12.148  19.822  0.00  0.00    +0.000 NA
ATOM     10  C   UNL     1       1.376  13.308  19.805  0.00  0.00    +0.000 A 
ENDROOT
BRANCH   4  11
ATOM     11  C   UNL     1      -1.099  16.731  19.246  0.00  0.00    +0.000 A 
ATOM     12  C   UNL     1      -1.052  17.648  18.176  0.00  0.00    +0.000 A 
ATOM     13  N   UNL     1      -1.966  18.617  18.288  0.00  0.00    +0.000 NA
ATOM     14  N   UNL     1      -2.608  18.314  19.431  0.00  0.00    +0.000 N 
ATOM     15  C   UNL     1      -2.132  17.189  20.035  0.00  0.00    +0.000 A 
ATOM     16  H   UNL     1      -3.362  18.921  19.734  0.00  0.00    +0.000 HD
ENDBRANCH   4  11
BRANCH   7  17
ATOM     17  C   UNL     1      -1.357  11.347  18.316  0.00  0.00    +0.000 A 
ATOM     18  C   UNL     1      -1.349  10.299  17.383  0.00  0.00    +0.000 A 
ATOM     19  C   UNL     1      -2.537   9.821  16.820  0.00  0.00    +0.000 A 
ATOM     20  C   UNL     1      -3.763  10.317  17.250  0.00  0.00    +0.000 A 
ATOM     21  C   UNL     1      -3.798  11.309  18.224  0.00  0.00    +0.000 A 
ATOM     22  C   UNL     1      -2.607  11.844  18.721  0.00  0.00    +0.000 A 
ENDBRANCH   7  17
BRANCH   8  23
ATOM     23  C   UNL     1       1.451   9.873  19.069  0.00  0.00    +0.000 A 
ATOM     24  C   UNL     1       1.315   8.955  20.108  0.00  0.00    +0.000 A 
ATOM     25  C   UNL     1       1.801   7.659  19.972  0.00  0.00    +0.000 A 
ATOM     26  C   UNL     1       2.377   7.197  18.774  0.00  0.00    +0.000 A 
ATOM     27  C   UNL     1       2.408   8.113  17.705  0.00  0.00    +0.000 A 
ATOM     28  C   UNL     1       1.964   9.431  17.846  0.00  0.00    +0.000 A 
BRANCH  26  29
ATOM     29  C   UNL     1       2.900   5.725  18.645  0.00  0.00    +0.000 C 
ATOM     30  C   UNL     1       4.188   5.378  17.852  0.00  0.00    +0.000 C 
ATOM     31  C   UNL     1       4.924   5.299  19.204  0.00  0.00    +0.000 C 
ATOM     32  C   UNL     1       3.560   5.019  19.864  0.00  0.00    +0.000 C 
BRANCH  29  33
ATOM     33  N   UNL     1       1.820   4.872  18.146  0.00  0.00    +0.000 NA
ATOM     34  H   UNL     1       1.429   5.226  17.273  0.00  0.00    +0.000 HD
ATOM     35  H   UNL     1       1.024   4.841  18.784  0.00  0.00    +0.000 HD
ENDBRANCH  29  33
ENDBRANCH  26  29
ENDBRANCH   8  23
TORSDOF 5
ENDMDL
MODEL 5
REMARK VINA RESULT:      -7.5      2.971      3.431
REMARK  Name = 
REMARK  6 active torsions:
REMARK  status: ('A' for Active; 'I' for Inactive)
REMARK    1  A    between atoms: C_1  and  C_2
REMARK    2  A    between atoms: C_4  and  C_5
REMARK    3  A    between atoms: C_12  and  C_13
REMARK    4  A    between atoms: C_19  and  C_20
REMARK    5  A    between atoms: C_23  and  C_24
REMARK    6  A    between atoms: C_24  and  N_25
REMARK                            x       y       z     vdW  Elec       q    Type
REMARK                         _______ _______ _______ _____ _____    ______ ____
ROOT
ATOM      1  C   UNL     1      -1.211  13.434  23.506  0.00  0.00    +0.000 C 
ATOM      2  C   UNL     1      -1.965  13.295  22.207  0.00  0.00    +0.000 A 
ATOM      3  C   UNL     1      -3.043  14.066  21.958  0.00  0.00    +0.000 A 
ATOM      4  C   UNL     1      -3.862  13.944  20.748  0.00  0.00    +0.000 A 
ATOM      5  C   UNL     1      -3.510  12.983  19.870  0.00  0.00    +0.000 A 
ATOM      6  N   UNL     1      -2.365  12.215  20.072  0.00  0.00    +0.000 N 
ATOM      7  C   UNL     1      -1.776  11.240  19.260  0.00  0.00    +0.000 A 
ATOM      8  C   UNL     1      -0.638  10.868  19.984  0.00  0.00    +0.000 A 
ATOM      9  N   UNL     1      -0.553  11.528  21.183  0.00  0.00    +0.000 NA
ATOM     10  C   UNL     1      -1.575  12.341  21.209  0.00  0.00    +0.000 A 
ENDROOT
BRANCH   4  11
ATOM     11  C   UNL     1      -4.975  14.813  20.511  0.00  0.00    +0.000 A 
ATOM     12  C   UNL     1      -6.323  14.478  20.263  0.00  0.00    +0.000 A 
ATOM     13  N   UNL     1      -7.099  15.554  20.104  0.00  0.00    +0.000 NA
ATOM     14  N   UNL     1      -6.247  16.584  20.260  0.00  0.00    +0.000 N 
ATOM     15  C   UNL     1      -4.967  16.191  20.515  0.00  0.00    +0.000 A 
ATOM     16  H   UNL     1      -6.613  17.527  20.181  0.00  0.00    +0.000 HD
ENDBRANCH   4  11
BRANCH   7  17
ATOM     17  C   UNL     1      -2.323  10.757  17.974  0.00  0.00    +0.000 A 
ATOM     18  C   UNL     1      -3.080   9.579  17.888  0.00  0.00    +0.000 A 
ATOM     19  C   UNL     1      -3.561   9.115  16.660  0.00  0.00    +0.000 A 
ATOM     20  C   UNL     1      -3.375   9.869  15.507  0.00  0.00    +0.000 A 
ATOM     21  C   UNL     1      -2.686  11.075  15.579  0.00  0.00    +0.000 A 
ATOM     22  C   UNL     1      -2.133  11.492  16.792  0.00  0.00    +0.000 A 
ENDBRANCH   7  17
BRANCH   8  23
ATOM     23  C   UNL     1       0.361   9.887  19.605  0.00  0.00    +0.000 A 
ATOM     24  C   UNL     1       0.817   9.776  18.293  0.00  0.00    +0.000 A 
ATOM     25  C   UNL     1       1.658   8.731  17.925  0.00  0.00    +0.000 A 
ATOM     26  C   UNL     1       2.140   7.793  18.857  0.00  0.00    +0.000 A 
ATOM     27  C   UNL     1       1.748   7.988  20.195  0.00  0.00    +0.000 A 
ATOM     28  C   UNL     1       0.867   9.007  20.568  0.00  0.00    +0.000 A 
BRANCH  26  29
ATOM     29  C   UNL     1       3.100   6.635  18.415  0.00  0.00    +0.000 C 
ATOM     30  C   UNL     1       3.797   5.708  19.445  0.00  0.00    +0.000 C 
ATOM     31  C   UNL     1       2.720   4.653  19.131  0.00  0.00    +0.000 C 
ATOM     32  C   UNL     1       2.522   5.344  17.768  0.00  0.00    +0.000 C 
BRANCH  29  33
ATOM     33  N   UNL     1       4.130   7.177  17.526  0.00  0.00    +0.000 NA
ATOM     34  H   UNL     1       4.715   7.866  17.999  0.00  0.00    +0.000 HD
ATOM     35  H   UNL     1       3.732   7.685  16.736  0.00  0.00    +0.000 HD
ENDBRANCH  29  33
ENDBRANCH  26  29
ENDBRANCH   8  23
TORSDOF 5
ENDMDL
MODEL 6
REMARK VINA RESULT:      -7.5      2.854      6.936
REMARK  Name = 
REMARK  6 active torsions:
REMARK  status: ('A' for Active; 'I' for Inactive)
REMARK    1  A    between atoms: C_1  and  C_2
REMARK    2  A    between atoms: C_4  and  C_5
REMARK    3  A    between atoms: C_12  and  C_13
REMARK    4  A    between atoms: C_19  and  C_20
REMARK    5  A    between atoms: C_23  and  C_24
REMARK    6  A    between atoms: C_24  and  N_25
REMARK                            x       y       z     vdW  Elec       q    Type
REMARK                         _______ _______ _______ _____ _____    ______ ____
ROOT
ATOM      1  C   UNL     1       1.098  16.966  18.614  0.00  0.00    +0.000 C 
ATOM      2  C   UNL     1       1.554  15.760  19.396  0.00  0.00    +0.000 A 
ATOM      3  C   UNL     1       2.801  15.709  19.906  0.00  0.00    +0.000 A 
ATOM      4  C   UNL     1       3.335  14.547  20.622  0.00  0.00    +0.000 A 
ATOM      5  C   UNL     1       2.523  13.476  20.734  0.00  0.00    +0.000 A 
ATOM      6  N   UNL     1       1.210  13.524  20.272  0.00  0.00    +0.000 N 
ATOM      7  C   UNL     1       0.184  12.576  20.362  0.00  0.00    +0.000 A 
ATOM      8  C   UNL     1      -0.899  13.219  19.753  0.00  0.00    +0.000 A 
ATOM      9  N   UNL     1      -0.557  14.458  19.273  0.00  0.00    +0.000 NA
ATOM     10  C   UNL     1       0.693  14.632  19.610  0.00  0.00    +0.000 A 
ENDROOT
BRANCH   4  11
ATOM     11  C   UNL     1       4.654  14.556  21.179  0.00  0.00    +0.000 A 
ATOM     12  C   UNL     1       5.082  14.114  22.449  0.00  0.00    +0.000 A 
ATOM     13  N   UNL     1       6.399  14.258  22.626  0.00  0.00    +0.000 NA
ATOM     14  N   UNL     1       6.818  14.786  21.462  0.00  0.00    +0.000 N 
ATOM     15  C   UNL     1       5.813  14.974  20.562  0.00  0.00    +0.000 A 
ATOM     16  H   UNL     1       7.806  14.990  21.355  0.00  0.00    +0.000 HD
ENDBRANCH   4  11
BRANCH   7  17
ATOM     17  C   UNL     1       0.321  11.225  20.948  0.00  0.00    +0.000 A 
ATOM     18  C   UNL     1      -0.170  10.921  22.227  0.00  0.00    +0.000 A 
ATOM     19  C   UNL     1      -0.002   9.649  22.784  0.00  0.00    +0.000 A 
ATOM     20  C   UNL     1       0.576   8.630  22.035  0.00  0.00    +0.000 A 
ATOM     21  C   UNL     1       1.009   8.890  20.739  0.00  0.00    +0.000 A 
ATOM     22  C   UNL     1       0.917  10.184  20.219  0.00  0.00    +0.000 A 
ENDBRANCH   7  17
BRANCH   8  23
ATOM     23  C   UNL     1      -2.241  12.699  19.573  0.00  0.00    +0.000 A 
ATOM     24  C   UNL     1      -2.560  11.852  18.514  0.00  0.00    +0.000 A 
ATOM     25  C   UNL     1      -3.882  11.491  18.274  0.00  0.00    +0.000 A 
ATOM     26  C   UNL     1      -4.934  11.895  19.118  0.00  0.00    +0.000 A 
ATOM     27  C   UNL     1      -4.571  12.665  20.240  0.00  0.00    +0.000 A 
ATOM     28  C   UNL     1      -3.252  13.070  20.465  0.00  0.00    +0.000 A 
BRANCH  26  29
ATOM     29  C   UNL     1      -6.412  11.459  18.832  0.00  0.00    +0.000 C 
ATOM     30  C   UNL     1      -6.896  10.001  19.056  0.00  0.00    +0.000 C 
ATOM     31  C   UNL     1      -7.514  10.477  20.385  0.00  0.00    +0.000 C 
ATOM     32  C   UNL     1      -7.557  11.898  19.790  0.00  0.00    +0.000 C 
BRANCH  29  33
ATOM     33  N   UNL     1      -6.774  11.850  17.468  0.00  0.00    +0.000 NA
ATOM     34  H   UNL     1      -6.932  12.855  17.392  0.00  0.00    +0.000 HD
ATOM     35  H   UNL     1      -7.654  11.433  17.166  0.00  0.00    +0.000 HD
ENDBRANCH  29  33
ENDBRANCH  26  29
ENDBRANCH   8  23
TORSDOF 5
ENDMDL
MODEL 7
REMARK VINA RESULT:      -7.4      0.770      1.347
REMARK  Name = 
REMARK  6 active torsions:
REMARK  status: ('A' for Active; 'I' for Inactive)
REMARK    1  A    between atoms: C_1  and  C_2
REMARK    2  A    between atoms: C_4  and  C_5
REMARK    3  A    between atoms: C_12  and  C_13
REMARK    4  A    between atoms: C_19  and  C_20
REMARK    5  A    between atoms: C_23  and  C_24
REMARK    6  A    between atoms: C_24  and  N_25
REMARK                            x       y       z     vdW  Elec       q    Type
REMARK                         _______ _______ _______ _____ _____    ______ ____
ROOT
ATOM      1  C   UNL     1       3.169  14.716  21.162  0.00  0.00    +0.000 C 
ATOM      2  C   UNL     1       1.891  14.531  20.383  0.00  0.00    +0.000 A 
ATOM      3  C   UNL     1       1.132  15.595  20.053  0.00  0.00    +0.000 A 
ATOM      4  C   UNL     1      -0.151  15.488  19.353  0.00  0.00    +0.000 A 
ATOM      5  C   UNL     1      -0.583  14.244  19.063  0.00  0.00    +0.000 A 
ATOM      6  N   UNL     1       0.209  13.131  19.335  0.00  0.00    +0.000 N 
ATOM      7  C   UNL     1      -0.000  11.779  19.043  0.00  0.00    +0.000 A 
ATOM      8  C   UNL     1       1.159  11.165  19.529  0.00  0.00    +0.000 A 
ATOM      9  N   UNL     1       2.006  12.064  20.126  0.00  0.00    +0.000 NA
ATOM     10  C   UNL     1       1.436  13.230  19.981  0.00  0.00    +0.000 A 
ENDROOT
BRANCH   4  11
ATOM     11  C   UNL     1      -0.902  16.652  18.991  0.00  0.00    +0.000 A 
ATOM     12  C   UNL     1      -2.024  17.218  19.632  0.00  0.00    +0.000 A 
ATOM     13  N   UNL     1      -2.461  18.325  19.023  0.00  0.00    +0.000 NA
ATOM     14  N   UNL     1      -1.609  18.474  17.992  0.00  0.00    +0.000 N 
ATOM     15  C   UNL     1      -0.654  17.504  17.937  0.00  0.00    +0.000 A 
ATOM     16  H   UNL     1      -1.742  19.264  17.370  0.00  0.00    +0.000 HD
ENDBRANCH   4  11
BRANCH   7  17
ATOM     17  C   UNL     1      -1.211  11.223  18.402  0.00  0.00    +0.000 A 
ATOM     18  C   UNL     1      -1.136  10.218  17.425  0.00  0.00    +0.000 A 
ATOM     19  C   UNL     1      -2.288   9.727  16.802  0.00  0.00    +0.000 A 
ATOM     20  C   UNL     1      -3.544  10.162  17.211  0.00  0.00    +0.000 A 
ATOM     21  C   UNL     1      -3.646  11.108  18.225  0.00  0.00    +0.000 A 
ATOM     22  C   UNL     1      -2.490  11.660  18.785  0.00  0.00    +0.000 A 
ENDBRANCH   7  17
BRANCH   8  23
ATOM     23  C   UNL     1       1.489   9.753  19.484  0.00  0.00    +0.000 A 
ATOM     24  C   UNL     1       2.035   9.166  18.344  0.00  0.00    +0.000 A 
ATOM     25  C   UNL     1       2.200   7.787  18.271  0.00  0.00    +0.000 A 
ATOM     26  C   UNL     1       1.898   6.938  19.353  0.00  0.00    +0.000 A 
ATOM     27  C   UNL     1       1.446   7.566  20.529  0.00  0.00    +0.000 A 
ATOM     28  C   UNL     1       1.234   8.946  20.597  0.00  0.00    +0.000 A 
BRANCH  26  29
ATOM     29  C   UNL     1       2.110   5.388  19.247  0.00  0.00    +0.000 C 
ATOM     30  C   UNL     1       1.808   4.605  17.942  0.00  0.00    +0.000 C 
ATOM     31  C   UNL     1       3.323   4.621  17.657  0.00  0.00    +0.000 C 
ATOM     32  C   UNL     1       3.548   4.799  19.171  0.00  0.00    +0.000 C 
BRANCH  29  33
ATOM     33  N   UNL     1       1.398   4.729  20.344  0.00  0.00    +0.000 NA
ATOM     34  H   UNL     1       0.800   3.974  20.008  0.00  0.00    +0.000 HD
ATOM     35  H   UNL     1       0.759   5.361  20.826  0.00  0.00    +0.000 HD
ENDBRANCH  29  33
ENDBRANCH  26  29
ENDBRANCH   8  23
TORSDOF 5
ENDMDL
MODEL 8
REMARK VINA RESULT:      -7.4      3.008      3.404
REMARK  Name = 
REMARK  6 active torsions:
REMARK  status: ('A' for Active; 'I' for Inactive)
REMARK    1  A    between atoms: C_1  and  C_2
REMARK    2  A    between atoms: C_4  and  C_5
REMARK    3  A    between atoms: C_12  and  C_13
REMARK    4  A    between atoms: C_19  and  C_20
REMARK    5  A    between atoms: C_23  and  C_24
REMARK    6  A    between atoms: C_24  and  N_25
REMARK                            x       y       z     vdW  Elec       q    Type
REMARK                         _______ _______ _______ _____ _____    ______ ____
ROOT
ATOM      1  C   UNL     1      -1.195  13.451  23.552  0.00  0.00    +0.000 C 
ATOM      2  C   UNL     1      -1.945  13.328  22.249  0.00  0.00    +0.000 A 
ATOM      3  C   UNL     1      -3.013  14.112  22.000  0.00  0.00    +0.000 A 
ATOM      4  C   UNL     1      -3.827  14.008  20.786  0.00  0.00    +0.000 A 
ATOM      5  C   UNL     1      -3.482  13.047  19.904  0.00  0.00    +0.000 A 
ATOM      6  N   UNL     1      -2.347  12.266  20.106  0.00  0.00    +0.000 N 
ATOM      7  C   UNL     1      -1.765  11.289  19.290  0.00  0.00    +0.000 A 
ATOM      8  C   UNL     1      -0.635  10.900  20.016  0.00  0.00    +0.000 A 
ATOM      9  N   UNL     1      -0.548  11.551  21.221  0.00  0.00    +0.000 NA
ATOM     10  C   UNL     1      -1.561  12.376  21.247  0.00  0.00    +0.000 A 
ENDROOT
BRANCH   4  11
ATOM     11  C   UNL     1      -4.929  14.890  20.550  0.00  0.00    +0.000 A 
ATOM     12  C   UNL     1      -5.121  16.211  21.008  0.00  0.00    +0.000 A 
ATOM     13  N   UNL     1      -6.267  16.745  20.574  0.00  0.00    +0.000 NA
ATOM     14  N   UNL     1      -6.808  15.765  19.828  0.00  0.00    +0.000 N 
ATOM     15  C   UNL     1      -6.041  14.640  19.775  0.00  0.00    +0.000 A 
ATOM     16  H   UNL     1      -7.704  15.938  19.383  0.00  0.00    +0.000 HD
ENDBRANCH   4  11
BRANCH   7  17
ATOM     17  C   UNL     1      -2.312  10.820  17.999  0.00  0.00    +0.000 A 
ATOM     18  C   UNL     1      -2.098  11.526  16.805  0.00  0.00    +0.000 A 
ATOM     19  C   UNL     1      -2.651  11.090  15.597  0.00  0.00    +0.000 A 
ATOM     20  C   UNL     1      -3.350   9.889  15.541  0.00  0.00    +0.000 A 
ATOM     21  C   UNL     1      -3.517   9.137  16.699  0.00  0.00    +0.000 A 
ATOM     22  C   UNL     1      -3.037   9.619  17.920  0.00  0.00    +0.000 A 
ENDBRANCH   7  17
BRANCH   8  23
ATOM     23  C   UNL     1       0.355   9.910  19.636  0.00  0.00    +0.000 A 
ATOM     24  C   UNL     1       0.857   9.839  18.338  0.00  0.00    +0.000 A 
ATOM     25  C   UNL     1       1.686   8.789  17.960  0.00  0.00    +0.000 A 
ATOM     26  C   UNL     1       2.111   7.804  18.871  0.00  0.00    +0.000 A 
ATOM     27  C   UNL     1       1.674   7.956  20.201  0.00  0.00    +0.000 A 
ATOM     28  C   UNL     1       0.804   8.982  20.581  0.00  0.00    +0.000 A 
BRANCH  26  29
ATOM     29  C   UNL     1       3.061   6.641  18.419  0.00  0.00    +0.000 C 
ATOM     30  C   UNL     1       3.832   5.766  19.442  0.00  0.00    +0.000 C 
ATOM     31  C   UNL     1       2.753   4.685  19.236  0.00  0.00    +0.000 C 
ATOM     32  C   UNL     1       2.464   5.317  17.861  0.00  0.00    +0.000 C 
BRANCH  29  33
ATOM     33  N   UNL     1       4.027   7.158  17.448  0.00  0.00    +0.000 NA
ATOM     34  H   UNL     1       4.729   6.459  17.201  0.00  0.00    +0.000 HD
ATOM     35  H   UNL     1       4.568   7.939  17.817  0.00  0.00    +0.000 HD
ENDBRANCH  29  33
ENDBRANCH  26  29
ENDBRANCH   8  23
TORSDOF 5
ENDMDL
MODEL 9
REMARK VINA RESULT:      -7.4      0.650      1.423
REMARK  Name = 
REMARK  6 active torsions:
REMARK  status: ('A' for Active; 'I' for Inactive)
REMARK    1  A    between atoms: C_1  and  C_2
REMARK    2  A    between atoms: C_4  and  C_5
REMARK    3  A    between atoms: C_12  and  C_13
REMARK    4  A    between atoms: C_19  and  C_20
REMARK    5  A    between atoms: C_23  and  C_24
REMARK    6  A    between atoms: C_24  and  N_25
REMARK                            x       y       z     vdW  Elec       q    Type
REMARK                         _______ _______ _______ _____ _____    ______ ____
ROOT
ATOM      1  C   UNL     1       3.159  14.551  21.332  0.00  0.00    +0.000 C 
ATOM      2  C   UNL     1       1.900  14.384  20.517  0.00  0.00    +0.000 A 
ATOM      3  C   UNL     1       1.173  15.460  20.158  0.00  0.00    +0.000 A 
ATOM      4  C   UNL     1      -0.092  15.373  19.421  0.00  0.00    +0.000 A 
ATOM      5  C   UNL     1      -0.539  14.135  19.128  0.00  0.00    +0.000 A 
ATOM      6  N   UNL     1       0.222  13.009  19.432  0.00  0.00    +0.000 N 
ATOM      7  C   UNL     1      -0.005  11.658  19.145  0.00  0.00    +0.000 A 
ATOM      8  C   UNL     1       1.127  11.026  19.669  0.00  0.00    +0.000 A 
ATOM      9  N   UNL     1       1.973  11.913  20.283  0.00  0.00    +0.000 NA
ATOM     10  C   UNL     1       1.432  13.089  20.113  0.00  0.00    +0.000 A 
ENDROOT
BRANCH   4  11
ATOM     11  C   UNL     1      -0.808  16.548  19.028  0.00  0.00    +0.000 A 
ATOM     12  C   UNL     1      -1.932  17.145  19.637  0.00  0.00    +0.000 A 
ATOM     13  N   UNL     1      -2.331  18.254  19.005  0.00  0.00    +0.000 NA
ATOM     14  N   UNL     1      -1.453  18.372  17.992  0.00  0.00    +0.000 N 
ATOM     15  C   UNL     1      -0.517  17.382  17.971  0.00  0.00    +0.000 A 
ATOM     16  H   UNL     1      -1.554  19.158  17.358  0.00  0.00    +0.000 HD
ENDBRANCH   4  11
BRANCH   7  17
ATOM     17  C   UNL     1      -1.209  11.121  18.474  0.00  0.00    +0.000 A 
ATOM     18  C   UNL     1      -2.496  11.586  18.780  0.00  0.00    +0.000 A 
ATOM     19  C   UNL     1      -3.628  11.043  18.163  0.00  0.00    +0.000 A 
ATOM     20  C   UNL     1      -3.488  10.092  17.159  0.00  0.00    +0.000 A 
ATOM     21  C   UNL     1      -2.217   9.664  16.791  0.00  0.00    +0.000 A 
ATOM     22  C   UNL     1      -1.094  10.146  17.469  0.00  0.00    +0.000 A 
ENDBRANCH   7  17
BRANCH   8  23
ATOM     23  C   UNL     1       1.430   9.607  19.645  0.00  0.00    +0.000 A 
ATOM     24  C   UNL     1       1.982   8.997  18.520  0.00  0.00    +0.000 A 
ATOM     25  C   UNL     1       2.121   7.614  18.465  0.00  0.00    +0.000 A 
ATOM     26  C   UNL     1       1.786   6.784  19.551  0.00  0.00    +0.000 A 
ATOM     27  C   UNL     1       1.328   7.434  20.713  0.00  0.00    +0.000 A 
ATOM     28  C   UNL     1       1.142   8.818  20.763  0.00  0.00    +0.000 A 
BRANCH  26  29
ATOM     29  C   UNL     1       1.969   5.229  19.466  0.00  0.00    +0.000 C 
ATOM     30  C   UNL     1       3.149   4.502  20.164  0.00  0.00    +0.000 C 
ATOM     31  C   UNL     1       2.165   4.114  21.284  0.00  0.00    +0.000 C 
ATOM     32  C   UNL     1       1.024   4.285  20.263  0.00  0.00    +0.000 C 
BRANCH  29  33
ATOM     33  N   UNL     1       1.954   4.819  18.060  0.00  0.00    +0.000 NA
ATOM     34  H   UNL     1       1.009   4.612  17.736  0.00  0.00    +0.000 HD
ATOM     35  H   UNL     1       2.470   3.954  17.903  0.00  0.00    +0.000 HD
ENDBRANCH  29  33
ENDBRANCH  26  29
ENDBRANCH   8  23
TORSDOF 5
ENDMDL
