MODEL 1
REMARK VINA RESULT:      -7.1      0.000      0.000
REMARK  Name = 
REMARK  6 active torsions:
REMARK  status: ('A' for Active; 'I' for Inactive)
REMARK    1  A    between atoms: C_1  and  S_2
REMARK    2  A    between atoms: S_2  and  N_5
REMARK    3  A    between atoms: N_5  and  C_6
REMARK    4  A    between atoms: N_13  and  C_14
REMARK    5  A    between atoms: C_19  and  C_20
REMARK    6  A    between atoms: C_20  and  N_21
REMARK                            x       y       z     vdW  Elec       q    Type
REMARK                         _______ _______ _______ _____ _____    ______ ____
ROOT
ATOM      1  C   UNL     1       0.399  11.385  20.084  0.00  0.00    +0.000 C 
ATOM      2  C   UNL     1       0.148  11.045  21.555  0.00  0.00    +0.000 C 
ATOM      3  C   UNL     1       0.965   9.830  22.009  0.00  0.00    +0.000 C 
ATOM      4  C   UNL     1       0.895   8.620  21.062  0.00  0.00    +0.000 C 
ATOM      5  N   UNL     1       1.034   8.981  19.654  0.00  0.00    +0.000 N 
ATOM      6  C   UNL     1       1.635   8.220  18.642  0.00  0.00    +0.000 C 
ATOM      7  O   UNL     1       1.483   8.564  17.464  0.00  0.00    +0.000 OA
ATOM      8  N   UNL     1       2.420   7.133  19.015  0.00  0.00    +0.000 N 
ATOM      9  C   UNL     1       0.185  10.118  19.234  0.00  0.00    +0.000 C 
ATOM     10  H   UNL     1       2.042   6.556  19.754  0.00  0.00    +0.000 HD
ENDROOT
BRANCH   8  11
ATOM     11  C   UNL     1       3.390   6.504  18.142  0.00  0.00    +0.000 A 
ATOM     12  C   UNL     1       4.484   7.249  17.662  0.00  0.00    +0.000 A 
ATOM     13  C   UNL     1       5.414   6.731  16.754  0.00  0.00    +0.000 A 
ATOM     14  C   UNL     1       5.320   5.418  16.334  0.00  0.00    +0.000 A 
ATOM     15  C   UNL     1       4.295   4.627  16.833  0.00  0.00    +0.000 A 
ATOM     16  C   UNL     1       3.313   5.145  17.723  0.00  0.00    +0.000 A 
BRANCH  16  17
ATOM     17  C   UNL     1       2.127   4.222  17.945  0.00  0.00    +0.000 C 
BRANCH  17  18
ATOM     18  N   UNL     1       2.303   3.575  19.240  0.00  0.00    +0.000 N 
ATOM     19  C   UNL     1       1.494   2.571  19.728  0.00  0.00    +0.000 A 
ATOM     20  C   UNL     1       1.281   2.916  21.047  0.00  0.00    +0.000 A 
ATOM     21  C   UNL     1       2.178   3.972  21.293  0.00  0.00    +0.000 A 
ATOM     22  N   UNL     1       2.910   4.280  20.219  0.00  0.00    +0.000 NA
ENDBRANCH  17  18
ENDBRANCH  16  17
ENDBRANCH   8  11
BRANCH   1  23
ATOM     23  N   UNL     1       1.766  11.927  19.952  0.00  0.00    +0.000 NA
ATOM     24  H   UNL     1       2.558  11.335  20.205  0.00  0.00    +0.000 HD
BRANCH  23  26
ATOM     25  C   UNL     1       0.593  14.327  19.617  0.00  0.00    +0.000 C 
ATOM     26  S   UNL     1       2.089  13.550  20.187  0.00  0.00    +0.000 S 
ATOM     27  O   UNL     1       3.139  13.854  19.244  0.00  0.00    +0.000 OA
ATOM     28  O   UNL     1       2.249  13.786  21.603  0.00  0.00    +0.000 OA
ENDBRANCH  23  26
ENDBRANCH   1  23
TORSDOF 5
ENDMDL
MODEL 2
REMARK VINA RESULT:      -7.0      1.347      1.705
REMARK  Name = 
REMARK  6 active torsions:
REMARK  status: ('A' for Active; 'I' for Inactive)
REMARK    1  A    between atoms: C_1  and  S_2
REMARK    2  A    between atoms: S_2  and  N_5
REMARK    3  A    between atoms: N_5  and  C_6
REMARK    4  A    between atoms: N_13  and  C_14
REMARK    5  A    between atoms: C_19  and  C_20
REMARK    6  A    between atoms: C_20  and  N_21
REMARK                            x       y       z     vdW  Elec       q    Type
REMARK                         _______ _______ _______ _____ _____    ______ ____
ROOT
ATOM      1  C   UNL     1       0.302  11.168  20.347  0.00  0.00    +0.000 C 
ATOM      2  C   UNL     1       0.164  10.803  21.827  0.00  0.00    +0.000 C 
ATOM      3  C   UNL     1       1.088   9.644  22.219  0.00  0.00    +0.000 C 
ATOM      4  C   UNL     1       1.044   8.437  21.266  0.00  0.00    +0.000 C 
ATOM      5  N   UNL     1       1.073   8.815  19.856  0.00  0.00    +0.000 N 
ATOM      6  C   UNL     1       1.662   8.103  18.802  0.00  0.00    +0.000 C 
ATOM      7  O   UNL     1       1.416   8.442  17.639  0.00  0.00    +0.000 OA
ATOM      8  N   UNL     1       2.541   7.071  19.117  0.00  0.00    +0.000 N 
ATOM      9  C   UNL     1       0.124   9.893  19.499  0.00  0.00    +0.000 C 
ATOM     10  H   UNL     1       2.248   6.465  19.871  0.00  0.00    +0.000 HD
ENDROOT
BRANCH   8  11
ATOM     11  C   UNL     1       3.497   6.514  18.181  0.00  0.00    +0.000 A 
ATOM     12  C   UNL     1       4.621   7.271  17.800  0.00  0.00    +0.000 A 
ATOM     13  C   UNL     1       5.542   6.831  16.842  0.00  0.00    +0.000 A 
ATOM     14  C   UNL     1       5.406   5.581  16.269  0.00  0.00    +0.000 A 
ATOM     15  C   UNL     1       4.348   4.775  16.664  0.00  0.00    +0.000 A 
ATOM     16  C   UNL     1       3.377   5.219  17.604  0.00  0.00    +0.000 A 
BRANCH  16  17
ATOM     17  C   UNL     1       2.156   4.320  17.707  0.00  0.00    +0.000 C 
BRANCH  17  18
ATOM     18  N   UNL     1       2.500   3.203  18.579  0.00  0.00    +0.000 N 
ATOM     19  C   UNL     1       3.237   3.317  19.739  0.00  0.00    +0.000 A 
ATOM     20  C   UNL     1       4.114   2.252  19.691  0.00  0.00    +0.000 A 
ATOM     21  C   UNL     1       3.661   1.460  18.619  0.00  0.00    +0.000 A 
ATOM     22  N   UNL     1       2.579   1.973  18.028  0.00  0.00    +0.000 NA
ENDBRANCH  17  18
ENDBRANCH  16  17
ENDBRANCH   8  11
BRANCH   1  23
ATOM     23  N   UNL     1       1.618  11.803  20.138  0.00  0.00    +0.000 NA
ATOM     24  H   UNL     1       2.134  12.149  20.948  0.00  0.00    +0.000 HD
BRANCH  23  26
ATOM     25  C   UNL     1       3.001  13.979  19.364  0.00  0.00    +0.000 C 
ATOM     26  S   UNL     1       1.957  12.676  18.753  0.00  0.00    +0.000 S 
ATOM     27  O   UNL     1       0.693  13.256  18.369  0.00  0.00    +0.000 OA
ATOM     28  O   UNL     1       2.710  11.833  17.852  0.00  0.00    +0.000 OA
ENDBRANCH  23  26
ENDBRANCH   1  23
TORSDOF 5
ENDMDL
MODEL 3
REMARK VINA RESULT:      -7.0      0.809      1.027
REMARK  Name = 
REMARK  6 active torsions:
REMARK  status: ('A' for Active; 'I' for Inactive)
REMARK    1  A    between atoms: C_1  and  S_2
REMARK    2  A    between atoms: S_2  and  N_5
REMARK    3  A    between atoms: N_5  and  C_6
REMARK    4  A    between atoms: N_13  and  C_14
REMARK    5  A    between atoms: C_19  and  C_20
REMARK    6  A    between atoms: C_20  and  N_21
REMARK                            x       y       z     vdW  Elec       q    Type
REMARK                         _______ _______ _______ _____ _____    ______ ____
ROOT
ATOM      1  C   UNL     1       0.389  11.376  20.072  0.00  0.00    +0.000 C 
ATOM      2  C   UNL     1       0.124  11.031  21.540  0.00  0.00    +0.000 C 
ATOM      3  C   UNL     1       0.942   9.818  21.999  0.00  0.00    +0.000 C 
ATOM      4  C   UNL     1       0.887   8.610  21.048  0.00  0.00    +0.000 C 
ATOM      5  N   UNL     1       1.040   8.975  19.643  0.00  0.00    +0.000 N 
ATOM      6  C   UNL     1       1.655   8.220  18.635  0.00  0.00    +0.000 C 
ATOM      7  O   UNL     1       1.513   8.566  17.457  0.00  0.00    +0.000 OA
ATOM      8  N   UNL     1       2.441   7.136  19.014  0.00  0.00    +0.000 N 
ATOM      9  C   UNL     1       0.189  10.109  19.217  0.00  0.00    +0.000 C 
ATOM     10  H   UNL     1       2.058   6.555  19.747  0.00  0.00    +0.000 HD
ENDROOT
BRANCH   8  11
ATOM     11  C   UNL     1       3.422   6.513  18.149  0.00  0.00    +0.000 A 
ATOM     12  C   UNL     1       4.526   7.260  17.696  0.00  0.00    +0.000 A 
ATOM     13  C   UNL     1       5.469   6.750  16.796  0.00  0.00    +0.000 A 
ATOM     14  C   UNL     1       5.378   5.441  16.360  0.00  0.00    +0.000 A 
ATOM     15  C   UNL     1       4.342   4.648  16.834  0.00  0.00    +0.000 A 
ATOM     16  C   UNL     1       3.348   5.160  17.714  0.00  0.00    +0.000 A 
BRANCH  16  17
ATOM     17  C   UNL     1       2.156   4.238  17.906  0.00  0.00    +0.000 C 
BRANCH  17  18
ATOM     18  N   UNL     1       2.298   3.593  19.206  0.00  0.00    +0.000 N 
ATOM     19  C   UNL     1       1.447   2.623  19.694  0.00  0.00    +0.000 A 
ATOM     20  C   UNL     1       1.238   2.984  21.010  0.00  0.00    +0.000 A 
ATOM     21  C   UNL     1       2.173   4.007  21.257  0.00  0.00    +0.000 A 
ATOM     22  N   UNL     1       2.924   4.281  20.186  0.00  0.00    +0.000 NA
ENDBRANCH  17  18
ENDBRANCH  16  17
ENDBRANCH   8  11
BRANCH   1  23
ATOM     23  N   UNL     1       1.754  11.924  19.955  0.00  0.00    +0.000 NA
ATOM     24  H   UNL     1       2.458  11.647  20.641  0.00  0.00    +0.000 HD
BRANCH  23  26
ATOM     25  C   UNL     1       3.255  14.099  20.469  0.00  0.00    +0.000 C 
ATOM     26  S   UNL     1       2.031  13.458  19.349  0.00  0.00    +0.000 S 
ATOM     27  O   UNL     1       0.796  14.169  19.580  0.00  0.00    +0.000 OA
ATOM     28  O   UNL     1       2.600  13.333  18.027  0.00  0.00    +0.000 OA
ENDBRANCH  23  26
ENDBRANCH   1  23
TORSDOF 5
ENDMDL
MODEL 4
REMARK VINA RESULT:      -6.9      0.902      1.040
REMARK  Name = 
REMARK  6 active torsions:
REMARK  status: ('A' for Active; 'I' for Inactive)
REMARK    1  A    between atoms: C_1  and  S_2
REMARK    2  A    between atoms: S_2  and  N_5
REMARK    3  A    between atoms: N_5  and  C_6
REMARK    4  A    between atoms: N_13  and  C_14
REMARK    5  A    between atoms: C_19  and  C_20
REMARK    6  A    between atoms: C_20  and  N_21
REMARK                            x       y       z     vdW  Elec       q    Type
REMARK                         _______ _______ _______ _____ _____    ______ ____
ROOT
ATOM      1  C   UNL     1       0.504  11.637  19.700  0.00  0.00    +0.000 C 
ATOM      2  C   UNL     1       0.134  11.317  21.151  0.00  0.00    +0.000 C 
ATOM      3  C   UNL     1       0.895  10.096  21.679  0.00  0.00    +0.000 C 
ATOM      4  C   UNL     1       0.883   8.876  20.741  0.00  0.00    +0.000 C 
ATOM      5  N   UNL     1       1.138   9.220  19.345  0.00  0.00    +0.000 N 
ATOM      6  C   UNL     1       1.806   8.441  18.390  0.00  0.00    +0.000 C 
ATOM      7  O   UNL     1       1.751   8.774  17.201  0.00  0.00    +0.000 OA
ATOM      8  N   UNL     1       2.544   7.348  18.834  0.00  0.00    +0.000 N 
ATOM      9  C   UNL     1       0.339  10.364  18.849  0.00  0.00    +0.000 C 
ATOM     10  H   UNL     1       2.101   6.784  19.547  0.00  0.00    +0.000 HD
ENDROOT
BRANCH   8  11
ATOM     11  C   UNL     1       3.570   6.697  18.046  0.00  0.00    +0.000 A 
ATOM     12  C   UNL     1       4.698   7.429  17.629  0.00  0.00    +0.000 A 
ATOM     13  C   UNL     1       5.688   6.888  16.800  0.00  0.00    +0.000 A 
ATOM     14  C   UNL     1       5.619   5.566  16.404  0.00  0.00    +0.000 A 
ATOM     15  C   UNL     1       4.557   4.789  16.847  0.00  0.00    +0.000 A 
ATOM     16  C   UNL     1       3.518   5.330  17.654  0.00  0.00    +0.000 A 
BRANCH  16  17
ATOM     17  C   UNL     1       2.315   4.415  17.811  0.00  0.00    +0.000 C 
BRANCH  17  18
ATOM     18  N   UNL     1       2.283   3.958  19.195  0.00  0.00    +0.000 N 
ATOM     19  C   UNL     1       2.746   2.731  19.624  0.00  0.00    +0.000 A 
ATOM     20  C   UNL     1       1.777   2.289  20.501  0.00  0.00    +0.000 A 
ATOM     21  C   UNL     1       0.935   3.399  20.700  0.00  0.00    +0.000 A 
ATOM     22  N   UNL     1       1.332   4.470  20.007  0.00  0.00    +0.000 NA
ENDBRANCH  17  18
ENDBRANCH  16  17
ENDBRANCH   8  11
BRANCH   1  23
ATOM     23  N   UNL     1       1.884  12.160  19.671  0.00  0.00    +0.000 NA
ATOM     24  H   UNL     1       2.662  11.508  19.785  0.00  0.00    +0.000 HD
BRANCH  23  26
ATOM     25  C   UNL     1       3.493  14.239  19.089  0.00  0.00    +0.000 C 
ATOM     26  S   UNL     1       2.252  13.689  20.239  0.00  0.00    +0.000 S 
ATOM     27  O   UNL     1       2.891  13.460  21.513  0.00  0.00    +0.000 OA
ATOM     28  O   UNL     1       1.076  14.519  20.117  0.00  0.00    +0.000 OA
ENDBRANCH  23  26
ENDBRANCH   1  23
TORSDOF 5
ENDMDL
MODEL 5
REMARK VINA RESULT:      -6.9      3.616      8.241
REMARK  Name = 
REMARK  6 active torsions:
REMARK  status: ('A' for Active; 'I' for Inactive)
REMARK    1  A    between atoms: C_1  and  S_2
REMARK    2  A    between atoms: S_2  and  N_5
REMARK    3  A    between atoms: N_5  and  C_6
REMARK    4  A    between atoms: N_13  and  C_14
REMARK    5  A    between atoms: C_19  and  C_20
REMARK    6  A    between atoms: C_20  and  N_21
REMARK                            x       y       z     vdW  Elec       q    Type
REMARK                         _______ _______ _______ _____ _____    ______ ____
ROOT
ATOM      1  C   UNL     1       5.264   3.907  17.402  0.00  0.00    +0.000 C 
ATOM      2  C   UNL     1       6.528   4.685  17.029  0.00  0.00    +0.000 C 
ATOM      3  C   UNL     1       6.533   6.094  17.634  0.00  0.00    +0.000 C 
ATOM      4  C   UNL     1       5.226   6.882  17.435  0.00  0.00    +0.000 C 
ATOM      5  N   UNL     1       4.029   6.089  17.698  0.00  0.00    +0.000 N 
ATOM      6  C   UNL     1       2.815   6.543  18.230  0.00  0.00    +0.000 C 
ATOM      7  O   UNL     1       1.828   5.799  18.190  0.00  0.00    +0.000 OA
ATOM      8  N   UNL     1       2.788   7.800  18.826  0.00  0.00    +0.000 N 
ATOM      9  C   UNL     1       4.030   4.759  17.047  0.00  0.00    +0.000 C 
ATOM     10  H   UNL     1       3.283   8.528  18.330  0.00  0.00    +0.000 HD
ENDROOT
BRANCH   8  11
ATOM     11  C   UNL     1       1.748   8.237  19.736  0.00  0.00    +0.000 A 
ATOM     12  C   UNL     1       1.402   7.432  20.838  0.00  0.00    +0.000 A 
ATOM     13  C   UNL     1       0.356   7.751  21.711  0.00  0.00    +0.000 A 
ATOM     14  C   UNL     1      -0.350   8.928  21.550  0.00  0.00    +0.000 A 
ATOM     15  C   UNL     1       0.001   9.783  20.516  0.00  0.00    +0.000 A 
ATOM     16  C   UNL     1       1.032   9.458  19.591  0.00  0.00    +0.000 A 
BRANCH  16  17
ATOM     17  C   UNL     1       1.091  10.374  18.379  0.00  0.00    +0.000 C 
BRANCH  17  18
ATOM     18  N   UNL     1       0.851  11.736  18.841  0.00  0.00    +0.000 N 
ATOM     19  C   UNL     1      -0.292  12.461  18.575  0.00  0.00    +0.000 A 
ATOM     20  C   UNL     1       0.171  13.718  18.243  0.00  0.00    +0.000 A 
ATOM     21  C   UNL     1       1.540  13.696  18.571  0.00  0.00    +0.000 A 
ATOM     22  N   UNL     1       1.925  12.521  19.076  0.00  0.00    +0.000 NA
ENDBRANCH  17  18
ENDBRANCH  16  17
ENDBRANCH   8  11
BRANCH   1  23
ATOM     23  N   UNL     1       5.322   3.573  18.839  0.00  0.00    +0.000 NA
ATOM     24  H   UNL     1       6.217   3.637  19.325  0.00  0.00    +0.000 HD
BRANCH  23  26
ATOM     25  C   UNL     1       3.103   3.393  20.354  0.00  0.00    +0.000 C 
ATOM     26  S   UNL     1       4.321   2.412  19.507  0.00  0.00    +0.000 S 
ATOM     27  O   UNL     1       5.137   1.755  20.500  0.00  0.00    +0.000 OA
ATOM     28  O   UNL     1       3.692   1.677  18.434  0.00  0.00    +0.000 OA
ENDBRANCH  23  26
ENDBRANCH   1  23
TORSDOF 5
ENDMDL
MODEL 6
REMARK VINA RESULT:      -6.9      3.543      7.676
REMARK  Name = 
REMARK  6 active torsions:
REMARK  status: ('A' for Active; 'I' for Inactive)
REMARK    1  A    between atoms: C_1  and  S_2
REMARK    2  A    between atoms: S_2  and  N_5
REMARK    3  A    between atoms: N_5  and  C_6
REMARK    4  A    between atoms: N_13  and  C_14
REMARK    5  A    between atoms: C_19  and  C_20
REMARK    6  A    between atoms: C_20  and  N_21
REMARK                            x       y       z     vdW  Elec       q    Type
REMARK                         _______ _______ _______ _____ _____    ______ ____
ROOT
ATOM      1  C   UNL     1       5.050   4.888  18.368  0.00  0.00    +0.000 C 
ATOM      2  C   UNL     1       5.380   5.388  16.960  0.00  0.00    +0.000 C 
ATOM      3  C   UNL     1       4.883   6.820  16.729  0.00  0.00    +0.000 C 
ATOM      4  C   UNL     1       3.429   7.071  17.163  0.00  0.00    +0.000 C 
ATOM      5  N   UNL     1       3.107   6.496  18.466  0.00  0.00    +0.000 N 
ATOM      6  C   UNL     1       2.216   7.008  19.419  0.00  0.00    +0.000 C 
ATOM      7  O   UNL     1       1.890   6.297  20.376  0.00  0.00    +0.000 OA
ATOM      8  N   UNL     1       1.775   8.319  19.269  0.00  0.00    +0.000 N 
ATOM      9  C   UNL     1       3.545   5.092  18.632  0.00  0.00    +0.000 C 
ATOM     10  H   UNL     1       1.524   8.589  18.328  0.00  0.00    +0.000 HD
ENDROOT
BRANCH   8  11
ATOM     11  C   UNL     1       1.182   9.096  20.339  0.00  0.00    +0.000 A 
ATOM     12  C   UNL     1       1.165   8.580  21.648  0.00  0.00    +0.000 A 
ATOM     13  C   UNL     1       0.540   9.238  22.714  0.00  0.00    +0.000 A 
ATOM     14  C   UNL     1      -0.043  10.477  22.522  0.00  0.00    +0.000 A 
ATOM     15  C   UNL     1       0.009  11.052  21.260  0.00  0.00    +0.000 A 
ATOM     16  C   UNL     1       0.601  10.382  20.153  0.00  0.00    +0.000 A 
BRANCH  16  17
ATOM     17  C   UNL     1       0.325  11.038  18.811  0.00  0.00    +0.000 C 
BRANCH  17  18
ATOM     18  N   UNL     1      -1.031  10.679  18.412  0.00  0.00    +0.000 N 
ATOM     19  C   UNL     1      -1.342   9.700  17.491  0.00  0.00    +0.000 A 
ATOM     20  C   UNL     1      -2.331  10.267  16.713  0.00  0.00    +0.000 A 
ATOM     21  C   UNL     1      -2.690  11.448  17.389  0.00  0.00    +0.000 A 
ATOM     22  N   UNL     1      -1.990  11.625  18.512  0.00  0.00    +0.000 NA
ENDBRANCH  17  18
ENDBRANCH  16  17
ENDBRANCH   8  11
BRANCH   1  23
ATOM     23  N   UNL     1       5.894   5.615  19.337  0.00  0.00    +0.000 NA
ATOM     24  H   UNL     1       5.589   6.531  19.668  0.00  0.00    +0.000 HD
BRANCH  23  26
ATOM     25  C   UNL     1       8.079   7.028  18.645  0.00  0.00    +0.000 C 
ATOM     26  S   UNL     1       7.560   5.469  19.326  0.00  0.00    +0.000 S 
ATOM     27  O   UNL     1       7.829   4.441  18.349  0.00  0.00    +0.000 OA
ATOM     28  O   UNL     1       8.020   5.359  20.691  0.00  0.00    +0.000 OA
ENDBRANCH  23  26
ENDBRANCH   1  23
TORSDOF 5
ENDMDL
MODEL 7
REMARK VINA RESULT:      -6.8      3.717      8.214
REMARK  Name = 
REMARK  6 active torsions:
REMARK  status: ('A' for Active; 'I' for Inactive)
REMARK    1  A    between atoms: C_1  and  S_2
REMARK    2  A    between atoms: S_2  and  N_5
REMARK    3  A    between atoms: N_5  and  C_6
REMARK    4  A    between atoms: N_13  and  C_14
REMARK    5  A    between atoms: C_19  and  C_20
REMARK    6  A    between atoms: C_20  and  N_21
REMARK                            x       y       z     vdW  Elec       q    Type
REMARK                         _______ _______ _______ _____ _____    ______ ____
ROOT
ATOM      1  C   UNL     1       5.159   3.799  17.490  0.00  0.00    +0.000 C 
ATOM      2  C   UNL     1       6.384   4.561  16.980  0.00  0.00    +0.000 C 
ATOM      3  C   UNL     1       6.401   6.013  17.471  0.00  0.00    +0.000 C 
ATOM      4  C   UNL     1       5.071   6.766  17.294  0.00  0.00    +0.000 C 
ATOM      5  N   UNL     1       3.906   5.981  17.692  0.00  0.00    +0.000 N 
ATOM      6  C   UNL     1       2.719   6.460  18.263  0.00  0.00    +0.000 C 
ATOM      7  O   UNL     1       1.746   5.702  18.344  0.00  0.00    +0.000 OA
ATOM      8  N   UNL     1       2.707   7.759  18.761  0.00  0.00    +0.000 N 
ATOM      9  C   UNL     1       3.890   4.604  17.148  0.00  0.00    +0.000 C 
ATOM     10  H   UNL     1       3.158   8.452  18.179  0.00  0.00    +0.000 HD
ENDROOT
BRANCH   8  11
ATOM     11  C   UNL     1       1.717   8.253  19.697  0.00  0.00    +0.000 A 
ATOM     12  C   UNL     1       1.364   7.472  20.814  0.00  0.00    +0.000 A 
ATOM     13  C   UNL     1       0.361   7.849  21.715  0.00  0.00    +0.000 A 
ATOM     14  C   UNL     1      -0.289   9.059  21.567  0.00  0.00    +0.000 A 
ATOM     15  C   UNL     1       0.074   9.890  20.516  0.00  0.00    +0.000 A 
ATOM     16  C   UNL     1       1.060   9.508  19.564  0.00  0.00    +0.000 A 
BRANCH  16  17
ATOM     17  C   UNL     1       1.128  10.413  18.345  0.00  0.00    +0.000 C 
BRANCH  17  18
ATOM     18  N   UNL     1       1.795  11.646  18.745  0.00  0.00    +0.000 N 
ATOM     19  C   UNL     1       1.259  12.579  19.608  0.00  0.00    +0.000 A 
ATOM     20  C   UNL     1       1.540  13.793  19.015  0.00  0.00    +0.000 A 
ATOM     21  C   UNL     1       2.429  13.486  17.967  0.00  0.00    +0.000 A 
ATOM     22  N   UNL     1       2.698  12.180  17.894  0.00  0.00    +0.000 NA
ENDBRANCH  17  18
ENDBRANCH  16  17
ENDBRANCH   8  11
BRANCH   1  23
ATOM     23  N   UNL     1       5.311   3.580  18.942  0.00  0.00    +0.000 NA
ATOM     24  H   UNL     1       6.245   3.617  19.352  0.00  0.00    +0.000 HD
BRANCH  23  26
ATOM     25  C   UNL     1       3.533   1.612  18.478  0.00  0.00    +0.000 C 
ATOM     26  S   UNL     1       4.293   2.553  19.782  0.00  0.00    +0.000 S 
ATOM     27  O   UNL     1       3.290   3.420  20.353  0.00  0.00    +0.000 OA
ATOM     28  O   UNL     1       5.099   1.679  20.604  0.00  0.00    +0.000 OA
ENDBRANCH  23  26
ENDBRANCH   1  23
TORSDOF 5
ENDMDL
MODEL 8
REMARK VINA RESULT:      -6.6      2.836      4.295
REMARK  Name = 
REMARK  6 active torsions:
REMARK  status: ('A' for Active; 'I' for Inactive)
REMARK    1  A    between atoms: C_1  and  S_2
REMARK    2  A    between atoms: S_2  and  N_5
REMARK    3  A    between atoms: N_5  and  C_6
REMARK    4  A    between atoms: N_13  and  C_14
REMARK    5  A    between atoms: C_19  and  C_20
REMARK    6  A    between atoms: C_20  and  N_21
REMARK                            x       y       z     vdW  Elec       q    Type
REMARK                         _______ _______ _______ _____ _____    ______ ____
ROOT
ATOM      1  C   UNL     1      -0.199  10.707  19.743  0.00  0.00    +0.000 C 
ATOM      2  C   UNL     1       0.566  11.776  18.959  0.00  0.00    +0.000 C 
ATOM      3  C   UNL     1       1.545  11.158  17.954  0.00  0.00    +0.000 C 
ATOM      4  C   UNL     1       2.433  10.040  18.529  0.00  0.00    +0.000 C 
ATOM      5  N   UNL     1       1.699   9.089  19.358  0.00  0.00    +0.000 N 
ATOM      6  C   UNL     1       1.953   7.718  19.498  0.00  0.00    +0.000 C 
ATOM      7  O   UNL     1       1.383   7.093  20.399  0.00  0.00    +0.000 OA
ATOM      8  N   UNL     1       2.803   7.110  18.580  0.00  0.00    +0.000 N 
ATOM      9  C   UNL     1       0.811   9.720  20.360  0.00  0.00    +0.000 C 
ATOM     10  H   UNL     1       3.637   7.631  18.347  0.00  0.00    +0.000 HD
ENDROOT
BRANCH   8  11
ATOM     11  C   UNL     1       2.859   5.679  18.359  0.00  0.00    +0.000 A 
ATOM     12  C   UNL     1       1.732   5.008  17.846  0.00  0.00    +0.000 A 
ATOM     13  C   UNL     1       1.686   3.619  17.683  0.00  0.00    +0.000 A 
ATOM     14  C   UNL     1       2.796   2.847  17.971  0.00  0.00    +0.000 A 
ATOM     15  C   UNL     1       3.951   3.475  18.416  0.00  0.00    +0.000 A 
ATOM     16  C   UNL     1       4.005   4.881  18.631  0.00  0.00    +0.000 A 
BRANCH  16  17
ATOM     17  C   UNL     1       5.247   5.348  19.371  0.00  0.00    +0.000 C 
BRANCH  17  18
ATOM     18  N   UNL     1       6.299   5.561  18.384  0.00  0.00    +0.000 N 
ATOM     19  C   UNL     1       6.138   6.271  17.213  0.00  0.00    +0.000 A 
ATOM     20  C   UNL     1       6.776   5.503  16.259  0.00  0.00    +0.000 A 
ATOM     21  C   UNL     1       7.466   4.519  16.991  0.00  0.00    +0.000 A 
ATOM     22  N   UNL     1       7.288   4.644  18.309  0.00  0.00    +0.000 NA
ENDBRANCH  17  18
ENDBRANCH  16  17
ENDBRANCH   8  11
BRANCH   1  23
ATOM     23  N   UNL     1      -1.150  10.042  18.830  0.00  0.00    +0.000 NA
ATOM     24  H   UNL     1      -0.812   9.291  18.226  0.00  0.00    +0.000 HD
BRANCH  23  26
ATOM     25  C   UNL     1      -3.599   9.569  17.816  0.00  0.00    +0.000 C 
ATOM     26  S   UNL     1      -2.433  10.870  18.150  0.00  0.00    +0.000 S 
ATOM     27  O   UNL     1      -1.927  11.354  16.888  0.00  0.00    +0.000 OA
ATOM     28  O   UNL     1      -2.978  11.767  19.143  0.00  0.00    +0.000 OA
ENDBRANCH  23  26
ENDBRANCH   1  23
TORSDOF 5
ENDMDL
MODEL 9
REMARK VINA RESULT:      -6.6      3.448      7.863
REMARK  Name = 
REMARK  6 active torsions:
REMARK  status: ('A' for Active; 'I' for Inactive)
REMARK    1  A    between atoms: C_1  and  S_2
REMARK    2  A    between atoms: S_2  and  N_5
REMARK    3  A    between atoms: N_5  and  C_6
REMARK    4  A    between atoms: N_13  and  C_14
REMARK    5  A    between atoms: C_19  and  C_20
REMARK    6  A    between atoms: C_20  and  N_21
REMARK                            x       y       z     vdW  Elec       q    Type
REMARK                         _______ _______ _______ _____ _____    ______ ____
ROOT
ATOM      1  C   UNL     1       5.069   4.814  18.433  0.00  0.00    +0.000 C 
ATOM      2  C   UNL     1       5.391   5.331  17.028  0.00  0.00    +0.000 C 
ATOM      3  C   UNL     1       4.870   6.756  16.809  0.00  0.00    +0.000 C 
ATOM      4  C   UNL     1       3.412   6.980  17.245  0.00  0.00    +0.000 C 
ATOM      5  N   UNL     1       3.100   6.390  18.543  0.00  0.00    +0.000 N 
ATOM      6  C   UNL     1       2.201   6.879  19.500  0.00  0.00    +0.000 C 
ATOM      7  O   UNL     1       1.886   6.155  20.451  0.00  0.00    +0.000 OA
ATOM      8  N   UNL     1       1.738   8.184  19.360  0.00  0.00    +0.000 N 
ATOM      9  C   UNL     1       3.561   4.992  18.697  0.00  0.00    +0.000 C 
ATOM     10  H   UNL     1       1.483   8.457  18.421  0.00  0.00    +0.000 HD
ENDROOT
BRANCH   8  11
ATOM     11  C   UNL     1       1.133   8.943  20.436  0.00  0.00    +0.000 A 
ATOM     12  C   UNL     1       1.403   8.594  21.773  0.00  0.00    +0.000 A 
ATOM     13  C   UNL     1       0.792   9.230  22.860  0.00  0.00    +0.000 A 
ATOM     14  C   UNL     1      -0.072  10.288  22.653  0.00  0.00    +0.000 A 
ATOM     15  C   UNL     1      -0.316  10.708  21.352  0.00  0.00    +0.000 A 
ATOM     16  C   UNL     1       0.260  10.048  20.231  0.00  0.00    +0.000 A 
BRANCH  16  17
ATOM     17  C   UNL     1      -0.329  10.468  18.894  0.00  0.00    +0.000 C 
BRANCH  17  18
ATOM     18  N   UNL     1       0.272  11.744  18.525  0.00  0.00    +0.000 N 
ATOM     19  C   UNL     1       1.616  12.035  18.635  0.00  0.00    +0.000 A 
ATOM     20  C   UNL     1       1.646  13.309  19.165  0.00  0.00    +0.000 A 
ATOM     21  C   UNL     1       0.313  13.757  19.104  0.00  0.00    +0.000 A 
ATOM     22  N   UNL     1      -0.508  12.846  18.574  0.00  0.00    +0.000 NA
ENDBRANCH  17  18
ENDBRANCH  16  17
ENDBRANCH   8  11
BRANCH   1  23
ATOM     23  N   UNL     1       5.901   5.547  19.407  0.00  0.00    +0.000 NA
ATOM     24  H   UNL     1       5.577   6.452  19.752  0.00  0.00    +0.000 HD
BRANCH  23  26
ATOM     25  C   UNL     1       8.050   7.008  18.701  0.00  0.00    +0.000 C 
ATOM     26  S   UNL     1       7.569   5.438  19.387  0.00  0.00    +0.000 S 
ATOM     27  O   UNL     1       7.856   4.415  18.410  0.00  0.00    +0.000 OA
ATOM     28  O   UNL     1       8.039   5.340  20.750  0.00  0.00    +0.000 OA
ENDBRANCH  23  26
ENDBRANCH   1  23
TORSDOF 5
ENDMDL
