MODEL 1
REMARK VINA RESULT:      -5.3      0.000      0.000
REMARK  Name = 
REMARK  1 active torsions:
REMARK  status: ('A' for Active; 'I' for Inactive)
REMARK    1  A    between atoms: N_1  and  C_2
REMARK                            x       y       z     vdW  Elec       q    Type
REMARK                         _______ _______ _______ _____ _____    ______ ____
ROOT
ATOM      1  C   UNL     1       4.582   2.957  19.664  0.00  0.00    +0.000 A 
ATOM      2  N   UNL     1       5.494   3.883  19.261  0.00  0.00    +0.000 NA
ATOM      3  C   UNL     1       5.179   5.211  19.185  0.00  0.00    +0.000 A 
ATOM      4  N   UNL     1       3.927   5.633  19.512  0.00  0.00    +0.000 NA
ATOM      5  C   UNL     1       3.003   4.731  19.932  0.00  0.00    +0.000 A 
ATOM      6  C   UNL     1       3.303   3.400  20.021  0.00  0.00    +0.000 A 
ATOM      7  C   UNL     1       2.126   2.597  20.436  0.00  0.00    +0.000 C 
ATOM      8  C   UNL     1       1.054   3.664  20.736  0.00  0.00    +0.000 C 
ATOM      9  C   UNL     1       1.590   5.018  20.237  0.00  0.00    +0.000 C 
ENDROOT
BRANCH   1  10
ATOM     10  N   UNL     1       4.924   1.586  19.692  0.00  0.00    +0.000 N 
ATOM     11  H   UNL     1       4.413   0.917  19.098  0.00  0.00    +0.000 HD
ATOM     12  H   UNL     1       5.670   1.233  20.305  0.00  0.00    +0.000 HD
ENDBRANCH   1  10
TORSDOF 1
ENDMDL
MODEL 2
REMARK VINA RESULT:      -5.3      1.409      1.425
REMARK  Name = 
REMARK  1 active torsions:
REMARK  status: ('A' for Active; 'I' for Inactive)
REMARK    1  A    between atoms: N_1  and  C_2
REMARK                            x       y       z     vdW  Elec       q    Type
REMARK                         _______ _______ _______ _____ _____    ______ ____
ROOT
ATOM      1  C   UNL     1       4.604   2.982  19.499  0.00  0.00    +0.000 A 
ATOM      2  N   UNL     1       5.464   3.999  19.215  0.00  0.00    +0.000 NA
ATOM      3  C   UNL     1       5.061   5.102  18.515  0.00  0.00    +0.000 A 
ATOM      4  N   UNL     1       3.776   5.198  18.079  0.00  0.00    +0.000 NA
ATOM      5  C   UNL     1       2.894   4.204  18.361  0.00  0.00    +0.000 A 
ATOM      6  C   UNL     1       3.277   3.098  19.067  0.00  0.00    +0.000 A 
ATOM      7  C   UNL     1       2.171   2.118  19.197  0.00  0.00    +0.000 C 
ATOM      8  C   UNL     1       0.968   2.853  18.574  0.00  0.00    +0.000 C 
ATOM      9  C   UNL     1       1.501   4.123  17.888  0.00  0.00    +0.000 C 
ENDROOT
BRANCH   1  10
ATOM     10  N   UNL     1       5.060   1.836  20.188  0.00  0.00    +0.000 N 
ATOM     11  H   UNL     1       4.939   0.902  19.768  0.00  0.00    +0.000 HD
ATOM     12  H   UNL     1       5.502   1.907  21.112  0.00  0.00    +0.000 HD
ENDBRANCH   1  10
TORSDOF 1
ENDMDL
MODEL 3
REMARK VINA RESULT:      -5.3      2.141      2.909
REMARK  Name = 
REMARK  1 active torsions:
REMARK  status: ('A' for Active; 'I' for Inactive)
REMARK    1  A    between atoms: N_1  and  C_2
REMARK                            x       y       z     vdW  Elec       q    Type
REMARK                         _______ _______ _______ _____ _____    ______ ____
ROOT
ATOM      1  C   UNL     1       3.797   2.394  20.377  0.00  0.00    +0.000 A 
ATOM      2  N   UNL     1       3.104   2.461  21.547  0.00  0.00    +0.000 NA
ATOM      3  C   UNL     1       1.855   3.014  21.608  0.00  0.00    +0.000 A 
ATOM      4  N   UNL     1       1.281   3.521  20.483  0.00  0.00    +0.000 NA
ATOM      5  C   UNL     1       1.946   3.454  19.300  0.00  0.00    +0.000 A 
ATOM      6  C   UNL     1       3.191   2.897  19.219  0.00  0.00    +0.000 A 
ATOM      7  C   UNL     1       3.750   2.993  17.848  0.00  0.00    +0.000 C 
ATOM      8  C   UNL     1       2.584   3.584  17.029  0.00  0.00    +0.000 C 
ATOM      9  C   UNL     1       1.496   4.032  18.021  0.00  0.00    +0.000 C 
ENDROOT
BRANCH   1  10
ATOM     10  N   UNL     1       5.103   1.855  20.354  0.00  0.00    +0.000 N 
ATOM     11  H   UNL     1       5.437   1.282  21.143  0.00  0.00    +0.000 HD
ATOM     12  H   UNL     1       5.740   2.030  19.567  0.00  0.00    +0.000 HD
ENDBRANCH   1  10
TORSDOF 1
ENDMDL
MODEL 4
REMARK VINA RESULT:      -5.2      1.913      2.204
REMARK  Name = 
REMARK  1 active torsions:
REMARK  status: ('A' for Active; 'I' for Inactive)
REMARK    1  A    between atoms: N_1  and  C_2
REMARK                            x       y       z     vdW  Elec       q    Type
REMARK                         _______ _______ _______ _____ _____    ______ ____
ROOT
ATOM      1  C   UNL     1       4.060   3.233  18.850  0.00  0.00    +0.000 A 
ATOM      2  N   UNL     1       3.888   3.488  17.524  0.00  0.00    +0.000 NA
ATOM      3  C   UNL     1       2.642   3.622  16.977  0.00  0.00    +0.000 A 
ATOM      4  N   UNL     1       1.538   3.494  17.762  0.00  0.00    +0.000 NA
ATOM      5  C   UNL     1       1.682   3.254  19.091  0.00  0.00    +0.000 A 
ATOM      6  C   UNL     1       2.920   3.125  19.656  0.00  0.00    +0.000 A 
ATOM      7  C   UNL     1       2.833   2.800  21.101  0.00  0.00    +0.000 C 
ATOM      8  C   UNL     1       1.322   2.883  21.397  0.00  0.00    +0.000 C 
ATOM      9  C   UNL     1       0.590   3.006  20.048  0.00  0.00    +0.000 C 
ENDROOT
BRANCH   1  10
ATOM     10  N   UNL     1       5.358   3.058  19.379  0.00  0.00    +0.000 N 
ATOM     11  H   UNL     1       5.482   2.616  20.303  0.00  0.00    +0.000 HD
ATOM     12  H   UNL     1       6.191   3.373  18.868  0.00  0.00    +0.000 HD
ENDBRANCH   1  10
TORSDOF 1
ENDMDL
MODEL 5
REMARK VINA RESULT:      -5.1      2.631      4.001
REMARK  Name = 
REMARK  1 active torsions:
REMARK  status: ('A' for Active; 'I' for Inactive)
REMARK    1  A    between atoms: N_1  and  C_2
REMARK                            x       y       z     vdW  Elec       q    Type
REMARK                         _______ _______ _______ _____ _____    ______ ____
ROOT
ATOM      1  C   UNL     1       6.994   5.361  16.872  0.00  0.00    +0.000 A 
ATOM      2  N   UNL     1       7.809   5.916  17.811  0.00  0.00    +0.000 NA
ATOM      3  C   UNL     1       7.548   5.795  19.147  0.00  0.00    +0.000 A 
ATOM      4  N   UNL     1       6.448   5.112  19.565  0.00  0.00    +0.000 NA
ATOM      5  C   UNL     1       5.626   4.536  18.651  0.00  0.00    +0.000 A 
ATOM      6  C   UNL     1       5.876   4.640  17.310  0.00  0.00    +0.000 A 
ATOM      7  C   UNL     1       4.814   3.993  16.501  0.00  0.00    +0.000 C 
ATOM      8  C   UNL     1       3.911   3.331  17.560  0.00  0.00    +0.000 C 
ATOM      9  C   UNL     1       4.359   3.841  18.941  0.00  0.00    +0.000 C 
ENDROOT
BRANCH   1  10
ATOM     10  N   UNL     1       7.266   5.539  15.498  0.00  0.00    +0.000 N 
ATOM     11  H   UNL     1       7.328   6.490  15.105  0.00  0.00    +0.000 HD
ATOM     12  H   UNL     1       7.392   4.736  14.869  0.00  0.00    +0.000 HD
ENDBRANCH   1  10
TORSDOF 1
ENDMDL
MODEL 6
REMARK VINA RESULT:      -5.0      2.810      3.861
REMARK  Name = 
REMARK  1 active torsions:
REMARK  status: ('A' for Active; 'I' for Inactive)
REMARK    1  A    between atoms: N_1  and  C_2
REMARK                            x       y       z     vdW  Elec       q    Type
REMARK                         _______ _______ _______ _____ _____    ______ ____
ROOT
ATOM      1  C   UNL     1       7.075   4.705  17.734  0.00  0.00    +0.000 A 
ATOM      2  N   UNL     1       7.598   4.725  16.477  0.00  0.00    +0.000 NA
ATOM      3  C   UNL     1       6.831   4.456  15.378  0.00  0.00    +0.000 A 
ATOM      4  N   UNL     1       5.513   4.152  15.528  0.00  0.00    +0.000 NA
ATOM      5  C   UNL     1       4.963   4.139  16.769  0.00  0.00    +0.000 A 
ATOM      6  C   UNL     1       5.713   4.414  17.878  0.00  0.00    +0.000 A 
ATOM      7  C   UNL     1       4.922   4.275  19.126  0.00  0.00    +0.000 C 
ATOM      8  C   UNL     1       3.494   4.002  18.615  0.00  0.00    +0.000 C 
ATOM      9  C   UNL     1       3.581   3.747  17.099  0.00  0.00    +0.000 C 
ENDROOT
BRANCH   1  10
ATOM     10  N   UNL     1       7.902   4.946  18.853  0.00  0.00    +0.000 N 
ATOM     11  H   UNL     1       8.061   5.912  19.177  0.00  0.00    +0.000 HD
ATOM     12  H   UNL     1       8.366   4.177  19.352  0.00  0.00    +0.000 HD
ENDBRANCH   1  10
TORSDOF 1
ENDMDL
MODEL 7
REMARK VINA RESULT:      -5.0      2.994      4.516
REMARK  Name = 
REMARK  1 active torsions:
REMARK  status: ('A' for Active; 'I' for Inactive)
REMARK    1  A    between atoms: N_1  and  C_2
REMARK                            x       y       z     vdW  Elec       q    Type
REMARK                         _______ _______ _______ _____ _____    ______ ____
ROOT
ATOM      1  C   UNL     1       5.458   4.658  18.829  0.00  0.00    +0.000 A 
ATOM      2  N   UNL     1       6.437   5.219  19.590  0.00  0.00    +0.000 NA
ATOM      3  C   UNL     1       7.586   5.705  19.032  0.00  0.00    +0.000 A 
ATOM      4  N   UNL     1       7.774   5.629  17.686  0.00  0.00    +0.000 NA
ATOM      5  C   UNL     1       6.806   5.087  16.903  0.00  0.00    +0.000 A 
ATOM      6  C   UNL     1       5.647   4.603  17.443  0.00  0.00    +0.000 A 
ATOM      7  C   UNL     1       4.769   3.999  16.410  0.00  0.00    +0.000 C 
ATOM      8  C   UNL     1       5.504   4.308  15.091  0.00  0.00    +0.000 C 
ATOM      9  C   UNL     1       6.897   4.856  15.450  0.00  0.00    +0.000 C 
ENDROOT
BRANCH   1  10
ATOM     10  N   UNL     1       4.300   4.126  19.438  0.00  0.00    +0.000 N 
ATOM     11  H   UNL     1       4.282   3.964  20.456  0.00  0.00    +0.000 HD
ATOM     12  H   UNL     1       3.468   3.881  18.886  0.00  0.00    +0.000 HD
ENDBRANCH   1  10
TORSDOF 1
ENDMDL
MODEL 8
REMARK VINA RESULT:      -5.0      1.179      1.449
REMARK  Name = 
REMARK  1 active torsions:
REMARK  status: ('A' for Active; 'I' for Inactive)
REMARK    1  A    between atoms: N_1  and  C_2
REMARK                            x       y       z     vdW  Elec       q    Type
REMARK                         _______ _______ _______ _____ _____    ______ ____
ROOT
ATOM      1  C   UNL     1       4.453   4.265  19.159  0.00  0.00    +0.000 A 
ATOM      2  N   UNL     1       4.507   5.434  18.463  0.00  0.00    +0.000 NA
ATOM      3  C   UNL     1       3.446   6.295  18.427  0.00  0.00    +0.000 A 
ATOM      4  N   UNL     1       2.299   5.989  19.093  0.00  0.00    +0.000 NA
ATOM      5  C   UNL     1       2.224   4.836  19.807  0.00  0.00    +0.000 A 
ATOM      6  C   UNL     1       3.278   3.967  19.861  0.00  0.00    +0.000 A 
ATOM      7  C   UNL     1       2.948   2.748  20.640  0.00  0.00    +0.000 C 
ATOM      8  C   UNL     1       1.543   3.052  21.198  0.00  0.00    +0.000 C 
ATOM      9  C   UNL     1       1.030   4.327  20.505  0.00  0.00    +0.000 C 
ENDROOT
BRANCH   1  10
ATOM     10  N   UNL     1       5.550   3.376  19.144  0.00  0.00    +0.000 N 
ATOM     11  H   UNL     1       6.379   3.571  19.725  0.00  0.00    +0.000 HD
ATOM     12  H   UNL     1       5.550   2.536  18.552  0.00  0.00    +0.000 HD
ENDBRANCH   1  10
TORSDOF 1
ENDMDL
MODEL 9
REMARK VINA RESULT:      -5.0      2.296      3.415
REMARK  Name = 
REMARK  1 active torsions:
REMARK  status: ('A' for Active; 'I' for Inactive)
REMARK    1  A    between atoms: N_1  and  C_2
REMARK                            x       y       z     vdW  Elec       q    Type
REMARK                         _______ _______ _______ _____ _____    ______ ____
ROOT
ATOM      1  C   UNL     1       3.043   1.987  18.452  0.00  0.00    +0.000 A 
ATOM      2  N   UNL     1       1.864   1.781  19.100  0.00  0.00    +0.000 NA
ATOM      3  C   UNL     1       0.999   2.808  19.355  0.00  0.00    +0.000 A 
ATOM      4  N   UNL     1       1.312   4.073  18.963  0.00  0.00    +0.000 NA
ATOM      5  C   UNL     1       2.475   4.304  18.302  0.00  0.00    +0.000 A 
ATOM      6  C   UNL     1       3.349   3.287  18.032  0.00  0.00    +0.000 A 
ATOM      7  C   UNL     1       4.578   3.781  17.364  0.00  0.00    +0.000 C 
ATOM      8  C   UNL     1       4.279   5.275  17.124  0.00  0.00    +0.000 C 
ATOM      9  C   UNL     1       2.991   5.622  17.893  0.00  0.00    +0.000 C 
ENDROOT
BRANCH   1  10
ATOM     10  N   UNL     1       3.936   0.913  18.239  0.00  0.00    +0.000 N 
ATOM     11  H   UNL     1       3.583  -0.056  18.236  0.00  0.00    +0.000 HD
ATOM     12  H   UNL     1       4.941   1.072  18.100  0.00  0.00    +0.000 HD
ENDBRANCH   1  10
TORSDOF 1
ENDMDL
