MODEL 1
REMARK VINA RESULT:      -7.2      0.000      0.000
REMARK  Name = 
REMARK  9 active torsions:
REMARK  status: ('A' for Active; 'I' for Inactive)
REMARK    1  A    between atoms: C_1  and  C_2
REMARK    2  A    between atoms: C_2  and  C_3
REMARK    3  A    between atoms: C_3  and  C_4
REMARK    4  A    between atoms: C_4  and  C_5
REMARK    5  A    between atoms: C_5  and  C_6
REMARK    6  A    between atoms: C_6  and  O_8
REMARK    7  A    between atoms: O_8  and  C_9
REMARK    8  A    between atoms: C_19  and  C_20
REMARK    9  A    between atoms: C_24  and  C_25
REMARK                            x       y       z     vdW  Elec       q    Type
REMARK                         _______ _______ _______ _____ _____    ______ ____
ROOT
ATOM      1  C   UNL     1       6.649   4.647  15.481  0.00  0.00    +0.000 C 
ATOM      2  C   UNL     1       5.426   4.610  16.040  0.00  0.00    +0.000 C 
ATOM      3  C   UNL     1       4.230   3.831  15.473  0.00  0.00    +0.000 C 
ATOM      4  C   UNL     1       3.273   3.142  16.500  0.00  0.00    +0.000 C 
ATOM      5  C   UNL     1       2.971   3.972  17.780  0.00  0.00    +0.000 C 
ATOM      6  C   UNL     1       2.181   3.204  18.888  0.00  0.00    +0.000 C 
ATOM      7  C   UNL     1       0.676   2.863  18.770  0.00  0.00    +0.000 C 
ATOM      8  C   UNL     1       0.255   2.444  20.206  0.00  0.00    +0.000 C 
ATOM      9  C   UNL     1       1.335   3.042  21.066  0.00  0.00    +0.000 C 
ATOM     10  O   UNL     1       1.482   2.824  22.258  0.00  0.00    +0.000 OA
ATOM     11  C   UNL     1       2.206   3.970  20.237  0.00  0.00    +0.000 C 
ATOM     12  C   UNL     1       1.523   5.350  20.223  0.00  0.00    +0.000 C 
ATOM     13  C   UNL     1       3.628   4.045  20.728  0.00  0.00    +0.000 C 
ATOM     14  C   UNL     1       4.423   4.915  19.783  0.00  0.00    +0.000 C 
ATOM     15  C   UNL     1       4.379   4.434  18.312  0.00  0.00    +0.000 C 
ATOM     16  C   UNL     1       5.112   5.411  17.306  0.00  0.00    +0.000 C 
ATOM     17  C   UNL     1       4.209   6.596  16.859  0.00  0.00    +0.000 C 
ATOM     18  C   UNL     1       6.361   6.000  18.025  0.00  0.00    +0.000 C 
ATOM     19  C   UNL     1       7.649   6.211  17.266  0.00  0.00    +0.000 C 
ATOM     20  C   UNL     1       7.857   5.339  16.057  0.00  0.00    +0.000 C 
ENDROOT
BRANCH   1  21
ATOM     21  O   UNL     1       6.923   3.900  14.302  0.00  0.00    +0.000 OA
BRANCH  21  22
ATOM     22  C   UNL     1       7.243   4.607  13.166  0.00  0.00    +0.000 C 
ATOM     23  O   UNL     1       7.701   5.740  13.097  0.00  0.00    +0.000 OA
BRANCH  22  24
ATOM     24  C   UNL     1       6.946   3.775  11.943  0.00  0.00    +0.000 C 
BRANCH  24  25
ATOM     25  C   UNL     1       5.647   2.997  12.093  0.00  0.00    +0.000 C 
BRANCH  25  26
ATOM     26  C   UNL     1       4.418   3.840  11.739  0.00  0.00    +0.000 C 
BRANCH  26  28
ATOM     27  C   UNL     1       2.996   4.049   9.681  0.00  0.00    +0.000 C 
ATOM     28  C   UNL     1       3.520   3.104  10.748  0.00  0.00    +0.000 C 
ENDBRANCH  26  28
ENDBRANCH  25  26
ENDBRANCH  24  25
ENDBRANCH  22  24
ENDBRANCH  21  22
ENDBRANCH   1  21
TORSDOF 6
ENDMDL
MODEL 2
REMARK VINA RESULT:      -7.1      6.115      8.955
REMARK  Name = 
REMARK  9 active torsions:
REMARK  status: ('A' for Active; 'I' for Inactive)
REMARK    1  A    between atoms: C_1  and  C_2
REMARK    2  A    between atoms: C_2  and  C_3
REMARK    3  A    between atoms: C_3  and  C_4
REMARK    4  A    between atoms: C_4  and  C_5
REMARK    5  A    between atoms: C_5  and  C_6
REMARK    6  A    between atoms: C_6  and  O_8
REMARK    7  A    between atoms: O_8  and  C_9
REMARK    8  A    between atoms: C_19  and  C_20
REMARK    9  A    between atoms: C_24  and  C_25
REMARK                            x       y       z     vdW  Elec       q    Type
REMARK                         _______ _______ _______ _____ _____    ______ ____
ROOT
ATOM      1  C   UNL     1       1.617   7.564  20.071  0.00  0.00    +0.000 C 
ATOM      2  C   UNL     1       0.893   8.666  20.339  0.00  0.00    +0.000 C 
ATOM      3  C   UNL     1       0.065   8.877  21.616  0.00  0.00    +0.000 C 
ATOM      4  C   UNL     1       0.039  10.320  22.221  0.00  0.00    +0.000 C 
ATOM      5  C   UNL     1      -0.052  11.470  21.178  0.00  0.00    +0.000 C 
ATOM      6  C   UNL     1       0.122  12.906  21.771  0.00  0.00    +0.000 C 
ATOM      7  C   UNL     1      -0.965  13.606  22.621  0.00  0.00    +0.000 C 
ATOM      8  C   UNL     1      -0.522  15.095  22.673  0.00  0.00    +0.000 C 
ATOM      9  C   UNL     1       0.416  15.214  21.503  0.00  0.00    +0.000 C 
ATOM     10  O   UNL     1       1.119  16.183  21.263  0.00  0.00    +0.000 OA
ATOM     11  C   UNL     1       0.348  13.957  20.652  0.00  0.00    +0.000 C 
ATOM     12  C   UNL     1      -0.823  14.132  19.668  0.00  0.00    +0.000 C 
ATOM     13  C   UNL     1       1.641  13.647  19.947  0.00  0.00    +0.000 C 
ATOM     14  C   UNL     1       1.492  12.337  19.210  0.00  0.00    +0.000 C 
ATOM     15  C   UNL     1       1.072  11.158  20.122  0.00  0.00    +0.000 C 
ATOM     16  C   UNL     1       0.800   9.814  19.332  0.00  0.00    +0.000 C 
ATOM     17  C   UNL     1      -0.634   9.753  18.733  0.00  0.00    +0.000 C 
ATOM     18  C   UNL     1       1.818   9.728  18.157  0.00  0.00    +0.000 C 
ATOM     19  C   UNL     1       2.433   8.403  17.776  0.00  0.00    +0.000 C 
ATOM     20  C   UNL     1       2.498   7.364  18.864  0.00  0.00    +0.000 C 
ENDROOT
BRANCH   1  21
ATOM     21  O   UNL     1       1.689   6.505  21.017  0.00  0.00    +0.000 OA
BRANCH  21  22
ATOM     22  C   UNL     1       2.109   5.277  20.559  0.00  0.00    +0.000 C 
ATOM     23  O   UNL     1       3.260   4.895  20.396  0.00  0.00    +0.000 OA
BRANCH  22  24
ATOM     24  C   UNL     1       0.914   4.404  20.264  0.00  0.00    +0.000 C 
BRANCH  24  25
ATOM     25  C   UNL     1       1.236   3.341  19.225  0.00  0.00    +0.000 C 
BRANCH  25  26
ATOM     26  C   UNL     1       1.486   3.939  17.837  0.00  0.00    +0.000 C 
BRANCH  26  28
ATOM     27  C   UNL     1       3.851   4.338  17.094  0.00  0.00    +0.000 C 
ATOM     28  C   UNL     1       2.726   3.323  17.194  0.00  0.00    +0.000 C 
ENDBRANCH  26  28
ENDBRANCH  25  26
ENDBRANCH  24  25
ENDBRANCH  22  24
ENDBRANCH  21  22
ENDBRANCH   1  21
TORSDOF 6
ENDMDL
MODEL 3
REMARK VINA RESULT:      -7.1      6.368      9.266
REMARK  Name = 
REMARK  9 active torsions:
REMARK  status: ('A' for Active; 'I' for Inactive)
REMARK    1  A    between atoms: C_1  and  C_2
REMARK    2  A    between atoms: C_2  and  C_3
REMARK    3  A    between atoms: C_3  and  C_4
REMARK    4  A    between atoms: C_4  and  C_5
REMARK    5  A    between atoms: C_5  and  C_6
REMARK    6  A    between atoms: C_6  and  O_8
REMARK    7  A    between atoms: O_8  and  C_9
REMARK    8  A    between atoms: C_19  and  C_20
REMARK    9  A    between atoms: C_24  and  C_25
REMARK                            x       y       z     vdW  Elec       q    Type
REMARK                         _______ _______ _______ _____ _____    ______ ____
ROOT
ATOM      1  C   UNL     1       1.554   8.040  19.853  0.00  0.00    +0.000 C 
ATOM      2  C   UNL     1       0.680   8.939  20.340  0.00  0.00    +0.000 C 
ATOM      3  C   UNL     1      -0.125   8.760  21.636  0.00  0.00    +0.000 C 
ATOM      4  C   UNL     1      -0.351  10.031  22.519  0.00  0.00    +0.000 C 
ATOM      5  C   UNL     1      -0.653  11.337  21.730  0.00  0.00    +0.000 C 
ATOM      6  C   UNL     1      -0.680  12.636  22.599  0.00  0.00    +0.000 C 
ATOM      7  C   UNL     1      -1.831  12.974  23.576  0.00  0.00    +0.000 C 
ATOM      8  C   UNL     1      -1.619  14.474  23.926  0.00  0.00    +0.000 C 
ATOM      9  C   UNL     1      -0.752  14.968  22.801  0.00  0.00    +0.000 C 
ATOM     10  O   UNL     1      -0.214  16.063  22.759  0.00  0.00    +0.000 OA
ATOM     11  C   UNL     1      -0.656  13.911  21.715  0.00  0.00    +0.000 C 
ATOM     12  C   UNL     1      -1.874  14.092  20.790  0.00  0.00    +0.000 C 
ATOM     13  C   UNL     1       0.644  13.953  20.957  0.00  0.00    +0.000 C 
ATOM     14  C   UNL     1       0.671  12.808  19.971  0.00  0.00    +0.000 C 
ATOM     15  C   UNL     1       0.468  11.421  20.629  0.00  0.00    +0.000 C 
ATOM     16  C   UNL     1       0.377  10.235  19.585  0.00  0.00    +0.000 C 
ATOM     17  C   UNL     1      -1.051  10.070  18.992  0.00  0.00    +0.000 C 
ATOM     18  C   UNL     1       1.355  10.544  18.413  0.00  0.00    +0.000 C 
ATOM     19  C   UNL     1       2.152   9.434  17.772  0.00  0.00    +0.000 C 
ATOM     20  C   UNL     1       2.412   8.224  18.628  0.00  0.00    +0.000 C 
ENDROOT
BRANCH   1  21
ATOM     21  O   UNL     1       1.821   6.838  20.566  0.00  0.00    +0.000 OA
BRANCH  21  22
ATOM     22  C   UNL     1       2.490   5.840  19.895  0.00  0.00    +0.000 C 
ATOM     23  O   UNL     1       3.698   5.733  19.729  0.00  0.00    +0.000 OA
BRANCH  22  24
ATOM     24  C   UNL     1       1.503   4.835  19.354  0.00  0.00    +0.000 C 
BRANCH  24  25
ATOM     25  C   UNL     1       1.020   3.881  20.436  0.00  0.00    +0.000 C 
BRANCH  25  26
ATOM     26  C   UNL     1       1.631   2.483  20.296  0.00  0.00    +0.000 C 
BRANCH  26  28
ATOM     27  C   UNL     1       3.272   1.713  18.560  0.00  0.00    +0.000 C 
ATOM     28  C   UNL     1       1.835   2.123  18.826  0.00  0.00    +0.000 C 
ENDBRANCH  26  28
ENDBRANCH  25  26
ENDBRANCH  24  25
ENDBRANCH  22  24
ENDBRANCH  21  22
ENDBRANCH   1  21
TORSDOF 6
ENDMDL
MODEL 4
REMARK VINA RESULT:      -6.9      8.666     11.423
REMARK  Name = 
REMARK  9 active torsions:
REMARK  status: ('A' for Active; 'I' for Inactive)
REMARK    1  A    between atoms: C_1  and  C_2
REMARK    2  A    between atoms: C_2  and  C_3
REMARK    3  A    between atoms: C_3  and  C_4
REMARK    4  A    between atoms: C_4  and  C_5
REMARK    5  A    between atoms: C_5  and  C_6
REMARK    6  A    between atoms: C_6  and  O_8
REMARK    7  A    between atoms: O_8  and  C_9
REMARK    8  A    between atoms: C_19  and  C_20
REMARK    9  A    between atoms: C_24  and  C_25
REMARK                            x       y       z     vdW  Elec       q    Type
REMARK                         _______ _______ _______ _____ _____    ______ ____
ROOT
ATOM      1  C   UNL     1      -0.509  10.394  20.484  0.00  0.00    +0.000 C 
ATOM      2  C   UNL     1      -1.195  11.514  20.780  0.00  0.00    +0.000 C 
ATOM      3  C   UNL     1      -1.756  12.494  19.739  0.00  0.00    +0.000 C 
ATOM      4  C   UNL     1      -3.146  13.144  20.047  0.00  0.00    +0.000 C 
ATOM      5  C   UNL     1      -3.367  13.558  21.529  0.00  0.00    +0.000 C 
ATOM      6  C   UNL     1      -4.820  14.020  21.871  0.00  0.00    +0.000 C 
ATOM      7  C   UNL     1      -5.402  15.380  21.417  0.00  0.00    +0.000 C 
ATOM      8  C   UNL     1      -6.691  15.557  22.267  0.00  0.00    +0.000 C 
ATOM      9  C   UNL     1      -6.472  14.617  23.419  0.00  0.00    +0.000 C 
ATOM     10  O   UNL     1      -7.314  14.322  24.254  0.00  0.00    +0.000 OA
ATOM     11  C   UNL     1      -5.045  14.097  23.404  0.00  0.00    +0.000 C 
ATOM     12  C   UNL     1      -4.174  15.129  24.145  0.00  0.00    +0.000 C 
ATOM     13  C   UNL     1      -4.909  12.716  23.986  0.00  0.00    +0.000 C 
ATOM     14  C   UNL     1      -3.475  12.264  23.836  0.00  0.00    +0.000 C 
ATOM     15  C   UNL     1      -2.967  12.291  22.374  0.00  0.00    +0.000 C 
ATOM     16  C   UNL     1      -1.432  11.933  22.232  0.00  0.00    +0.000 C 
ATOM     17  C   UNL     1      -0.506  13.156  22.489  0.00  0.00    +0.000 C 
ATOM     18  C   UNL     1      -1.090  10.838  23.285  0.00  0.00    +0.000 C 
ATOM     19  C   UNL     1      -0.137   9.720  22.941  0.00  0.00    +0.000 C 
ATOM     20  C   UNL     1      -0.014   9.378  21.480  0.00  0.00    +0.000 C 
ENDROOT
BRANCH   1  21
ATOM     21  O   UNL     1      -0.294  10.022  19.128  0.00  0.00    +0.000 OA
BRANCH  21  22
ATOM     22  C   UNL     1       0.951  10.266  18.596  0.00  0.00    +0.000 C 
ATOM     23  O   UNL     1       1.604  11.300  18.668  0.00  0.00    +0.000 OA
BRANCH  22  24
ATOM     24  C   UNL     1       1.448   9.041  17.868  0.00  0.00    +0.000 C 
BRANCH  24  25
ATOM     25  C   UNL     1       2.163   8.080  18.807  0.00  0.00    +0.000 C 
BRANCH  25  26
ATOM     26  C   UNL     1       2.756   6.876  18.068  0.00  0.00    +0.000 C 
BRANCH  26  28
ATOM     27  C   UNL     1       2.012   5.856  20.237  0.00  0.00    +0.000 C 
ATOM     28  C   UNL     1       2.452   5.578  18.811  0.00  0.00    +0.000 C 
ENDBRANCH  26  28
ENDBRANCH  25  26
ENDBRANCH  24  25
ENDBRANCH  22  24
ENDBRANCH  21  22
ENDBRANCH   1  21
TORSDOF 6
ENDMDL
MODEL 5
REMARK VINA RESULT:      -6.7      4.304      7.210
REMARK  Name = 
REMARK  9 active torsions:
REMARK  status: ('A' for Active; 'I' for Inactive)
REMARK    1  A    between atoms: C_1  and  C_2
REMARK    2  A    between atoms: C_2  and  C_3
REMARK    3  A    between atoms: C_3  and  C_4
REMARK    4  A    between atoms: C_4  and  C_5
REMARK    5  A    between atoms: C_5  and  C_6
REMARK    6  A    between atoms: C_6  and  O_8
REMARK    7  A    between atoms: O_8  and  C_9
REMARK    8  A    between atoms: C_19  and  C_20
REMARK    9  A    between atoms: C_24  and  C_25
REMARK                            x       y       z     vdW  Elec       q    Type
REMARK                         _______ _______ _______ _____ _____    ______ ____
ROOT
ATOM      1  C   UNL     1       3.871   5.727  19.040  0.00  0.00    +0.000 C 
ATOM      2  C   UNL     1       2.803   6.519  19.251  0.00  0.00    +0.000 C 
ATOM      3  C   UNL     1       1.884   6.436  20.478  0.00  0.00    +0.000 C 
ATOM      4  C   UNL     1       1.338   7.784  21.055  0.00  0.00    +0.000 C 
ATOM      5  C   UNL     1       0.921   8.836  19.989  0.00  0.00    +0.000 C 
ATOM      6  C   UNL     1       0.566  10.246  20.563  0.00  0.00    +0.000 C 
ATOM      7  C   UNL     1      -0.739  10.536  21.342  0.00  0.00    +0.000 C 
ATOM      8  C   UNL     1      -0.829  12.087  21.391  0.00  0.00    +0.000 C 
ATOM      9  C   UNL     1       0.075  12.516  20.269  0.00  0.00    +0.000 C 
ATOM     10  O   UNL     1       0.421  13.667  20.048  0.00  0.00    +0.000 OA
ATOM     11  C   UNL     1       0.484  11.312  19.439  0.00  0.00    +0.000 C 
ATOM     12  C   UNL     1      -0.621  11.080  18.392  0.00  0.00    +0.000 C 
ATOM     13  C   UNL     1       1.843  11.458  18.807  0.00  0.00    +0.000 C 
ATOM     14  C   UNL     1       2.186  10.175  18.087  0.00  0.00    +0.000 C 
ATOM     15  C   UNL     1       2.141   8.924  18.998  0.00  0.00    +0.000 C 
ATOM     16  C   UNL     1       2.383   7.567  18.219  0.00  0.00    +0.000 C 
ATOM     17  C   UNL     1       1.089   7.024  17.548  0.00  0.00    +0.000 C 
ATOM     18  C   UNL     1       3.433   7.832  17.100  0.00  0.00    +0.000 C 
ATOM     19  C   UNL     1       4.480   6.793  16.776  0.00  0.00    +0.000 C 
ATOM     20  C   UNL     1       4.832   5.838  17.885  0.00  0.00    +0.000 C 
ENDROOT
BRANCH   1  21
ATOM     21  O   UNL     1       4.245   4.754  20.008  0.00  0.00    +0.000 OA
BRANCH  21  22
ATOM     22  C   UNL     1       4.390   3.456  19.575  0.00  0.00    +0.000 C 
ATOM     23  O   UNL     1       5.212   2.631  19.954  0.00  0.00    +0.000 OA
BRANCH  22  24
ATOM     24  C   UNL     1       3.359   3.150  18.517  0.00  0.00    +0.000 C 
BRANCH  24  25
ATOM     25  C   UNL     1       2.383   2.077  18.976  0.00  0.00    +0.000 C 
BRANCH  25  26
ATOM     26  C   UNL     1       0.947   2.601  19.079  0.00  0.00    +0.000 C 
BRANCH  26  28
ATOM     27  C   UNL     1       1.395   2.646  21.548  0.00  0.00    +0.000 C 
ATOM     28  C   UNL     1       0.739   3.366  20.383  0.00  0.00    +0.000 C 
ENDBRANCH  26  28
ENDBRANCH  25  26
ENDBRANCH  24  25
ENDBRANCH  22  24
ENDBRANCH  21  22
ENDBRANCH   1  21
TORSDOF 6
ENDMDL
MODEL 6
REMARK VINA RESULT:      -6.7      6.264      9.060
REMARK  Name = 
REMARK  9 active torsions:
REMARK  status: ('A' for Active; 'I' for Inactive)
REMARK    1  A    between atoms: C_1  and  C_2
REMARK    2  A    between atoms: C_2  and  C_3
REMARK    3  A    between atoms: C_3  and  C_4
REMARK    4  A    between atoms: C_4  and  C_5
REMARK    5  A    between atoms: C_5  and  C_6
REMARK    6  A    between atoms: C_6  and  O_8
REMARK    7  A    between atoms: O_8  and  C_9
REMARK    8  A    between atoms: C_19  and  C_20
REMARK    9  A    between atoms: C_24  and  C_25
REMARK                            x       y       z     vdW  Elec       q    Type
REMARK                         _______ _______ _______ _____ _____    ______ ____
ROOT
ATOM      1  C   UNL     1       1.617   7.845  20.069  0.00  0.00    +0.000 C 
ATOM      2  C   UNL     1       0.786   8.822  20.476  0.00  0.00    +0.000 C 
ATOM      3  C   UNL     1       0.041   8.831  21.819  0.00  0.00    +0.000 C 
ATOM      4  C   UNL     1      -0.115  10.211  22.541  0.00  0.00    +0.000 C 
ATOM      5  C   UNL     1      -0.428  11.413  21.605  0.00  0.00    +0.000 C 
ATOM      6  C   UNL     1      -0.387  12.812  22.299  0.00  0.00    +0.000 C 
ATOM      7  C   UNL     1      -1.482  13.303  23.276  0.00  0.00    +0.000 C 
ATOM      8  C   UNL     1      -1.223  14.829  23.420  0.00  0.00    +0.000 C 
ATOM      9  C   UNL     1      -0.402  15.152  22.202  0.00  0.00    +0.000 C 
ATOM     10  O   UNL     1       0.155  16.218  21.994  0.00  0.00    +0.000 OA
ATOM     11  C   UNL     1      -0.380  13.962  21.258  0.00  0.00    +0.000 C 
ATOM     12  C   UNL     1      -1.638  14.056  20.374  0.00  0.00    +0.000 C 
ATOM     13  C   UNL     1       0.882  13.873  20.442  0.00  0.00    +0.000 C 
ATOM     14  C   UNL     1       0.837  12.611  19.612  0.00  0.00    +0.000 C 
ATOM     15  C   UNL     1       0.639  11.325  20.452  0.00  0.00    +0.000 C 
ATOM     16  C   UNL     1       0.473  10.018  19.574  0.00  0.00    +0.000 C 
ATOM     17  C   UNL     1      -0.985   9.817  19.073  0.00  0.00    +0.000 C 
ATOM     18  C   UNL     1       1.399  10.149  18.329  0.00  0.00    +0.000 C 
ATOM     19  C   UNL     1       2.140   8.946  17.800  0.00  0.00    +0.000 C 
ATOM     20  C   UNL     1       2.418   7.848  18.793  0.00  0.00    +0.000 C 
ENDROOT
BRANCH   1  21
ATOM     21  O   UNL     1       1.893   6.738  20.918  0.00  0.00    +0.000 OA
BRANCH  21  22
ATOM     22  C   UNL     1       1.817   5.481  20.363  0.00  0.00    +0.000 C 
ATOM     23  O   UNL     1       0.816   4.794  20.207  0.00  0.00    +0.000 OA
BRANCH  22  24
ATOM     24  C   UNL     1       3.192   5.021  19.945  0.00  0.00    +0.000 C 
BRANCH  24  25
ATOM     25  C   UNL     1       3.123   3.931  18.886  0.00  0.00    +0.000 C 
BRANCH  25  26
ATOM     26  C   UNL     1       3.370   4.472  17.474  0.00  0.00    +0.000 C 
BRANCH  26  28
ATOM     27  C   UNL     1       4.884   6.222  16.502  0.00  0.00    +0.000 C 
ATOM     28  C   UNL     1       4.813   4.942  17.316  0.00  0.00    +0.000 C 
ENDBRANCH  26  28
ENDBRANCH  25  26
ENDBRANCH  24  25
ENDBRANCH  22  24
ENDBRANCH  21  22
ENDBRANCH   1  21
TORSDOF 6
ENDMDL
MODEL 7
REMARK VINA RESULT:      -6.7      4.456      8.076
REMARK  Name = 
REMARK  9 active torsions:
REMARK  status: ('A' for Active; 'I' for Inactive)
REMARK    1  A    between atoms: C_1  and  C_2
REMARK    2  A    between atoms: C_2  and  C_3
REMARK    3  A    between atoms: C_3  and  C_4
REMARK    4  A    between atoms: C_4  and  C_5
REMARK    5  A    between atoms: C_5  and  C_6
REMARK    6  A    between atoms: C_6  and  O_8
REMARK    7  A    between atoms: O_8  and  C_9
REMARK    8  A    between atoms: C_19  and  C_20
REMARK    9  A    between atoms: C_24  and  C_25
REMARK                            x       y       z     vdW  Elec       q    Type
REMARK                         _______ _______ _______ _____ _____    ______ ____
ROOT
ATOM      1  C   UNL     1       1.243   8.883  19.720  0.00  0.00    +0.000 C 
ATOM      2  C   UNL     1       1.919   8.125  18.838  0.00  0.00    +0.000 C 
ATOM      3  C   UNL     1       2.391   8.603  17.457  0.00  0.00    +0.000 C 
ATOM      4  C   UNL     1       3.781   8.087  16.958  0.00  0.00    +0.000 C 
ATOM      5  C   UNL     1       4.085   6.596  17.278  0.00  0.00    +0.000 C 
ATOM      6  C   UNL     1       5.546   6.142  16.957  0.00  0.00    +0.000 C 
ATOM      7  C   UNL     1       6.065   5.925  15.516  0.00  0.00    +0.000 C 
ATOM      8  C   UNL     1       7.401   5.150  15.694  0.00  0.00    +0.000 C 
ATOM      9  C   UNL     1       7.277   4.570  17.075  0.00  0.00    +0.000 C 
ATOM     10  O   UNL     1       8.177   4.011  17.684  0.00  0.00    +0.000 OA
ATOM     11  C   UNL     1       5.865   4.765  17.598  0.00  0.00    +0.000 C 
ATOM     12  C   UNL     1       5.018   3.587  17.082  0.00  0.00    +0.000 C 
ATOM     13  C   UNL     1       5.798   4.898  19.096  0.00  0.00    +0.000 C 
ATOM     14  C   UNL     1       4.369   5.180  19.497  0.00  0.00    +0.000 C 
ATOM     15  C   UNL     1       3.769   6.432  18.812  0.00  0.00    +0.000 C 
ATOM     16  C   UNL     1       2.237   6.658  19.139  0.00  0.00    +0.000 C 
ATOM     17  C   UNL     1       1.301   5.814  18.229  0.00  0.00    +0.000 C 
ATOM     18  C   UNL     1       1.989   6.232  20.616  0.00  0.00    +0.000 C 
ATOM     19  C   UNL     1       1.043   7.021  21.488  0.00  0.00    +0.000 C 
ATOM     20  C   UNL     1       0.837   8.463  21.109  0.00  0.00    +0.000 C 
ENDROOT
BRANCH   1  21
ATOM     21  O   UNL     1       0.952  10.243  19.423  0.00  0.00    +0.000 OA
BRANCH  21  22
ATOM     22  C   UNL     1      -0.369  10.580  19.236  0.00  0.00    +0.000 C 
ATOM     23  O   UNL     1      -1.132  11.086  20.049  0.00  0.00    +0.000 OA
BRANCH  22  24
ATOM     24  C   UNL     1      -0.795  10.231  17.831  0.00  0.00    +0.000 C 
BRANCH  24  25
ATOM     25  C   UNL     1      -2.295  10.002  17.738  0.00  0.00    +0.000 C 
BRANCH  25  26
ATOM     26  C   UNL     1      -2.900  10.606  16.466  0.00  0.00    +0.000 C 
BRANCH  26  28
ATOM     27  C   UNL     1      -4.389  11.510  18.274  0.00  0.00    +0.000 C 
ATOM     28  C   UNL     1      -4.206  11.333  16.777  0.00  0.00    +0.000 C 
ENDBRANCH  26  28
ENDBRANCH  25  26
ENDBRANCH  24  25
ENDBRANCH  22  24
ENDBRANCH  21  22
ENDBRANCH   1  21
TORSDOF 6
ENDMDL
MODEL 8
REMARK VINA RESULT:      -6.5      9.906     11.585
REMARK  Name = 
REMARK  9 active torsions:
REMARK  status: ('A' for Active; 'I' for Inactive)
REMARK    1  A    between atoms: C_1  and  C_2
REMARK    2  A    between atoms: C_2  and  C_3
REMARK    3  A    between atoms: C_3  and  C_4
REMARK    4  A    between atoms: C_4  and  C_5
REMARK    5  A    between atoms: C_5  and  C_6
REMARK    6  A    between atoms: C_6  and  O_8
REMARK    7  A    between atoms: O_8  and  C_9
REMARK    8  A    between atoms: C_19  and  C_20
REMARK    9  A    between atoms: C_24  and  C_25
REMARK                            x       y       z     vdW  Elec       q    Type
REMARK                         _______ _______ _______ _____ _____    ______ ____
ROOT
ATOM      1  C   UNL     1       9.904  15.004  19.028  0.00  0.00    +0.000 C 
ATOM      2  C   UNL     1       8.594  15.305  18.975  0.00  0.00    +0.000 C 
ATOM      3  C   UNL     1       7.734  15.245  17.704  0.00  0.00    +0.000 C 
ATOM      4  C   UNL     1       6.261  14.744  17.860  0.00  0.00    +0.000 C 
ATOM      5  C   UNL     1       5.522  15.251  19.131  0.00  0.00    +0.000 C 
ATOM      6  C   UNL     1       4.128  14.592  19.385  0.00  0.00    +0.000 C 
ATOM      7  C   UNL     1       2.873  14.920  18.541  0.00  0.00    +0.000 C 
ATOM      8  C   UNL     1       1.688  14.335  19.359  0.00  0.00    +0.000 C 
ATOM      9  C   UNL     1       2.260  14.204  20.743  0.00  0.00    +0.000 C 
ATOM     10  O   UNL     1       1.715  13.635  21.677  0.00  0.00    +0.000 OA
ATOM     11  C   UNL     1       3.610  14.895  20.817  0.00  0.00    +0.000 C 
ATOM     12  C   UNL     1       3.348  16.382  21.120  0.00  0.00    +0.000 C 
ATOM     13  C   UNL     1       4.546  14.268  21.815  0.00  0.00    +0.000 C 
ATOM     14  C   UNL     1       5.882  14.971  21.739  0.00  0.00    +0.000 C 
ATOM     15  C   UNL     1       6.508  14.958  20.323  0.00  0.00    +0.000 C 
ATOM     16  C   UNL     1       7.847  15.796  20.218  0.00  0.00    +0.000 C 
ATOM     17  C   UNL     1       7.586  17.313  19.999  0.00  0.00    +0.000 C 
ATOM     18  C   UNL     1       8.631  15.627  21.553  0.00  0.00    +0.000 C 
ATOM     19  C   UNL     1      10.135  15.506  21.543  0.00  0.00    +0.000 C 
ATOM     20  C   UNL     1      10.751  14.980  20.274  0.00  0.00    +0.000 C 
ENDROOT
BRANCH   1  21
ATOM     21  O   UNL     1      10.584  14.553  17.862  0.00  0.00    +0.000 OA
BRANCH  21  22
ATOM     22  C   UNL     1      11.139  13.295  17.901  0.00  0.00    +0.000 C 
ATOM     23  O   UNL     1      12.328  13.004  17.898  0.00  0.00    +0.000 OA
BRANCH  22  24
ATOM     24  C   UNL     1      10.048  12.254  17.951  0.00  0.00    +0.000 C 
BRANCH  24  25
ATOM     25  C   UNL     1      10.397  11.118  18.901  0.00  0.00    +0.000 C 
BRANCH  25  26
ATOM     26  C   UNL     1       9.345  10.932  20.000  0.00  0.00    +0.000 C 
BRANCH  26  28
ATOM     27  C   UNL     1       8.450  11.903  22.134  0.00  0.00    +0.000 C 
ATOM     28  C   UNL     1       9.639  11.839  21.192  0.00  0.00    +0.000 C 
ENDBRANCH  26  28
ENDBRANCH  25  26
ENDBRANCH  24  25
ENDBRANCH  22  24
ENDBRANCH  21  22
ENDBRANCH   1  21
TORSDOF 6
ENDMDL
MODEL 9
REMARK VINA RESULT:      -6.5      6.237      8.993
REMARK  Name = 
REMARK  9 active torsions:
REMARK  status: ('A' for Active; 'I' for Inactive)
REMARK    1  A    between atoms: C_1  and  C_2
REMARK    2  A    between atoms: C_2  and  C_3
REMARK    3  A    between atoms: C_3  and  C_4
REMARK    4  A    between atoms: C_4  and  C_5
REMARK    5  A    between atoms: C_5  and  C_6
REMARK    6  A    between atoms: C_6  and  O_8
REMARK    7  A    between atoms: O_8  and  C_9
REMARK    8  A    between atoms: C_19  and  C_20
REMARK    9  A    between atoms: C_24  and  C_25
REMARK                            x       y       z     vdW  Elec       q    Type
REMARK                         _______ _______ _______ _____ _____    ______ ____
ROOT
ATOM      1  C   UNL     1       1.668   7.896  19.781  0.00  0.00    +0.000 C 
ATOM      2  C   UNL     1       0.799   8.805  20.261  0.00  0.00    +0.000 C 
ATOM      3  C   UNL     1      -0.007   8.641  21.558  0.00  0.00    +0.000 C 
ATOM      4  C   UNL     1      -0.226   9.922  22.429  0.00  0.00    +0.000 C 
ATOM      5  C   UNL     1      -0.522  11.222  21.629  0.00  0.00    +0.000 C 
ATOM      6  C   UNL     1      -0.542  12.529  22.486  0.00  0.00    +0.000 C 
ATOM      7  C   UNL     1      -1.691  12.882  23.460  0.00  0.00    +0.000 C 
ATOM      8  C   UNL     1      -1.472  14.384  23.795  0.00  0.00    +0.000 C 
ATOM      9  C   UNL     1      -0.603  14.863  22.665  0.00  0.00    +0.000 C 
ATOM     10  O   UNL     1      -0.060  15.955  22.613  0.00  0.00    +0.000 OA
ATOM     11  C   UNL     1      -0.513  13.795  21.589  0.00  0.00    +0.000 C 
ATOM     12  C   UNL     1      -1.730  13.973  20.663  0.00  0.00    +0.000 C 
ATOM     13  C   UNL     1       0.787  13.824  20.830  0.00  0.00    +0.000 C 
ATOM     14  C   UNL     1       0.808  12.670  19.856  0.00  0.00    +0.000 C 
ATOM     15  C   UNL     1       0.599  11.290  20.526  0.00  0.00    +0.000 C 
ATOM     16  C   UNL     1       0.502  10.094  19.493  0.00  0.00    +0.000 C 
ATOM     17  C   UNL     1      -0.927   9.931  18.902  0.00  0.00    +0.000 C 
ATOM     18  C   UNL     1       1.481  10.388  18.318  0.00  0.00    +0.000 C 
ATOM     19  C   UNL     1       2.271   9.268  17.687  0.00  0.00    +0.000 C 
ATOM     20  C   UNL     1       2.526   8.065  18.555  0.00  0.00    +0.000 C 
ENDROOT
BRANCH   1  21
ATOM     21  O   UNL     1       1.929   6.700  20.506  0.00  0.00    +0.000 OA
BRANCH  21  22
ATOM     22  C   UNL     1       2.164   5.558  19.775  0.00  0.00    +0.000 C 
ATOM     23  O   UNL     1       1.371   4.948  19.069  0.00  0.00    +0.000 OA
BRANCH  22  24
ATOM     24  C   UNL     1       3.595   5.118  19.957  0.00  0.00    +0.000 C 
BRANCH  24  25
ATOM     25  C   UNL     1       4.002   4.081  18.921  0.00  0.00    +0.000 C 
BRANCH  25  26
ATOM     26  C   UNL     1       4.173   2.685  19.529  0.00  0.00    +0.000 C 
BRANCH  26  28
ATOM     27  C   UNL     1       2.491   2.116  17.755  0.00  0.00    +0.000 C 
ATOM     28  C   UNL     1       3.665   1.609  18.573  0.00  0.00    +0.000 C 
ENDBRANCH  26  28
ENDBRANCH  25  26
ENDBRANCH  24  25
ENDBRANCH  22  24
ENDBRANCH  21  22
ENDBRANCH   1  21
TORSDOF 6
ENDMDL
