MODEL 1
REMARK VINA RESULT:      -7.5      0.000      0.000
REMARK  Name = 
REMARK  7 active torsions:
REMARK  status: ('A' for Active; 'I' for Inactive)
REMARK    1  A    between atoms: C_1  and  C_2
REMARK    2  A    between atoms: C_2  and  N_3
REMARK    3  A    between atoms: N_3  and  C_4
REMARK    4  A    between atoms: C_4  and  C_5
REMARK    5  A    between atoms: C_5  and  C_6
REMARK    6  A    between atoms: C_6  and  N_7
REMARK    7  A    between atoms: N_18  and  C_19
REMARK                            x       y       z     vdW  Elec       q    Type
REMARK                         _______ _______ _______ _____ _____    ______ ____
ROOT
ATOM      1  C   UNL     1       2.802   6.833  17.288  0.00  0.00    +0.000 C 
ATOM      2  C   UNL     1       3.759   6.216  18.290  0.00  0.00    +0.000 C 
ATOM      3  C   UNL     1       5.061   5.991  17.984  0.00  0.00    +0.000 C 
ATOM      4  C   UNL     1       5.971   5.352  18.953  0.00  0.00    +0.000 C 
ATOM      5  O   UNL     1       5.817   5.352  20.169  0.00  0.00    +0.000 OA
ATOM      6  N   UNL     1       7.031   4.727  18.382  0.00  0.00    +0.000 N 
ATOM      7  C   UNL     1       7.289   4.594  17.048  0.00  0.00    +0.000 C 
ATOM      8  O   UNL     1       8.328   4.007  16.745  0.00  0.00    +0.000 OA
ATOM      9  N   UNL     1       6.389   5.187  16.166  0.00  0.00    +0.000 N 
ATOM     10  C   UNL     1       5.601   6.243  16.618  0.00  0.00    +0.000 C 
ATOM     11  O   UNL     1       5.342   7.287  16.028  0.00  0.00    +0.000 OA
ATOM     12  H   UNL     1       7.679   4.267  19.005  0.00  0.00    +0.000 HD
ENDROOT
BRANCH   9  13
ATOM     13  C   UNL     1       6.427   4.817  14.768  0.00  0.00    +0.000 A 
ATOM     14  C   UNL     1       7.451   5.328  13.944  0.00  0.00    +0.000 A 
ATOM     15  C   UNL     1       7.583   4.949  12.607  0.00  0.00    +0.000 A 
ATOM     16  C   UNL     1       6.691   4.041  12.052  0.00  0.00    +0.000 A 
ATOM     17  C   UNL     1       5.677   3.504  12.847  0.00  0.00    +0.000 A 
ATOM     18  C   UNL     1       5.556   3.881  14.190  0.00  0.00    +0.000 A 
ENDBRANCH   9  13
BRANCH   2  19
ATOM     19  N   UNL     1       3.140   5.742  19.461  0.00  0.00    +0.000 N 
ATOM     20  H   UNL     1       3.150   6.487  20.164  0.00  0.00    +0.000 HD
BRANCH  19  21
ATOM     21  C   UNL     1       1.751   5.258  19.436  0.00  0.00    +0.000 C 
BRANCH  21  22
ATOM     22  C   UNL     1       1.389   4.599  20.755  0.00  0.00    +0.000 C 
BRANCH  22  23
ATOM     23  C   UNL     1       1.261   3.087  20.590  0.00  0.00    +0.000 C 
BRANCH  23  24
ATOM     24  N   UNL     1       2.390   2.514  19.892  0.00  0.00    +0.000 N 
ATOM     25  C   UNL     1       2.369   1.924  18.662  0.00  0.00    +0.000 A 
ATOM     26  C   UNL     1       3.660   1.492  18.463  0.00  0.00    +0.000 A 
ATOM     27  N   UNL     1       4.453   1.805  19.537  0.00  0.00    +0.000 NA
ATOM     28  C   UNL     1       3.659   2.419  20.384  0.00  0.00    +0.000 A 
ENDBRANCH  23  24
ENDBRANCH  22  23
ENDBRANCH  21  22
ENDBRANCH  19  21
ENDBRANCH   2  19
TORSDOF 6
ENDMDL
MODEL 2
REMARK VINA RESULT:      -7.1      0.492      1.225
REMARK  Name = 
REMARK  7 active torsions:
REMARK  status: ('A' for Active; 'I' for Inactive)
REMARK    1  A    between atoms: C_1  and  C_2
REMARK    2  A    between atoms: C_2  and  N_3
REMARK    3  A    between atoms: N_3  and  C_4
REMARK    4  A    between atoms: C_4  and  C_5
REMARK    5  A    between atoms: C_5  and  C_6
REMARK    6  A    between atoms: C_6  and  N_7
REMARK    7  A    between atoms: N_18  and  C_19
REMARK                            x       y       z     vdW  Elec       q    Type
REMARK                         _______ _______ _______ _____ _____    ______ ____
ROOT
ATOM      1  C   UNL     1       3.108   7.250  16.957  0.00  0.00    +0.000 C 
ATOM      2  C   UNL     1       3.881   6.532  18.047  0.00  0.00    +0.000 C 
ATOM      3  C   UNL     1       5.178   6.173  17.879  0.00  0.00    +0.000 C 
ATOM      4  C   UNL     1       5.906   5.437  18.931  0.00  0.00    +0.000 C 
ATOM      5  O   UNL     1       5.621   5.449  20.123  0.00  0.00    +0.000 OA
ATOM      6  N   UNL     1       6.950   4.706  18.468  0.00  0.00    +0.000 N 
ATOM      7  C   UNL     1       7.337   4.551  17.167  0.00  0.00    +0.000 C 
ATOM      8  O   UNL     1       8.335   3.859  16.969  0.00  0.00    +0.000 OA
ATOM      9  N   UNL     1       6.604   5.239  16.202  0.00  0.00    +0.000 N 
ATOM     10  C   UNL     1       5.887   6.371  16.583  0.00  0.00    +0.000 C 
ATOM     11  O   UNL     1       5.804   7.438  15.984  0.00  0.00    +0.000 OA
ATOM     12  H   UNL     1       7.475   4.178  19.150  0.00  0.00    +0.000 HD
ENDROOT
BRANCH   9  13
ATOM     13  C   UNL     1       6.755   4.872  14.811  0.00  0.00    +0.000 A 
ATOM     14  C   UNL     1       5.848   3.959  14.234  0.00  0.00    +0.000 A 
ATOM     15  C   UNL     1       5.897   3.624  12.880  0.00  0.00    +0.000 A 
ATOM     16  C   UNL     1       6.859   4.198  12.058  0.00  0.00    +0.000 A 
ATOM     17  C   UNL     1       7.758   5.118  12.597  0.00  0.00    +0.000 A 
ATOM     18  C   UNL     1       7.698   5.457  13.953  0.00  0.00    +0.000 A 
ENDBRANCH   9  13
BRANCH   2  19
ATOM     19  N   UNL     1       3.093   6.121  19.137  0.00  0.00    +0.000 N 
ATOM     20  H   UNL     1       2.600   6.938  19.513  0.00  0.00    +0.000 HD
BRANCH  19  21
ATOM     21  C   UNL     1       2.055   5.091  18.971  0.00  0.00    +0.000 C 
BRANCH  21  22
ATOM     22  C   UNL     1       1.418   4.752  20.306  0.00  0.00    +0.000 C 
BRANCH  22  23
ATOM     23  C   UNL     1       1.319   3.241  20.493  0.00  0.00    +0.000 C 
BRANCH  23  24
ATOM     24  N   UNL     1       2.444   2.541  19.914  0.00  0.00    +0.000 N 
ATOM     25  C   UNL     1       3.724   2.535  20.383  0.00  0.00    +0.000 A 
ATOM     26  C   UNL     1       4.425   1.784  19.468  0.00  0.00    +0.000 A 
ATOM     27  N   UNL     1       3.603   1.341  18.464  0.00  0.00    +0.000 NA
ATOM     28  C   UNL     1       2.413   1.815  18.759  0.00  0.00    +0.000 A 
ENDBRANCH  23  24
ENDBRANCH  22  23
ENDBRANCH  21  22
ENDBRANCH  19  21
ENDBRANCH   2  19
TORSDOF 6
ENDMDL
MODEL 3
REMARK VINA RESULT:      -7.0      0.737      1.007
REMARK  Name = 
REMARK  7 active torsions:
REMARK  status: ('A' for Active; 'I' for Inactive)
REMARK    1  A    between atoms: C_1  and  C_2
REMARK    2  A    between atoms: C_2  and  N_3
REMARK    3  A    between atoms: N_3  and  C_4
REMARK    4  A    between atoms: C_4  and  C_5
REMARK    5  A    between atoms: C_5  and  C_6
REMARK    6  A    between atoms: C_6  and  N_7
REMARK    7  A    between atoms: N_18  and  C_19
REMARK                            x       y       z     vdW  Elec       q    Type
REMARK                         _______ _______ _______ _____ _____    ______ ____
ROOT
ATOM      1  C   UNL     1       2.788   6.576  17.744  0.00  0.00    +0.000 C 
ATOM      2  C   UNL     1       3.877   6.019  18.640  0.00  0.00    +0.000 C 
ATOM      3  C   UNL     1       5.146   5.848  18.193  0.00  0.00    +0.000 C 
ATOM      4  C   UNL     1       6.186   5.266  19.062  0.00  0.00    +0.000 C 
ATOM      5  O   UNL     1       6.168   5.280  20.288  0.00  0.00    +0.000 OA
ATOM      6  N   UNL     1       7.205   4.679  18.383  0.00  0.00    +0.000 N 
ATOM      7  C   UNL     1       7.319   4.536  17.030  0.00  0.00    +0.000 C 
ATOM      8  O   UNL     1       8.344   3.991  16.620  0.00  0.00    +0.000 OA
ATOM      9  N   UNL     1       6.300   5.073  16.248  0.00  0.00    +0.000 N 
ATOM     10  C   UNL     1       5.520   6.101  16.773  0.00  0.00    +0.000 C 
ATOM     11  O   UNL     1       5.149   7.122  16.203  0.00  0.00    +0.000 OA
ATOM     12  H   UNL     1       7.938   4.259  18.936  0.00  0.00    +0.000 HD
ENDROOT
BRANCH   9  13
ATOM     13  C   UNL     1       6.200   4.682  14.858  0.00  0.00    +0.000 A 
ATOM     14  C   UNL     1       7.269   4.961  13.982  0.00  0.00    +0.000 A 
ATOM     15  C   UNL     1       7.263   4.543  12.650  0.00  0.00    +0.000 A 
ATOM     16  C   UNL     1       6.180   3.828  12.153  0.00  0.00    +0.000 A 
ATOM     17  C   UNL     1       5.115   3.522  13.001  0.00  0.00    +0.000 A 
ATOM     18  C   UNL     1       5.132   3.936  14.338  0.00  0.00    +0.000 A 
ENDBRANCH   9  13
BRANCH   2  19
ATOM     19  N   UNL     1       3.415   5.537  19.877  0.00  0.00    +0.000 N 
ATOM     20  H   UNL     1       3.579   6.254  20.592  0.00  0.00    +0.000 HD
BRANCH  19  21
ATOM     21  C   UNL     1       2.009   5.137  20.053  0.00  0.00    +0.000 C 
BRANCH  21  22
ATOM     22  C   UNL     1       1.873   4.148  21.196  0.00  0.00    +0.000 C 
BRANCH  22  23
ATOM     23  C   UNL     1       2.746   2.919  20.959  0.00  0.00    +0.000 C 
BRANCH  23  24
ATOM     24  N   UNL     1       2.806   2.550  19.563  0.00  0.00    +0.000 N 
ATOM     25  C   UNL     1       3.935   2.359  18.821  0.00  0.00    +0.000 A 
ATOM     26  C   UNL     1       3.475   2.081  17.555  0.00  0.00    +0.000 A 
ATOM     27  N   UNL     1       2.104   2.100  17.515  0.00  0.00    +0.000 NA
ATOM     28  C   UNL     1       1.728   2.388  18.741  0.00  0.00    +0.000 A 
ENDBRANCH  23  24
ENDBRANCH  22  23
ENDBRANCH  21  22
ENDBRANCH  19  21
ENDBRANCH   2  19
TORSDOF 6
ENDMDL
MODEL 4
REMARK VINA RESULT:      -7.0      0.815      1.682
REMARK  Name = 
REMARK  7 active torsions:
REMARK  status: ('A' for Active; 'I' for Inactive)
REMARK    1  A    between atoms: C_1  and  C_2
REMARK    2  A    between atoms: C_2  and  N_3
REMARK    3  A    between atoms: N_3  and  C_4
REMARK    4  A    between atoms: C_4  and  C_5
REMARK    5  A    between atoms: C_5  and  C_6
REMARK    6  A    between atoms: C_6  and  N_7
REMARK    7  A    between atoms: N_18  and  C_19
REMARK                            x       y       z     vdW  Elec       q    Type
REMARK                         _______ _______ _______ _____ _____    ______ ____
ROOT
ATOM      1  C   UNL     1       3.129   7.259  16.883  0.00  0.00    +0.000 C 
ATOM      2  C   UNL     1       3.876   6.532  17.984  0.00  0.00    +0.000 C 
ATOM      3  C   UNL     1       5.175   6.166  17.840  0.00  0.00    +0.000 C 
ATOM      4  C   UNL     1       5.877   5.422  18.902  0.00  0.00    +0.000 C 
ATOM      5  O   UNL     1       5.570   5.429  20.088  0.00  0.00    +0.000 OA
ATOM      6  N   UNL     1       6.927   4.687  18.455  0.00  0.00    +0.000 N 
ATOM      7  C   UNL     1       7.338   4.536  17.162  0.00  0.00    +0.000 C 
ATOM      8  O   UNL     1       8.336   3.840  16.979  0.00  0.00    +0.000 OA
ATOM      9  N   UNL     1       6.628   5.233  16.186  0.00  0.00    +0.000 N 
ATOM     10  C   UNL     1       5.909   6.367  16.559  0.00  0.00    +0.000 C 
ATOM     11  O   UNL     1       5.844   7.438  15.963  0.00  0.00    +0.000 OA
ATOM     12  H   UNL     1       7.436   4.153  19.145  0.00  0.00    +0.000 HD
ENDROOT
BRANCH   9  13
ATOM     13  C   UNL     1       6.803   4.872  14.797  0.00  0.00    +0.000 A 
ATOM     14  C   UNL     1       5.958   3.901  14.221  0.00  0.00    +0.000 A 
ATOM     15  C   UNL     1       6.030   3.565  12.868  0.00  0.00    +0.000 A 
ATOM     16  C   UNL     1       6.954   4.197  12.045  0.00  0.00    +0.000 A 
ATOM     17  C   UNL     1       7.792   5.175  12.582  0.00  0.00    +0.000 A 
ATOM     18  C   UNL     1       7.709   5.514  13.938  0.00  0.00    +0.000 A 
ENDBRANCH   9  13
BRANCH   2  19
ATOM     19  N   UNL     1       3.065   6.120  19.056  0.00  0.00    +0.000 N 
ATOM     20  H   UNL     1       2.750   6.950  19.569  0.00  0.00    +0.000 HD
BRANCH  19  21
ATOM     21  C   UNL     1       1.845   5.332  18.819  0.00  0.00    +0.000 C 
BRANCH  21  22
ATOM     22  C   UNL     1       2.104   4.237  17.800  0.00  0.00    +0.000 C 
BRANCH  22  23
ATOM     23  C   UNL     1       2.883   3.084  18.426  0.00  0.00    +0.000 C 
BRANCH  23  24
ATOM     24  N   UNL     1       2.484   2.831  19.792  0.00  0.00    +0.000 N 
ATOM     25  C   UNL     1       1.208   2.709  20.256  0.00  0.00    +0.000 A 
ATOM     26  C   UNL     1       1.346   2.533  21.613  0.00  0.00    +0.000 A 
ATOM     27  N   UNL     1       2.669   2.547  21.977  0.00  0.00    +0.000 NA
ATOM     28  C   UNL     1       3.332   2.730  20.858  0.00  0.00    +0.000 A 
ENDBRANCH  23  24
ENDBRANCH  22  23
ENDBRANCH  21  22
ENDBRANCH  19  21
ENDBRANCH   2  19
TORSDOF 6
ENDMDL
MODEL 5
REMARK VINA RESULT:      -7.0      0.682      1.020
REMARK  Name = 
REMARK  7 active torsions:
REMARK  status: ('A' for Active; 'I' for Inactive)
REMARK    1  A    between atoms: C_1  and  C_2
REMARK    2  A    between atoms: C_2  and  N_3
REMARK    3  A    between atoms: N_3  and  C_4
REMARK    4  A    between atoms: C_4  and  C_5
REMARK    5  A    between atoms: C_5  and  C_6
REMARK    6  A    between atoms: C_6  and  N_7
REMARK    7  A    between atoms: N_18  and  C_19
REMARK                            x       y       z     vdW  Elec       q    Type
REMARK                         _______ _______ _______ _____ _____    ______ ____
ROOT
ATOM      1  C   UNL     1       2.982   7.146  17.063  0.00  0.00    +0.000 C 
ATOM      2  C   UNL     1       3.808   6.423  18.109  0.00  0.00    +0.000 C 
ATOM      3  C   UNL     1       5.107   6.098  17.888  0.00  0.00    +0.000 C 
ATOM      4  C   UNL     1       5.887   5.358  18.898  0.00  0.00    +0.000 C 
ATOM      5  O   UNL     1       5.644   5.339  20.099  0.00  0.00    +0.000 OA
ATOM      6  N   UNL     1       6.932   4.661  18.383  0.00  0.00    +0.000 N 
ATOM      7  C   UNL     1       7.275   4.543  17.067  0.00  0.00    +0.000 C 
ATOM      8  O   UNL     1       8.282   3.880  16.819  0.00  0.00    +0.000 OA
ATOM      9  N   UNL     1       6.494   5.234  16.143  0.00  0.00    +0.000 N 
ATOM     10  C   UNL     1       5.765   6.340  16.573  0.00  0.00    +0.000 C 
ATOM     11  O   UNL     1       5.636   7.418  16.001  0.00  0.00    +0.000 OA
ATOM     12  H   UNL     1       7.491   4.132  19.035  0.00  0.00    +0.000 HD
ENDROOT
BRANCH   9  13
ATOM     13  C   UNL     1       6.604   4.900  14.740  0.00  0.00    +0.000 A 
ATOM     14  C   UNL     1       7.619   5.497  13.964  0.00  0.00    +0.000 A 
ATOM     15  C   UNL     1       7.822   5.159  12.625  0.00  0.00    +0.000 A 
ATOM     16  C   UNL     1       7.011   4.206  12.020  0.00  0.00    +0.000 A 
ATOM     17  C   UNL     1       6.010   3.586  12.767  0.00  0.00    +0.000 A 
ATOM     18  C   UNL     1       5.817   3.922  14.112  0.00  0.00    +0.000 A 
ENDBRANCH   9  13
BRANCH   2  19
ATOM     19  N   UNL     1       3.069   5.971  19.216  0.00  0.00    +0.000 N 
ATOM     20  H   UNL     1       3.010   6.728  19.904  0.00  0.00    +0.000 HD
BRANCH  19  21
ATOM     21  C   UNL     1       1.686   5.494  19.055  0.00  0.00    +0.000 C 
BRANCH  21  22
ATOM     22  C   UNL     1       1.635   4.308  18.108  0.00  0.00    +0.000 C 
BRANCH  22  23
ATOM     23  C   UNL     1       1.468   3.003  18.881  0.00  0.00    +0.000 C 
BRANCH  23  24
ATOM     24  N   UNL     1       2.690   2.594  19.538  0.00  0.00    +0.000 N 
ATOM     25  C   UNL     1       2.919   2.567  20.882  0.00  0.00    +0.000 A 
ATOM     26  C   UNL     1       4.229   2.167  21.002  0.00  0.00    +0.000 A 
ATOM     27  N   UNL     1       4.793   1.955  19.770  0.00  0.00    +0.000 NA
ATOM     28  C   UNL     1       3.841   2.222  18.905  0.00  0.00    +0.000 A 
ENDBRANCH  23  24
ENDBRANCH  22  23
ENDBRANCH  21  22
ENDBRANCH  19  21
ENDBRANCH   2  19
TORSDOF 6
ENDMDL
MODEL 6
REMARK VINA RESULT:      -6.9      3.923      7.728
REMARK  Name = 
REMARK  7 active torsions:
REMARK  status: ('A' for Active; 'I' for Inactive)
REMARK    1  A    between atoms: C_1  and  C_2
REMARK    2  A    between atoms: C_2  and  N_3
REMARK    3  A    between atoms: N_3  and  C_4
REMARK    4  A    between atoms: C_4  and  C_5
REMARK    5  A    between atoms: C_5  and  C_6
REMARK    6  A    between atoms: C_6  and  N_7
REMARK    7  A    between atoms: N_18  and  C_19
REMARK                            x       y       z     vdW  Elec       q    Type
REMARK                         _______ _______ _______ _____ _____    ______ ____
ROOT
ATOM      1  C   UNL     1       4.824   7.655  17.912  0.00  0.00    +0.000 C 
ATOM      2  C   UNL     1       5.523   6.539  17.158  0.00  0.00    +0.000 C 
ATOM      3  C   UNL     1       4.930   5.335  16.961  0.00  0.00    +0.000 C 
ATOM      4  C   UNL     1       5.637   4.245  16.263  0.00  0.00    +0.000 C 
ATOM      5  O   UNL     1       6.558   4.399  15.468  0.00  0.00    +0.000 OA
ATOM      6  N   UNL     1       5.187   3.005  16.582  0.00  0.00    +0.000 N 
ATOM      7  C   UNL     1       4.221   2.688  17.493  0.00  0.00    +0.000 C 
ATOM      8  O   UNL     1       3.946   1.494  17.610  0.00  0.00    +0.000 OA
ATOM      9  N   UNL     1       3.599   3.746  18.152  0.00  0.00    +0.000 N 
ATOM     10  C   UNL     1       3.605   5.006  17.556  0.00  0.00    +0.000 C 
ATOM     11  O   UNL     1       2.673   5.801  17.484  0.00  0.00    +0.000 OA
ATOM     12  H   UNL     1       5.647   2.225  16.135  0.00  0.00    +0.000 HD
ENDROOT
BRANCH   9  13
ATOM     13  C   UNL     1       2.813   3.473  19.335  0.00  0.00    +0.000 A 
ATOM     14  C   UNL     1       1.407   3.421  19.236  0.00  0.00    +0.000 A 
ATOM     15  C   UNL     1       0.600   3.089  20.324  0.00  0.00    +0.000 A 
ATOM     16  C   UNL     1       1.179   2.796  21.553  0.00  0.00    +0.000 A 
ATOM     17  C   UNL     1       2.568   2.821  21.678  0.00  0.00    +0.000 A 
ATOM     18  C   UNL     1       3.373   3.146  20.579  0.00  0.00    +0.000 A 
ENDBRANCH   9  13
BRANCH   2  19
ATOM     19  N   UNL     1       6.872   6.802  16.861  0.00  0.00    +0.000 N 
ATOM     20  H   UNL     1       6.915   7.428  16.051  0.00  0.00    +0.000 HD
BRANCH  19  21
ATOM     21  C   UNL     1       7.760   7.414  17.863  0.00  0.00    +0.000 C 
BRANCH  21  22
ATOM     22  C   UNL     1       7.962   8.890  17.570  0.00  0.00    +0.000 C 
BRANCH  22  23
ATOM     23  C   UNL     1       8.794   9.552  18.665  0.00  0.00    +0.000 C 
BRANCH  23  24
ATOM     24  N   UNL     1       9.325  10.831  18.251  0.00  0.00    +0.000 N 
ATOM     25  C   UNL     1      10.632  11.219  18.291  0.00  0.00    +0.000 A 
ATOM     26  C   UNL     1      10.622  12.522  17.851  0.00  0.00    +0.000 A 
ATOM     27  N   UNL     1       9.347  12.928  17.550  0.00  0.00    +0.000 NA
ATOM     28  C   UNL     1       8.586  11.887  17.803  0.00  0.00    +0.000 A 
ENDBRANCH  23  24
ENDBRANCH  22  23
ENDBRANCH  21  22
ENDBRANCH  19  21
ENDBRANCH   2  19
TORSDOF 6
ENDMDL
MODEL 7
REMARK VINA RESULT:      -6.9      0.673      1.173
REMARK  Name = 
REMARK  7 active torsions:
REMARK  status: ('A' for Active; 'I' for Inactive)
REMARK    1  A    between atoms: C_1  and  C_2
REMARK    2  A    between atoms: C_2  and  N_3
REMARK    3  A    between atoms: N_3  and  C_4
REMARK    4  A    between atoms: C_4  and  C_5
REMARK    5  A    between atoms: C_5  and  C_6
REMARK    6  A    between atoms: C_6  and  N_7
REMARK    7  A    between atoms: N_18  and  C_19
REMARK                            x       y       z     vdW  Elec       q    Type
REMARK                         _______ _______ _______ _____ _____    ______ ____
ROOT
ATOM      1  C   UNL     1       2.824   6.564  17.652  0.00  0.00    +0.000 C 
ATOM      2  C   UNL     1       3.916   6.052  18.572  0.00  0.00    +0.000 C 
ATOM      3  C   UNL     1       5.186   5.869  18.133  0.00  0.00    +0.000 C 
ATOM      4  C   UNL     1       6.229   5.330  19.028  0.00  0.00    +0.000 C 
ATOM      5  O   UNL     1       6.209   5.397  20.252  0.00  0.00    +0.000 OA
ATOM      6  N   UNL     1       7.250   4.720  18.376  0.00  0.00    +0.000 N 
ATOM      7  C   UNL     1       7.367   4.518  17.030  0.00  0.00    +0.000 C 
ATOM      8  O   UNL     1       8.395   3.962  16.645  0.00  0.00    +0.000 OA
ATOM      9  N   UNL     1       6.346   5.016  16.224  0.00  0.00    +0.000 N 
ATOM     10  C   UNL     1       5.560   6.062  16.704  0.00  0.00    +0.000 C 
ATOM     11  O   UNL     1       5.184   7.055  16.090  0.00  0.00    +0.000 OA
ATOM     12  H   UNL     1       7.985   4.328  18.947  0.00  0.00    +0.000 HD
ENDROOT
BRANCH   9  13
ATOM     13  C   UNL     1       6.249   4.565  14.853  0.00  0.00    +0.000 A 
ATOM     14  C   UNL     1       5.092   3.878  14.431  0.00  0.00    +0.000 A 
ATOM     15  C   UNL     1       4.909   3.484  13.104  0.00  0.00    +0.000 A 
ATOM     16  C   UNL     1       5.883   3.769  12.155  0.00  0.00    +0.000 A 
ATOM     17  C   UNL     1       7.030   4.463  12.540  0.00  0.00    +0.000 A 
ATOM     18  C   UNL     1       7.204   4.864  13.869  0.00  0.00    +0.000 A 
ENDBRANCH   9  13
BRANCH   2  19
ATOM     19  N   UNL     1       3.455   5.622  19.828  0.00  0.00    +0.000 N 
ATOM     20  H   UNL     1       3.521   6.403  20.489  0.00  0.00    +0.000 HD
BRANCH  19  21
ATOM     21  C   UNL     1       2.089   5.099  19.992  0.00  0.00    +0.000 C 
BRANCH  21  22
ATOM     22  C   UNL     1       1.980   4.271  21.259  0.00  0.00    +0.000 C 
BRANCH  22  23
ATOM     23  C   UNL     1       1.938   2.780  20.933  0.00  0.00    +0.000 C 
BRANCH  23  24
ATOM     24  N   UNL     1       2.406   2.499  19.594  0.00  0.00    +0.000 N 
ATOM     25  C   UNL     1       1.660   2.514  18.453  0.00  0.00    +0.000 A 
ATOM     26  C   UNL     1       2.532   2.129  17.462  0.00  0.00    +0.000 A 
ATOM     27  N   UNL     1       3.779   1.881  17.976  0.00  0.00    +0.000 NA
ATOM     28  C   UNL     1       3.673   2.111  19.265  0.00  0.00    +0.000 A 
ENDBRANCH  23  24
ENDBRANCH  22  23
ENDBRANCH  21  22
ENDBRANCH  19  21
ENDBRANCH   2  19
TORSDOF 6
ENDMDL
MODEL 8
REMARK VINA RESULT:      -6.8      3.720      7.473
REMARK  Name = 
REMARK  7 active torsions:
REMARK  status: ('A' for Active; 'I' for Inactive)
REMARK    1  A    between atoms: C_1  and  C_2
REMARK    2  A    between atoms: C_2  and  N_3
REMARK    3  A    between atoms: N_3  and  C_4
REMARK    4  A    between atoms: C_4  and  C_5
REMARK    5  A    between atoms: C_5  and  C_6
REMARK    6  A    between atoms: C_6  and  N_7
REMARK    7  A    between atoms: N_18  and  C_19
REMARK                            x       y       z     vdW  Elec       q    Type
REMARK                         _______ _______ _______ _____ _____    ______ ____
ROOT
ATOM      1  C   UNL     1       4.056   7.598  17.779  0.00  0.00    +0.000 C 
ATOM      2  C   UNL     1       4.879   6.560  17.040  0.00  0.00    +0.000 C 
ATOM      3  C   UNL     1       4.442   5.285  16.887  0.00  0.00    +0.000 C 
ATOM      4  C   UNL     1       5.271   4.274  16.203  0.00  0.00    +0.000 C 
ATOM      5  O   UNL     1       6.150   4.521  15.385  0.00  0.00    +0.000 OA
ATOM      6  N   UNL     1       4.991   2.997  16.565  0.00  0.00    +0.000 N 
ATOM      7  C   UNL     1       4.090   2.585  17.505  0.00  0.00    +0.000 C 
ATOM      8  O   UNL     1       3.973   1.369  17.659  0.00  0.00    +0.000 OA
ATOM      9  N   UNL     1       3.349   3.573  18.149  0.00  0.00    +0.000 N 
ATOM     10  C   UNL     1       3.181   4.805  17.520  0.00  0.00    +0.000 C 
ATOM     11  O   UNL     1       2.154   5.472  17.447  0.00  0.00    +0.000 OA
ATOM     12  H   UNL     1       5.538   2.269  16.129  0.00  0.00    +0.000 HD
ENDROOT
BRANCH   9  13
ATOM     13  C   UNL     1       2.626   3.236  19.355  0.00  0.00    +0.000 A 
ATOM     14  C   UNL     1       3.342   2.980  20.543  0.00  0.00    +0.000 A 
ATOM     15  C   UNL     1       2.699   2.724  21.755  0.00  0.00    +0.000 A 
ATOM     16  C   UNL     1       1.310   2.717  21.815  0.00  0.00    +0.000 A 
ATOM     17  C   UNL     1       0.574   2.984  20.660  0.00  0.00    +0.000 A 
ATOM     18  C   UNL     1       1.226   3.250  19.450  0.00  0.00    +0.000 A 
ENDBRANCH   9  13
BRANCH   2  19
ATOM     19  N   UNL     1       6.178   6.984  16.707  0.00  0.00    +0.000 N 
ATOM     20  H   UNL     1       6.116   7.891  16.233  0.00  0.00    +0.000 HD
BRANCH  19  21
ATOM     21  C   UNL     1       7.202   7.166  17.748  0.00  0.00    +0.000 C 
BRANCH  21  22
ATOM     22  C   UNL     1       7.799   8.560  17.675  0.00  0.00    +0.000 C 
BRANCH  22  23
ATOM     23  C   UNL     1       8.809   8.779  18.798  0.00  0.00    +0.000 C 
BRANCH  23  24
ATOM     24  N   UNL     1       9.096  10.179  19.013  0.00  0.00    +0.000 N 
ATOM     25  C   UNL     1       9.297  10.792  20.214  0.00  0.00    +0.000 A 
ATOM     26  C   UNL     1       9.475  12.119  19.902  0.00  0.00    +0.000 A 
ATOM     27  N   UNL     1       9.384  12.321  18.548  0.00  0.00    +0.000 NA
ATOM     28  C   UNL     1       9.153  11.133  18.038  0.00  0.00    +0.000 A 
ENDBRANCH  23  24
ENDBRANCH  22  23
ENDBRANCH  21  22
ENDBRANCH  19  21
ENDBRANCH   2  19
TORSDOF 6
ENDMDL
MODEL 9
REMARK VINA RESULT:      -6.7      1.534      2.991
REMARK  Name = 
REMARK  7 active torsions:
REMARK  status: ('A' for Active; 'I' for Inactive)
REMARK    1  A    between atoms: C_1  and  C_2
REMARK    2  A    between atoms: C_2  and  N_3
REMARK    3  A    between atoms: N_3  and  C_4
REMARK    4  A    between atoms: C_4  and  C_5
REMARK    5  A    between atoms: C_5  and  C_6
REMARK    6  A    between atoms: C_6  and  N_7
REMARK    7  A    between atoms: N_18  and  C_19
REMARK                            x       y       z     vdW  Elec       q    Type
REMARK                         _______ _______ _______ _____ _____    ______ ____
ROOT
ATOM      1  C   UNL     1       2.055   3.560  17.120  0.00  0.00    +0.000 C 
ATOM      2  C   UNL     1       3.151   3.444  18.162  0.00  0.00    +0.000 C 
ATOM      3  C   UNL     1       4.354   4.048  17.997  0.00  0.00    +0.000 C 
ATOM      4  C   UNL     1       5.425   3.893  18.999  0.00  0.00    +0.000 C 
ATOM      5  O   UNL     1       5.250   3.613  20.180  0.00  0.00    +0.000 OA
ATOM      6  N   UNL     1       6.674   4.078  18.501  0.00  0.00    +0.000 N 
ATOM      7  C   UNL     1       7.015   4.328  17.203  0.00  0.00    +0.000 C 
ATOM      8  O   UNL     1       8.213   4.490  16.971  0.00  0.00    +0.000 OA
ATOM      9  N   UNL     1       5.974   4.437  16.284  0.00  0.00    +0.000 N 
ATOM     10  C   UNL     1       4.703   4.774  16.744  0.00  0.00    +0.000 C 
ATOM     11  O   UNL     1       3.912   5.565  16.240  0.00  0.00    +0.000 OA
ATOM     12  H   UNL     1       7.443   3.974  19.148  0.00  0.00    +0.000 HD
ENDROOT
BRANCH   9  13
ATOM     13  C   UNL     1       6.276   4.381  14.870  0.00  0.00    +0.000 A 
ATOM     14  C   UNL     1       7.265   5.235  14.338  0.00  0.00    +0.000 A 
ATOM     15  C   UNL     1       7.651   5.175  12.999  0.00  0.00    +0.000 A 
ATOM     16  C   UNL     1       7.058   4.252  12.146  0.00  0.00    +0.000 A 
ATOM     17  C   UNL     1       6.089   3.382  12.647  0.00  0.00    +0.000 A 
ATOM     18  C   UNL     1       5.713   3.441  13.994  0.00  0.00    +0.000 A 
ENDBRANCH   9  13
BRANCH   2  19
ATOM     19  N   UNL     1       2.874   2.524  19.189  0.00  0.00    +0.000 N 
ATOM     20  H   UNL     1       3.576   2.634  19.927  0.00  0.00    +0.000 HD
BRANCH  19  21
ATOM     21  C   UNL     1       1.579   2.542  19.888  0.00  0.00    +0.000 C 
BRANCH  21  22
ATOM     22  C   UNL     1       1.048   3.961  19.996  0.00  0.00    +0.000 C 
BRANCH  22  23
ATOM     23  C   UNL     1       1.985   4.830  20.831  0.00  0.00    +0.000 C 
BRANCH  23  24
ATOM     24  N   UNL     1       1.941   6.220  20.435  0.00  0.00    +0.000 N 
ATOM     25  C   UNL     1       1.310   7.233  21.095  0.00  0.00    +0.000 A 
ATOM     26  C   UNL     1       1.508   8.339  20.302  0.00  0.00    +0.000 A 
ATOM     27  N   UNL     1       2.237   8.020  19.186  0.00  0.00    +0.000 NA
ATOM     28  C   UNL     1       2.483   6.733  19.292  0.00  0.00    +0.000 A 
ENDBRANCH  23  24
ENDBRANCH  22  23
ENDBRANCH  21  22
ENDBRANCH  19  21
ENDBRANCH   2  19
TORSDOF 6
ENDMDL
