MODEL 1
REMARK VINA RESULT:      -8.5      0.000      0.000
REMARK  Name = 
REMARK  4 active torsions:
REMARK  status: ('A' for Active; 'I' for Inactive)
REMARK    1  A    between atoms: C_1  and  C_2
REMARK    2  A    between atoms: C_7  and  N_8
REMARK    3  A    between atoms: N_8  and  S_9
REMARK    4  A    between atoms: S_9  and  C_12
REMARK                            x       y       z     vdW  Elec       q    Type
REMARK                         _______ _______ _______ _____ _____    ______ ____
ROOT
ATOM      1  S   UNL     1       2.823   4.342  19.491  0.00  0.00    +0.000 S 
ATOM      2  O   UNL     1       3.061   3.281  20.449  0.00  0.00    +0.000 OA
ATOM      3  O   UNL     1       1.625   4.359  18.683  0.00  0.00    +0.000 OA
ENDROOT
BRANCH   1   4
ATOM      4  C   UNL     1       4.233   4.418  18.409  0.00  0.00    +0.000 A 
ATOM      5  C   UNL     1       5.496   4.666  18.958  0.00  0.00    +0.000 A 
ATOM      6  C   UNL     1       6.609   4.749  18.120  0.00  0.00    +0.000 A 
ATOM      7  C   UNL     1       6.454   4.604  16.742  0.00  0.00    +0.000 A 
ATOM      8  C   UNL     1       5.189   4.351  16.198  0.00  0.00    +0.000 A 
ATOM      9  C   UNL     1       4.069   4.276  17.028  0.00  0.00    +0.000 A 
ATOM     10  O   UNL     1       4.977   4.177  14.854  0.00  0.00    +0.000 OA
ATOM     11  C   UNL     1       6.204   3.935  14.153  0.00  0.00    +0.000 C 
ATOM     12  C   UNL     1       7.285   4.905  14.600  0.00  0.00    +0.000 C 
ATOM     13  O   UNL     1       7.592   4.716  15.985  0.00  0.00    +0.000 OA
ENDBRANCH   1   4
BRANCH   1  14
ATOM     14  N   UNL     1       2.936   5.776  20.354  0.00  0.00    +0.000 N 
ATOM     15  H   UNL     1       3.108   5.677  21.351  0.00  0.00    +0.000 HD
BRANCH  14  22
ATOM     16  C   UNL     1      -0.852  12.259  19.508  0.00  0.00    +0.000 C 
ATOM     17  C   UNL     1      -0.069  10.994  19.525  0.00  0.00    +0.000 A 
ATOM     18  N   UNL     1       0.600  10.513  18.500  0.00  0.00    +0.000 NA
ATOM     19  C   UNL     1       1.224   9.329  18.854  0.00  0.00    +0.000 A 
ATOM     20  C   UNL     1       2.033   8.529  18.017  0.00  0.00    +0.000 A 
ATOM     21  C   UNL     1       2.609   7.353  18.519  0.00  0.00    +0.000 A 
ATOM     22  C   UNL     1       2.386   6.974  19.839  0.00  0.00    +0.000 A 
ATOM     23  C   UNL     1       1.573   7.735  20.682  0.00  0.00    +0.000 A 
ATOM     24  C   UNL     1       1.011   8.915  20.169  0.00  0.00    +0.000 A 
ATOM     25  S   UNL     1      -0.001  10.058  20.963  0.00  0.00    +0.000 S 
ENDBRANCH  14  22
ENDBRANCH   1  14
TORSDOF 3
ENDMDL
MODEL 2
REMARK VINA RESULT:      -8.0      2.744      6.966
REMARK  Name = 
REMARK  4 active torsions:
REMARK  status: ('A' for Active; 'I' for Inactive)
REMARK    1  A    between atoms: C_1  and  C_2
REMARK    2  A    between atoms: C_7  and  N_8
REMARK    3  A    between atoms: N_8  and  S_9
REMARK    4  A    between atoms: S_9  and  C_12
REMARK                            x       y       z     vdW  Elec       q    Type
REMARK                         _______ _______ _______ _____ _____    ______ ____
ROOT
ATOM      1  S   UNL     1       2.668   4.025  19.076  0.00  0.00    +0.000 S 
ATOM      2  O   UNL     1       2.421   3.730  17.679  0.00  0.00    +0.000 OA
ATOM      3  O   UNL     1       2.048   3.245  20.122  0.00  0.00    +0.000 OA
ENDROOT
BRANCH   1   4
ATOM      4  C   UNL     1       2.274   5.739  19.343  0.00  0.00    +0.000 A 
ATOM      5  C   UNL     1       1.811   6.141  20.600  0.00  0.00    +0.000 A 
ATOM      6  C   UNL     1       1.478   7.478  20.819  0.00  0.00    +0.000 A 
ATOM      7  C   UNL     1       1.591   8.402  19.780  0.00  0.00    +0.000 A 
ATOM      8  C   UNL     1       2.060   7.996  18.525  0.00  0.00    +0.000 A 
ATOM      9  C   UNL     1       2.386   6.658  18.294  0.00  0.00    +0.000 A 
ATOM     10  O   UNL     1       2.214   8.861  17.471  0.00  0.00    +0.000 OA
ATOM     11  C   UNL     1       2.184  10.228  17.902  0.00  0.00    +0.000 C 
ATOM     12  C   UNL     1       1.043  10.465  18.878  0.00  0.00    +0.000 C 
ATOM     13  O   UNL     1       1.228   9.692  20.069  0.00  0.00    +0.000 OA
ENDBRANCH   1   4
BRANCH   1  14
ATOM     14  N   UNL     1       4.334   3.991  19.266  0.00  0.00    +0.000 N 
ATOM     15  H   UNL     1       4.667   3.940  20.226  0.00  0.00    +0.000 HD
BRANCH  14  22
ATOM     16  C   UNL     1       7.788   5.130  12.643  0.00  0.00    +0.000 C 
ATOM     17  C   UNL     1       7.213   5.000  14.009  0.00  0.00    +0.000 A 
ATOM     18  N   UNL     1       7.649   5.645  15.069  0.00  0.00    +0.000 NA
ATOM     19  C   UNL     1       6.890   5.305  16.176  0.00  0.00    +0.000 A 
ATOM     20  C   UNL     1       7.059   5.800  17.488  0.00  0.00    +0.000 A 
ATOM     21  C   UNL     1       6.203   5.369  18.512  0.00  0.00    +0.000 A 
ATOM     22  C   UNL     1       5.189   4.457  18.239  0.00  0.00    +0.000 A 
ATOM     23  C   UNL     1       5.012   3.936  16.955  0.00  0.00    +0.000 A 
ATOM     24  C   UNL     1       5.870   4.384  15.937  0.00  0.00    +0.000 A 
ATOM     25  S   UNL     1       5.883   3.948  14.272  0.00  0.00    +0.000 S 
ENDBRANCH  14  22
ENDBRANCH   1  14
TORSDOF 3
ENDMDL
MODEL 3
REMARK VINA RESULT:      -7.6      2.784      7.161
REMARK  Name = 
REMARK  4 active torsions:
REMARK  status: ('A' for Active; 'I' for Inactive)
REMARK    1  A    between atoms: C_1  and  C_2
REMARK    2  A    between atoms: C_7  and  N_8
REMARK    3  A    between atoms: N_8  and  S_9
REMARK    4  A    between atoms: S_9  and  C_12
REMARK                            x       y       z     vdW  Elec       q    Type
REMARK                         _______ _______ _______ _____ _____    ______ ____
ROOT
ATOM      1  S   UNL     1       2.857   4.056  19.612  0.00  0.00    +0.000 S 
ATOM      2  O   UNL     1       2.574   3.416  18.343  0.00  0.00    +0.000 OA
ATOM      3  O   UNL     1       2.313   3.534  20.845  0.00  0.00    +0.000 OA
ENDROOT
BRANCH   1   4
ATOM      4  C   UNL     1       2.390   5.766  19.469  0.00  0.00    +0.000 A 
ATOM      5  C   UNL     1       2.607   6.429  18.256  0.00  0.00    +0.000 A 
ATOM      6  C   UNL     1       2.265   7.777  18.135  0.00  0.00    +0.000 A 
ATOM      7  C   UNL     1       1.727   8.458  19.226  0.00  0.00    +0.000 A 
ATOM      8  C   UNL     1       1.507   7.790  20.436  0.00  0.00    +0.000 A 
ATOM      9  C   UNL     1       1.855   6.444  20.569  0.00  0.00    +0.000 A 
ATOM     10  O   UNL     1       0.961   8.400  21.537  0.00  0.00    +0.000 OA
ATOM     11  C   UNL     1       0.338   9.645  21.196  0.00  0.00    +0.000 C 
ATOM     12  C   UNL     1       1.230  10.464  20.276  0.00  0.00    +0.000 C 
ATOM     13  O   UNL     1       1.434   9.784  19.033  0.00  0.00    +0.000 OA
ENDBRANCH   1   4
BRANCH   1  14
ATOM     14  N   UNL     1       4.529   4.134  19.727  0.00  0.00    +0.000 N 
ATOM     15  H   UNL     1       4.904   4.158  20.671  0.00  0.00    +0.000 HD
BRANCH  14  22
ATOM     16  C   UNL     1       7.674   5.049  12.917  0.00  0.00    +0.000 C 
ATOM     17  C   UNL     1       7.152   4.976  14.309  0.00  0.00    +0.000 A 
ATOM     18  N   UNL     1       7.558   5.738  15.301  0.00  0.00    +0.000 NA
ATOM     19  C   UNL     1       6.864   5.421  16.457  0.00  0.00    +0.000 A 
ATOM     20  C   UNL     1       7.025   6.031  17.721  0.00  0.00    +0.000 A 
ATOM     21  C   UNL     1       6.242   5.608  18.805  0.00  0.00    +0.000 A 
ATOM     22  C   UNL     1       5.307   4.591  18.637  0.00  0.00    +0.000 A 
ATOM     23  C   UNL     1       5.142   3.957  17.403  0.00  0.00    +0.000 A 
ATOM     24  C   UNL     1       5.926   4.398  16.325  0.00  0.00    +0.000 A 
ATOM     25  S   UNL     1       5.931   3.834  14.699  0.00  0.00    +0.000 S 
ENDBRANCH  14  22
ENDBRANCH   1  14
TORSDOF 3
ENDMDL
MODEL 4
REMARK VINA RESULT:      -7.6      1.208      1.930
REMARK  Name = 
REMARK  4 active torsions:
REMARK  status: ('A' for Active; 'I' for Inactive)
REMARK    1  A    between atoms: C_1  and  C_2
REMARK    2  A    between atoms: C_7  and  N_8
REMARK    3  A    between atoms: N_8  and  S_9
REMARK    4  A    between atoms: S_9  and  C_12
REMARK                            x       y       z     vdW  Elec       q    Type
REMARK                         _______ _______ _______ _____ _____    ______ ____
ROOT
ATOM      1  S   UNL     1       1.955   4.684  20.584  0.00  0.00    +0.000 S 
ATOM      2  O   UNL     1       2.363   3.757  21.619  0.00  0.00    +0.000 OA
ATOM      3  O   UNL     1       0.631   4.621  20.009  0.00  0.00    +0.000 OA
ENDROOT
BRANCH   1   4
ATOM      4  C   UNL     1       3.146   4.580  19.267  0.00  0.00    +0.000 A 
ATOM      5  C   UNL     1       2.778   3.963  18.066  0.00  0.00    +0.000 A 
ATOM      6  C   UNL     1       3.708   3.856  17.031  0.00  0.00    +0.000 A 
ATOM      7  C   UNL     1       5.002   4.345  17.206  0.00  0.00    +0.000 A 
ATOM      8  C   UNL     1       5.365   4.965  18.407  0.00  0.00    +0.000 A 
ATOM      9  C   UNL     1       4.444   5.068  19.451  0.00  0.00    +0.000 A 
ATOM     10  O   UNL     1       6.615   5.485  18.631  0.00  0.00    +0.000 OA
ATOM     11  C   UNL     1       7.351   5.632  17.409  0.00  0.00    +0.000 C 
ATOM     12  C   UNL     1       7.223   4.388  16.545  0.00  0.00    +0.000 C 
ATOM     13  O   UNL     1       5.862   4.185  16.150  0.00  0.00    +0.000 OA
ENDBRANCH   1   4
BRANCH   1  14
ATOM     14  N   UNL     1       2.221   6.218  21.207  0.00  0.00    +0.000 N 
ATOM     15  H   UNL     1       2.372   6.265  22.212  0.00  0.00    +0.000 HD
BRANCH  14  22
ATOM     16  C   UNL     1      -1.014  12.730  19.150  0.00  0.00    +0.000 C 
ATOM     17  C   UNL     1      -0.322  11.439  19.412  0.00  0.00    +0.000 A 
ATOM     18  N   UNL     1       0.427  10.800  18.539  0.00  0.00    +0.000 NA
ATOM     19  C   UNL     1       0.927   9.639  19.103  0.00  0.00    +0.000 A 
ATOM     20  C   UNL     1       1.773   8.701  18.470  0.00  0.00    +0.000 A 
ATOM     21  C   UNL     1       2.209   7.569  19.174  0.00  0.00    +0.000 A 
ATOM     22  C   UNL     1       1.812   7.369  20.492  0.00  0.00    +0.000 A 
ATOM     23  C   UNL     1       0.960   8.270  21.135  0.00  0.00    +0.000 A 
ATOM     24  C   UNL     1       0.539   9.404  20.422  0.00  0.00    +0.000 A 
ATOM     25  S   UNL     1      -0.480  10.688  20.947  0.00  0.00    +0.000 S 
ENDBRANCH  14  22
ENDBRANCH   1  14
TORSDOF 3
ENDMDL
MODEL 5
REMARK VINA RESULT:      -7.5      1.598      2.084
REMARK  Name = 
REMARK  4 active torsions:
REMARK  status: ('A' for Active; 'I' for Inactive)
REMARK    1  A    between atoms: C_1  and  C_2
REMARK    2  A    between atoms: C_7  and  N_8
REMARK    3  A    between atoms: N_8  and  S_9
REMARK    4  A    between atoms: S_9  and  C_12
REMARK                            x       y       z     vdW  Elec       q    Type
REMARK                         _______ _______ _______ _____ _____    ______ ____
ROOT
ATOM      1  S   UNL     1       4.520   4.391  18.824  0.00  0.00    +0.000 S 
ATOM      2  O   UNL     1       4.996   5.323  19.827  0.00  0.00    +0.000 OA
ATOM      3  O   UNL     1       4.434   2.977  19.105  0.00  0.00    +0.000 OA
ENDROOT
BRANCH   1   4
ATOM      4  C   UNL     1       5.514   4.616  17.366  0.00  0.00    +0.000 A 
ATOM      5  C   UNL     1       6.696   5.359  17.458  0.00  0.00    +0.000 A 
ATOM      6  C   UNL     1       7.475   5.561  16.318  0.00  0.00    +0.000 A 
ATOM      7  C   UNL     1       7.063   5.039  15.093  0.00  0.00    +0.000 A 
ATOM      8  C   UNL     1       5.882   4.293  15.006  0.00  0.00    +0.000 A 
ATOM      9  C   UNL     1       5.091   4.093  16.139  0.00  0.00    +0.000 A 
ATOM     10  O   UNL     1       5.436   3.736  13.834  0.00  0.00    +0.000 OA
ATOM     11  C   UNL     1       6.467   3.706  12.838  0.00  0.00    +0.000 C 
ATOM     12  C   UNL     1       7.203   5.035  12.780  0.00  0.00    +0.000 C 
ATOM     13  O   UNL     1       7.873   5.297  14.017  0.00  0.00    +0.000 OA
ENDBRANCH   1   4
BRANCH   1  14
ATOM     14  N   UNL     1       3.017   4.959  18.343  0.00  0.00    +0.000 N 
ATOM     15  H   UNL     1       2.697   4.640  17.432  0.00  0.00    +0.000 HD
BRANCH  14  22
ATOM     16  C   UNL     1       0.587  12.000  19.611  0.00  0.00    +0.000 C 
ATOM     17  C   UNL     1       1.030  10.583  19.508  0.00  0.00    +0.000 A 
ATOM     18  N   UNL     1       0.938   9.698  20.477  0.00  0.00    +0.000 NA
ATOM     19  C   UNL     1       1.430   8.476  20.050  0.00  0.00    +0.000 A 
ATOM     20  C   UNL     1       1.491   7.289  20.812  0.00  0.00    +0.000 A 
ATOM     21  C   UNL     1       2.010   6.118  20.241  0.00  0.00    +0.000 A 
ATOM     22  C   UNL     1       2.464   6.124  18.926  0.00  0.00    +0.000 A 
ATOM     23  C   UNL     1       2.435   7.290  18.156  0.00  0.00    +0.000 A 
ATOM     24  C   UNL     1       1.904   8.452  18.738  0.00  0.00    +0.000 A 
ATOM     25  S   UNL     1       1.716  10.014  18.041  0.00  0.00    +0.000 S 
ENDBRANCH  14  22
ENDBRANCH   1  14
TORSDOF 3
ENDMDL
MODEL 6
REMARK VINA RESULT:      -7.5      3.245      6.039
REMARK  Name = 
REMARK  4 active torsions:
REMARK  status: ('A' for Active; 'I' for Inactive)
REMARK    1  A    between atoms: C_1  and  C_2
REMARK    2  A    between atoms: C_7  and  N_8
REMARK    3  A    between atoms: N_8  and  S_9
REMARK    4  A    between atoms: S_9  and  C_12
REMARK                            x       y       z     vdW  Elec       q    Type
REMARK                         _______ _______ _______ _____ _____    ______ ____
ROOT
ATOM      1  S   UNL     1       2.796   2.735  17.991  0.00  0.00    +0.000 S 
ATOM      2  O   UNL     1       2.110   2.734  16.715  0.00  0.00    +0.000 OA
ATOM      3  O   UNL     1       2.537   1.710  18.976  0.00  0.00    +0.000 OA
ENDROOT
BRANCH   1   4
ATOM      4  C   UNL     1       2.528   4.323  18.746  0.00  0.00    +0.000 A 
ATOM      5  C   UNL     1       2.489   4.413  20.141  0.00  0.00    +0.000 A 
ATOM      6  C   UNL     1       2.259   5.648  20.748  0.00  0.00    +0.000 A 
ATOM      7  C   UNL     1       2.051   6.781  19.961  0.00  0.00    +0.000 A 
ATOM      8  C   UNL     1       2.097   6.688  18.565  0.00  0.00    +0.000 A 
ATOM      9  C   UNL     1       2.317   5.454  17.950  0.00  0.00    +0.000 A 
ATOM     10  O   UNL     1       1.923   7.769  17.739  0.00  0.00    +0.000 OA
ATOM     11  C   UNL     1       2.048   9.005  18.455  0.00  0.00    +0.000 C 
ATOM     12  C   UNL     1       1.274   8.955  19.762  0.00  0.00    +0.000 C 
ATOM     13  O   UNL     1       1.814   7.953  20.631  0.00  0.00    +0.000 OA
ENDBRANCH   1   4
BRANCH   1  14
ATOM     14  N   UNL     1       4.435   2.763  17.633  0.00  0.00    +0.000 N 
ATOM     15  H   UNL     1       4.965   1.947  17.929  0.00  0.00    +0.000 HD
BRANCH  14  22
ATOM     16  C   UNL     1       8.735   8.955  18.150  0.00  0.00    +0.000 C 
ATOM     17  C   UNL     1       7.837   7.792  17.915  0.00  0.00    +0.000 A 
ATOM     18  N   UNL     1       7.098   7.623  16.840  0.00  0.00    +0.000 NA
ATOM     19  C   UNL     1       6.391   6.437  16.933  0.00  0.00    +0.000 A 
ATOM     20  C   UNL     1       5.498   5.918  15.969  0.00  0.00    +0.000 A 
ATOM     21  C   UNL     1       4.856   4.693  16.198  0.00  0.00    +0.000 A 
ATOM     22  C   UNL     1       5.096   3.987  17.373  0.00  0.00    +0.000 A 
ATOM     23  C   UNL     1       5.958   4.487  18.353  0.00  0.00    +0.000 A 
ATOM     24  C   UNL     1       6.602   5.710  18.105  0.00  0.00    +0.000 A 
ATOM     25  S   UNL     1       7.722   6.556  19.099  0.00  0.00    +0.000 S 
ENDBRANCH  14  22
ENDBRANCH   1  14
TORSDOF 3
ENDMDL
MODEL 7
REMARK VINA RESULT:      -7.5      1.504      1.778
REMARK  Name = 
REMARK  4 active torsions:
REMARK  status: ('A' for Active; 'I' for Inactive)
REMARK    1  A    between atoms: C_1  and  C_2
REMARK    2  A    between atoms: C_7  and  N_8
REMARK    3  A    between atoms: N_8  and  S_9
REMARK    4  A    between atoms: S_9  and  C_12
REMARK                            x       y       z     vdW  Elec       q    Type
REMARK                         _______ _______ _______ _____ _____    ______ ____
ROOT
ATOM      1  S   UNL     1       4.594   4.472  18.926  0.00  0.00    +0.000 S 
ATOM      2  O   UNL     1       5.053   5.463  19.877  0.00  0.00    +0.000 OA
ATOM      3  O   UNL     1       4.572   3.068  19.267  0.00  0.00    +0.000 OA
ENDROOT
BRANCH   1   4
ATOM      4  C   UNL     1       5.545   4.675  17.436  0.00  0.00    +0.000 A 
ATOM      5  C   UNL     1       6.721   5.433  17.480  0.00  0.00    +0.000 A 
ATOM      6  C   UNL     1       7.466   5.618  16.315  0.00  0.00    +0.000 A 
ATOM      7  C   UNL     1       7.028   5.064  15.113  0.00  0.00    +0.000 A 
ATOM      8  C   UNL     1       5.854   4.302  15.075  0.00  0.00    +0.000 A 
ATOM      9  C   UNL     1       5.097   4.119  16.233  0.00  0.00    +0.000 A 
ATOM     10  O   UNL     1       5.384   3.713  13.929  0.00  0.00    +0.000 OA
ATOM     11  C   UNL     1       6.388   3.673  12.906  0.00  0.00    +0.000 C 
ATOM     12  C   UNL     1       7.105   5.008  12.797  0.00  0.00    +0.000 C 
ATOM     13  O   UNL     1       7.806   5.306  14.010  0.00  0.00    +0.000 OA
ENDBRANCH   1   4
BRANCH   1  14
ATOM     14  N   UNL     1       3.059   4.958  18.457  0.00  0.00    +0.000 N 
ATOM     15  H   UNL     1       2.606   4.374  17.758  0.00  0.00    +0.000 HD
BRANCH  14  22
ATOM     16  C   UNL     1       0.185  11.305  21.382  0.00  0.00    +0.000 C 
ATOM     17  C   UNL     1       0.771  10.134  20.675  0.00  0.00    +0.000 A 
ATOM     18  N   UNL     1       1.229  10.156  19.443  0.00  0.00    +0.000 NA
ATOM     19  C   UNL     1       1.712   8.906  19.094  0.00  0.00    +0.000 A 
ATOM     20  C   UNL     1       2.285   8.548  17.854  0.00  0.00    +0.000 A 
ATOM     21  C   UNL     1       2.741   7.239  17.646  0.00  0.00    +0.000 A 
ATOM     22  C   UNL     1       2.630   6.292  18.660  0.00  0.00    +0.000 A 
ATOM     23  C   UNL     1       2.048   6.612  19.888  0.00  0.00    +0.000 A 
ATOM     24  C   UNL     1       1.606   7.930  20.085  0.00  0.00    +0.000 A 
ATOM     25  S   UNL     1       0.879   8.623  21.483  0.00  0.00    +0.000 S 
ENDBRANCH  14  22
ENDBRANCH   1  14
TORSDOF 3
ENDMDL
MODEL 8
REMARK VINA RESULT:      -7.5      1.573      2.112
REMARK  Name = 
REMARK  4 active torsions:
REMARK  status: ('A' for Active; 'I' for Inactive)
REMARK    1  A    between atoms: C_1  and  C_2
REMARK    2  A    between atoms: C_7  and  N_8
REMARK    3  A    between atoms: N_8  and  S_9
REMARK    4  A    between atoms: S_9  and  C_12
REMARK                            x       y       z     vdW  Elec       q    Type
REMARK                         _______ _______ _______ _____ _____    ______ ____
ROOT
ATOM      1  S   UNL     1       3.743   3.784  17.925  0.00  0.00    +0.000 S 
ATOM      2  O   UNL     1       4.055   2.465  18.438  0.00  0.00    +0.000 OA
ATOM      3  O   UNL     1       2.456   4.067  17.335  0.00  0.00    +0.000 OA
ENDROOT
BRANCH   1   4
ATOM      4  C   UNL     1       5.009   4.218  16.753  0.00  0.00    +0.000 A 
ATOM      5  C   UNL     1       6.094   4.991  17.182  0.00  0.00    +0.000 A 
ATOM      6  C   UNL     1       7.084   5.357  16.269  0.00  0.00    +0.000 A 
ATOM      7  C   UNL     1       6.978   4.968  14.934  0.00  0.00    +0.000 A 
ATOM      8  C   UNL     1       5.893   4.191  14.511  0.00  0.00    +0.000 A 
ATOM      9  C   UNL     1       4.893   3.828  15.415  0.00  0.00    +0.000 A 
ATOM     10  O   UNL     1       5.745   3.759  13.217  0.00  0.00    +0.000 OA
ATOM     11  C   UNL     1       6.965   3.888  12.475  0.00  0.00    +0.000 C 
ATOM     12  C   UNL     1       7.609   5.242  12.722  0.00  0.00    +0.000 C 
ATOM     13  O   UNL     1       7.981   5.382  14.097  0.00  0.00    +0.000 OA
ENDBRANCH   1   4
BRANCH   1  14
ATOM     14  N   UNL     1       4.025   4.849  19.190  0.00  0.00    +0.000 N 
ATOM     15  H   UNL     1       4.640   4.507  19.925  0.00  0.00    +0.000 HD
BRANCH  14  22
ATOM     16  C   UNL     1       0.139  11.318  18.813  0.00  0.00    +0.000 C 
ATOM     17  C   UNL     1       0.835  10.020  19.022  0.00  0.00    +0.000 A 
ATOM     18  N   UNL     1       0.632   9.218  20.045  0.00  0.00    +0.000 NA
ATOM     19  C   UNL     1       1.430   8.093  19.931  0.00  0.00    +0.000 A 
ATOM     20  C   UNL     1       1.481   7.010  20.837  0.00  0.00    +0.000 A 
ATOM     21  C   UNL     1       2.337   5.928  20.585  0.00  0.00    +0.000 A 
ATOM     22  C   UNL     1       3.135   5.919  19.445  0.00  0.00    +0.000 A 
ATOM     23  C   UNL     1       3.120   6.986  18.544  0.00  0.00    +0.000 A 
ATOM     24  C   UNL     1       2.250   8.058  18.803  0.00  0.00    +0.000 A 
ATOM     25  S   UNL     1       1.995   9.484  17.876  0.00  0.00    +0.000 S 
ENDBRANCH  14  22
ENDBRANCH   1  14
TORSDOF 3
ENDMDL
MODEL 9
REMARK VINA RESULT:      -7.5      1.002      1.421
REMARK  Name = 
REMARK  4 active torsions:
REMARK  status: ('A' for Active; 'I' for Inactive)
REMARK    1  A    between atoms: C_1  and  C_2
REMARK    2  A    between atoms: C_7  and  N_8
REMARK    3  A    between atoms: N_8  and  S_9
REMARK    4  A    between atoms: S_9  and  C_12
REMARK                            x       y       z     vdW  Elec       q    Type
REMARK                         _______ _______ _______ _____ _____    ______ ____
ROOT
ATOM      1  S   UNL     1       2.723   4.224  19.022  0.00  0.00    +0.000 S 
ATOM      2  O   UNL     1       2.777   2.949  19.709  0.00  0.00    +0.000 OA
ATOM      3  O   UNL     1       1.577   4.590  18.222  0.00  0.00    +0.000 OA
ENDROOT
BRANCH   1   4
ATOM      4  C   UNL     1       4.180   4.353  18.010  0.00  0.00    +0.000 A 
ATOM      5  C   UNL     1       5.411   4.613  18.624  0.00  0.00    +0.000 A 
ATOM      6  C   UNL     1       6.559   4.737  17.841  0.00  0.00    +0.000 A 
ATOM      7  C   UNL     1       6.472   4.620  16.454  0.00  0.00    +0.000 A 
ATOM      8  C   UNL     1       5.240   4.355  15.845  0.00  0.00    +0.000 A 
ATOM      9  C   UNL     1       4.084   4.239  16.619  0.00  0.00    +0.000 A 
ATOM     10  O   UNL     1       5.094   4.208  14.489  0.00  0.00    +0.000 OA
ATOM     11  C   UNL     1       6.358   4.006  13.842  0.00  0.00    +0.000 C 
ATOM     12  C   UNL     1       7.396   4.987  14.361  0.00  0.00    +0.000 C 
ATOM     13  O   UNL     1       7.641   4.773  15.755  0.00  0.00    +0.000 OA
ENDBRANCH   1   4
BRANCH   1  14
ATOM     14  N   UNL     1       2.980   5.392  20.198  0.00  0.00    +0.000 N 
ATOM     15  H   UNL     1       3.422   5.066  21.054  0.00  0.00    +0.000 HD
BRANCH  14  22
ATOM     16  C   UNL     1       0.186  12.198  18.473  0.00  0.00    +0.000 C 
ATOM     17  C   UNL     1       0.649  10.863  18.940  0.00  0.00    +0.000 A 
ATOM     18  N   UNL     1       0.214  10.256  20.023  0.00  0.00    +0.000 NA
ATOM     19  C   UNL     1       0.840   9.029  20.162  0.00  0.00    +0.000 A 
ATOM     20  C   UNL     1       0.626   8.096  21.200  0.00  0.00    +0.000 A 
ATOM     21  C   UNL     1       1.331   6.883  21.206  0.00  0.00    +0.000 A 
ATOM     22  C   UNL     1       2.240   6.598  20.192  0.00  0.00    +0.000 A 
ATOM     23  C   UNL     1       2.486   7.512  19.164  0.00  0.00    +0.000 A 
ATOM     24  C   UNL     1       1.766   8.718  19.166  0.00  0.00    +0.000 A 
ATOM     25  S   UNL     1       1.834  10.013  18.035  0.00  0.00    +0.000 S 
ENDBRANCH  14  22
ENDBRANCH   1  14
TORSDOF 3
ENDMDL
