MODEL 1
REMARK VINA RESULT:     -10.0      0.000      0.000
REMARK  Name = 
REMARK  3 active torsions:
REMARK  status: ('A' for Active; 'I' for Inactive)
REMARK    1  A    between atoms: C_4  and  C_5
REMARK    2  A    between atoms: C_5  and  O_6
REMARK    3  A    between atoms: N_8  and  C_9
REMARK                            x       y       z     vdW  Elec       q    Type
REMARK                         _______ _______ _______ _____ _____    ______ ____
ROOT
ATOM      1  C   UNL     1       1.660   8.489  19.362  0.00  0.00    +0.000 A 
ATOM      2  C   UNL     1       2.120   8.827  18.087  0.00  0.00    +0.000 A 
ATOM      3  C   UNL     1       3.024   8.000  17.396  0.00  0.00    +0.000 A 
ATOM      4  C   UNL     1       3.449   6.780  17.924  0.00  0.00    +0.000 A 
ATOM      5  C   UNL     1       2.905   6.402  19.160  0.00  0.00    +0.000 A 
ATOM      6  C   UNL     1       2.072   7.265  19.894  0.00  0.00    +0.000 A 
ATOM      7  C   UNL     1       3.240   5.037  19.698  0.00  0.00    +0.000 C 
ATOM      8  C   UNL     1       3.310   4.022  18.560  0.00  0.00    +0.000 C 
ATOM      9  C   UNL     1       3.690   2.680  19.176  0.00  0.00    +0.000 C 
ATOM     10  O   UNL     1       4.680   2.428  19.843  0.00  0.00    +0.000 OA
ATOM     11  N   UNL     1       2.681   1.783  18.897  0.00  0.00    +0.000 N 
ATOM     12  N   UNL     1       1.599   2.422  18.348  0.00  0.00    +0.000 N 
ATOM     13  C   UNL     1       1.915   3.721  17.994  0.00  0.00    +0.000 C 
ATOM     14  O   UNL     1       1.188   4.437  17.331  0.00  0.00    +0.000 OA
ATOM     15  C   UNL     1       4.229   4.472  17.410  0.00  0.00    +0.000 C 
ATOM     16  C   UNL     1       5.651   3.851  17.450  0.00  0.00    +0.000 C 
ATOM     17  O   UNL     1       6.427   4.256  16.307  0.00  0.00    +0.000 OA
ATOM     18  C   UNL     1       6.606   5.679  16.306  0.00  0.00    +0.000 C 
ATOM     19  C   UNL     1       5.261   6.424  16.240  0.00  0.00    +0.000 C 
ATOM     20  N   UNL     1       4.389   5.958  17.331  0.00  0.00    +0.000 N 
ATOM     21  H   UNL     1       2.612   0.890  19.375  0.00  0.00    +0.000 HD
ATOM     22  H   UNL     1       0.810   1.936  17.932  0.00  0.00    +0.000 HD
ENDROOT
BRANCH   1  28
ATOM     23  O   UNL     1      -0.739  10.076  18.494  0.00  0.00    +0.000 OA
ATOM     24  C   UNL     1      -0.276  10.058  19.622  0.00  0.00    +0.000 C 
ATOM     25  O   UNL     1      -0.858  10.759  20.650  0.00  0.00    +0.000 OA
ATOM     26  C   UNL     1       0.042  10.728  21.767  0.00  0.00    +0.000 C 
ATOM     27  C   UNL     1       0.900   9.509  21.524  0.00  0.00    +0.000 C 
ATOM     28  N   UNL     1       0.813   9.347  20.104  0.00  0.00    +0.000 N 
BRANCH  26  29
ATOM     29  C   UNL     1      -0.757  10.663  23.062  0.00  0.00    +0.000 C 
BRANCH  29  30
ATOM     30  O   UNL     1      -0.307   9.565  23.854  0.00  0.00    +0.000 OA
ATOM     31  H   UNL     1       0.662   9.662  23.939  0.00  0.00    +0.000 HD
ENDBRANCH  29  30
ENDBRANCH  26  29
ENDBRANCH   1  28
TORSDOF 3
ENDMDL
MODEL 2
REMARK VINA RESULT:      -9.3      0.988      1.152
REMARK  Name = 
REMARK  3 active torsions:
REMARK  status: ('A' for Active; 'I' for Inactive)
REMARK    1  A    between atoms: C_4  and  C_5
REMARK    2  A    between atoms: C_5  and  O_6
REMARK    3  A    between atoms: N_8  and  C_9
REMARK                            x       y       z     vdW  Elec       q    Type
REMARK                         _______ _______ _______ _____ _____    ______ ____
ROOT
ATOM      1  C   UNL     1       1.575   8.518  19.499  0.00  0.00    +0.000 A 
ATOM      2  C   UNL     1       2.001   8.873  18.216  0.00  0.00    +0.000 A 
ATOM      3  C   UNL     1       2.896   8.061  17.496  0.00  0.00    +0.000 A 
ATOM      4  C   UNL     1       3.344   6.841  18.001  0.00  0.00    +0.000 A 
ATOM      5  C   UNL     1       2.834   6.445  19.246  0.00  0.00    +0.000 A 
ATOM      6  C   UNL     1       2.012   7.293  20.008  0.00  0.00    +0.000 A 
ATOM      7  C   UNL     1       3.194   5.078  19.762  0.00  0.00    +0.000 C 
ATOM      8  C   UNL     1       3.246   4.075  18.613  0.00  0.00    +0.000 C 
ATOM      9  C   UNL     1       3.653   2.731  19.205  0.00  0.00    +0.000 C 
ATOM     10  O   UNL     1       4.661   2.481  19.846  0.00  0.00    +0.000 OA
ATOM     11  N   UNL     1       2.646   1.827  18.942  0.00  0.00    +0.000 N 
ATOM     12  N   UNL     1       1.544   2.461  18.425  0.00  0.00    +0.000 N 
ATOM     13  C   UNL     1       1.840   3.766  18.077  0.00  0.00    +0.000 C 
ATOM     14  O   UNL     1       1.090   4.482  17.439  0.00  0.00    +0.000 OA
ATOM     15  C   UNL     1       4.133   4.545  17.445  0.00  0.00    +0.000 C 
ATOM     16  C   UNL     1       5.560   3.937  17.444  0.00  0.00    +0.000 C 
ATOM     17  O   UNL     1       6.305   4.360  16.287  0.00  0.00    +0.000 OA
ATOM     18  C   UNL     1       6.471   5.784  16.296  0.00  0.00    +0.000 C 
ATOM     19  C   UNL     1       5.118   6.517  16.270  0.00  0.00    +0.000 C 
ATOM     20  N   UNL     1       4.277   6.033  17.377  0.00  0.00    +0.000 N 
ATOM     21  H   UNL     1       2.596   0.928  19.413  0.00  0.00    +0.000 HD
ATOM     22  H   UNL     1       0.751   1.972  18.024  0.00  0.00    +0.000 HD
ENDROOT
BRANCH   1  28
ATOM     23  O   UNL     1      -0.446   7.839  21.615  0.00  0.00    +0.000 OA
ATOM     24  C   UNL     1      -0.183   8.964  21.226  0.00  0.00    +0.000 C 
ATOM     25  O   UNL     1      -0.784  10.072  21.772  0.00  0.00    +0.000 OA
ATOM     26  C   UNL     1      -0.450  11.202  20.953  0.00  0.00    +0.000 C 
ATOM     27  C   UNL     1       0.821  10.791  20.248  0.00  0.00    +0.000 C 
ATOM     28  N   UNL     1       0.739   9.361  20.270  0.00  0.00    +0.000 N 
BRANCH  26  29
ATOM     29  C   UNL     1      -0.288  12.436  21.829  0.00  0.00    +0.000 C 
BRANCH  29  30
ATOM     30  O   UNL     1      -0.641  12.125  23.176  0.00  0.00    +0.000 OA
ATOM     31  H   UNL     1      -0.103  12.710  23.746  0.00  0.00    +0.000 HD
ENDBRANCH  29  30
ENDBRANCH  26  29
ENDBRANCH   1  28
TORSDOF 3
ENDMDL
MODEL 3
REMARK VINA RESULT:      -9.3      1.461      2.261
REMARK  Name = 
REMARK  3 active torsions:
REMARK  status: ('A' for Active; 'I' for Inactive)
REMARK    1  A    between atoms: C_4  and  C_5
REMARK    2  A    between atoms: C_5  and  O_6
REMARK    3  A    between atoms: N_8  and  C_9
REMARK                            x       y       z     vdW  Elec       q    Type
REMARK                         _______ _______ _______ _____ _____    ______ ____
ROOT
ATOM      1  C   UNL     1       1.376   8.841  19.052  0.00  0.00    +0.000 A 
ATOM      2  C   UNL     1       2.268   8.946  17.982  0.00  0.00    +0.000 A 
ATOM      3  C   UNL     1       3.246   7.961  17.752  0.00  0.00    +0.000 A 
ATOM      4  C   UNL     1       3.326   6.812  18.539  0.00  0.00    +0.000 A 
ATOM      5  C   UNL     1       2.363   6.667  19.549  0.00  0.00    +0.000 A 
ATOM      6  C   UNL     1       1.443   7.689  19.839  0.00  0.00    +0.000 A 
ATOM      7  C   UNL     1       2.339   5.383  20.332  0.00  0.00    +0.000 C 
ATOM      8  C   UNL     1       2.662   4.201  19.421  0.00  0.00    +0.000 C 
ATOM      9  C   UNL     1       2.657   2.948  20.289  0.00  0.00    +0.000 C 
ATOM     10  O   UNL     1       3.333   2.735  21.281  0.00  0.00    +0.000 OA
ATOM     11  N   UNL     1       1.699   2.090  19.792  0.00  0.00    +0.000 N 
ATOM     12  N   UNL     1       0.942   2.709  18.830  0.00  0.00    +0.000 N 
ATOM     13  C   UNL     1       1.507   3.913  18.450  0.00  0.00    +0.000 C 
ATOM     14  O   UNL     1       1.130   4.566  17.495  0.00  0.00    +0.000 OA
ATOM     15  C   UNL     1       3.956   4.403  18.611  0.00  0.00    +0.000 C 
ATOM     16  C   UNL     1       5.201   3.700  19.214  0.00  0.00    +0.000 C 
ATOM     17  O   UNL     1       6.354   3.868  18.367  0.00  0.00    +0.000 OA
ATOM     18  C   UNL     1       6.688   5.258  18.254  0.00  0.00    +0.000 C 
ATOM     19  C   UNL     1       5.538   6.074  17.639  0.00  0.00    +0.000 C 
ATOM     20  N   UNL     1       4.306   5.845  18.410  0.00  0.00    +0.000 N 
ATOM     21  H   UNL     1       1.371   1.289  20.323  0.00  0.00    +0.000 HD
ATOM     22  H   UNL     1       0.284   2.220  18.231  0.00  0.00    +0.000 HD
ENDROOT
BRANCH   1  28
ATOM     23  O   UNL     1       1.188  10.682  21.419  0.00  0.00    +0.000 OA
ATOM     24  C   UNL     1       0.414  10.664  20.476  0.00  0.00    +0.000 C 
ATOM     25  O   UNL     1      -0.633  11.548  20.388  0.00  0.00    +0.000 OA
ATOM     26  C   UNL     1      -1.479  11.121  19.311  0.00  0.00    +0.000 C 
ATOM     27  C   UNL     1      -0.576  10.291  18.431  0.00  0.00    +0.000 C 
ATOM     28  N   UNL     1       0.438   9.860  19.347  0.00  0.00    +0.000 N 
BRANCH  26  29
ATOM     29  C   UNL     1      -2.062  12.339  18.608  0.00  0.00    +0.000 C 
BRANCH  29  30
ATOM     30  O   UNL     1      -1.290  12.646  17.449  0.00  0.00    +0.000 OA
ATOM     31  H   UNL     1      -1.061  13.595  17.510  0.00  0.00    +0.000 HD
ENDBRANCH  29  30
ENDBRANCH  26  29
ENDBRANCH   1  28
TORSDOF 3
ENDMDL
MODEL 4
REMARK VINA RESULT:      -9.2      0.911      1.611
REMARK  Name = 
REMARK  3 active torsions:
REMARK  status: ('A' for Active; 'I' for Inactive)
REMARK    1  A    between atoms: C_4  and  C_5
REMARK    2  A    between atoms: C_5  and  O_6
REMARK    3  A    between atoms: N_8  and  C_9
REMARK                            x       y       z     vdW  Elec       q    Type
REMARK                         _______ _______ _______ _____ _____    ______ ____
ROOT
ATOM      1  C   UNL     1       1.659   8.516  19.462  0.00  0.00    +0.000 A 
ATOM      2  C   UNL     1       2.100   8.862  18.183  0.00  0.00    +0.000 A 
ATOM      3  C   UNL     1       2.983   8.032  17.468  0.00  0.00    +0.000 A 
ATOM      4  C   UNL     1       3.403   6.802  17.977  0.00  0.00    +0.000 A 
ATOM      5  C   UNL     1       2.876   6.417  19.219  0.00  0.00    +0.000 A 
ATOM      6  C   UNL     1       2.067   7.283  19.975  0.00  0.00    +0.000 A 
ATOM      7  C   UNL     1       3.205   5.044  19.737  0.00  0.00    +0.000 C 
ATOM      8  C   UNL     1       3.244   4.039  18.589  0.00  0.00    +0.000 C 
ATOM      9  C   UNL     1       3.619   2.687  19.185  0.00  0.00    +0.000 C 
ATOM     10  O   UNL     1       4.617   2.417  19.831  0.00  0.00    +0.000 OA
ATOM     11  N   UNL     1       2.595   1.804  18.915  0.00  0.00    +0.000 N 
ATOM     12  N   UNL     1       1.511   2.461  18.391  0.00  0.00    +0.000 N 
ATOM     13  C   UNL     1       1.835   3.759  18.044  0.00  0.00    +0.000 C 
ATOM     14  O   UNL     1       1.105   4.490  17.401  0.00  0.00    +0.000 OA
ATOM     15  C   UNL     1       4.148   4.490  17.427  0.00  0.00    +0.000 C 
ATOM     16  C   UNL     1       5.562   3.853  17.436  0.00  0.00    +0.000 C 
ATOM     17  O   UNL     1       6.323   4.260  16.283  0.00  0.00    +0.000 OA
ATOM     18  C   UNL     1       6.518   5.681  16.293  0.00  0.00    +0.000 C 
ATOM     19  C   UNL     1       5.181   6.441  16.258  0.00  0.00    +0.000 C 
ATOM     20  N   UNL     1       4.323   5.975  17.359  0.00  0.00    +0.000 N 
ATOM     21  H   UNL     1       2.524   0.907  19.386  0.00  0.00    +0.000 HD
ATOM     22  H   UNL     1       0.710   1.988  17.984  0.00  0.00    +0.000 HD
ENDROOT
BRANCH   1  28
ATOM     23  O   UNL     1       1.800   9.262  22.369  0.00  0.00    +0.000 OA
ATOM     24  C   UNL     1       0.961   9.661  21.579  0.00  0.00    +0.000 C 
ATOM     25  O   UNL     1      -0.010  10.556  21.953  0.00  0.00    +0.000 OA
ATOM     26  C   UNL     1      -0.966  10.638  20.885  0.00  0.00    +0.000 C 
ATOM     27  C   UNL     1      -0.202  10.187  19.663  0.00  0.00    +0.000 C 
ATOM     28  N   UNL     1       0.835   9.376  20.227  0.00  0.00    +0.000 N 
BRANCH  26  29
ATOM     29  C   UNL     1      -1.493  12.063  20.782  0.00  0.00    +0.000 C 
BRANCH  29  30
ATOM     30  O   UNL     1      -2.557  12.119  19.834  0.00  0.00    +0.000 OA
ATOM     31  H   UNL     1      -2.509  11.292  19.314  0.00  0.00    +0.000 HD
ENDBRANCH  29  30
ENDBRANCH  26  29
ENDBRANCH   1  28
TORSDOF 3
ENDMDL
MODEL 5
REMARK VINA RESULT:      -9.0      1.079      1.090
REMARK  Name = 
REMARK  3 active torsions:
REMARK  status: ('A' for Active; 'I' for Inactive)
REMARK    1  A    between atoms: C_4  and  C_5
REMARK    2  A    between atoms: C_5  and  O_6
REMARK    3  A    between atoms: N_8  and  C_9
REMARK                            x       y       z     vdW  Elec       q    Type
REMARK                         _______ _______ _______ _____ _____    ______ ____
ROOT
ATOM      1  C   UNL     1       1.391   8.827  19.216  0.00  0.00    +0.000 A 
ATOM      2  C   UNL     1       2.207   9.001  18.096  0.00  0.00    +0.000 A 
ATOM      3  C   UNL     1       3.171   8.040  17.742  0.00  0.00    +0.000 A 
ATOM      4  C   UNL     1       3.309   6.847  18.452  0.00  0.00    +0.000 A 
ATOM      5  C   UNL     1       2.418   6.635  19.514  0.00  0.00    +0.000 A 
ATOM      6  C   UNL     1       1.515   7.631  19.927  0.00  0.00    +0.000 A 
ATOM      7  C   UNL     1       2.452   5.307  20.219  0.00  0.00    +0.000 C 
ATOM      8  C   UNL     1       2.717   4.184  19.220  0.00  0.00    +0.000 C 
ATOM      9  C   UNL     1       2.776   2.882  20.011  0.00  0.00    +0.000 C 
ATOM     10  O   UNL     1       3.519   2.615  20.940  0.00  0.00    +0.000 OA
ATOM     11  N   UNL     1       1.789   2.047  19.530  0.00  0.00    +0.000 N 
ATOM     12  N   UNL     1       0.966   2.715  18.659  0.00  0.00    +0.000 N 
ATOM     13  C   UNL     1       1.500   3.944  18.315  0.00  0.00    +0.000 C 
ATOM     14  O   UNL     1       1.056   4.649  17.428  0.00  0.00    +0.000 OA
ATOM     15  C   UNL     1       3.952   4.443  18.338  0.00  0.00    +0.000 C 
ATOM     16  C   UNL     1       5.237   3.715  18.812  0.00  0.00    +0.000 C 
ATOM     17  O   UNL     1       6.329   3.942  17.901  0.00  0.00    +0.000 OA
ATOM     18  C   UNL     1       6.650   5.339  17.848  0.00  0.00    +0.000 C 
ATOM     19  C   UNL     1       5.457   6.181  17.362  0.00  0.00    +0.000 C 
ATOM     20  N   UNL     1       4.282   5.897  18.200  0.00  0.00    +0.000 N 
ATOM     21  H   UNL     1       1.501   1.213  20.033  0.00  0.00    +0.000 HD
ATOM     22  H   UNL     1       0.271   2.257  18.079  0.00  0.00    +0.000 HD
ENDROOT
BRANCH   1  28
ATOM     23  O   UNL     1      -1.040   9.927  17.834  0.00  0.00    +0.000 OA
ATOM     24  C   UNL     1      -0.627  10.283  18.925  0.00  0.00    +0.000 C 
ATOM     25  O   UNL     1      -1.288  11.229  19.670  0.00  0.00    +0.000 OA
ATOM     26  C   UNL     1      -0.439  11.595  20.767  0.00  0.00    +0.000 C 
ATOM     27  C   UNL     1       0.486  10.413  20.936  0.00  0.00    +0.000 C 
ATOM     28  N   UNL     1       0.471   9.819  19.633  0.00  0.00    +0.000 N 
BRANCH  26  29
ATOM     29  C   UNL     1      -1.291  11.882  21.996  0.00  0.00    +0.000 C 
BRANCH  29  30
ATOM     30  O   UNL     1      -0.636  11.392  23.165  0.00  0.00    +0.000 OA
ATOM     31  H   UNL     1       0.322  11.402  22.972  0.00  0.00    +0.000 HD
ENDBRANCH  29  30
ENDBRANCH  26  29
ENDBRANCH   1  28
TORSDOF 3
ENDMDL
MODEL 6
REMARK VINA RESULT:      -8.8      2.003      3.987
REMARK  Name = 
REMARK  3 active torsions:
REMARK  status: ('A' for Active; 'I' for Inactive)
REMARK    1  A    between atoms: C_4  and  C_5
REMARK    2  A    between atoms: C_5  and  O_6
REMARK    3  A    between atoms: N_8  and  C_9
REMARK                            x       y       z     vdW  Elec       q    Type
REMARK                         _______ _______ _______ _____ _____    ______ ____
ROOT
ATOM      1  C   UNL     1       1.882   8.097  19.578  0.00  0.00    +0.000 A 
ATOM      2  C   UNL     1       1.522   7.198  20.585  0.00  0.00    +0.000 A 
ATOM      3  C   UNL     1       1.806   5.825  20.471  0.00  0.00    +0.000 A 
ATOM      4  C   UNL     1       2.513   5.313  19.382  0.00  0.00    +0.000 A 
ATOM      5  C   UNL     1       2.957   6.236  18.424  0.00  0.00    +0.000 A 
ATOM      6  C   UNL     1       2.598   7.594  18.489  0.00  0.00    +0.000 A 
ATOM      7  C   UNL     1       3.830   5.737  17.305  0.00  0.00    +0.000 C 
ATOM      8  C   UNL     1       4.785   4.662  17.818  0.00  0.00    +0.000 C 
ATOM      9  C   UNL     1       5.605   4.182  16.626  0.00  0.00    +0.000 C 
ATOM     10  O   UNL     1       5.185   3.713  15.581  0.00  0.00    +0.000 OA
ATOM     11  N   UNL     1       6.935   4.418  16.902  0.00  0.00    +0.000 N 
ATOM     12  N   UNL     1       7.071   5.173  18.039  0.00  0.00    +0.000 N 
ATOM     13  C   UNL     1       5.872   5.264  18.721  0.00  0.00    +0.000 C 
ATOM     14  O   UNL     1       5.765   5.726  19.843  0.00  0.00    +0.000 OA
ATOM     15  C   UNL     1       4.066   3.537  18.585  0.00  0.00    +0.000 C 
ATOM     16  C   UNL     1       3.799   2.262  17.742  0.00  0.00    +0.000 C 
ATOM     17  O   UNL     1       3.195   1.228  18.541  0.00  0.00    +0.000 OA
ATOM     18  C   UNL     1       1.920   1.662  19.034  0.00  0.00    +0.000 C 
ATOM     19  C   UNL     1       2.046   2.916  19.917  0.00  0.00    +0.000 C 
ATOM     20  N   UNL     1       2.760   3.968  19.175  0.00  0.00    +0.000 N 
ATOM     21  H   UNL     1       7.648   4.374  16.179  0.00  0.00    +0.000 HD
ATOM     22  H   UNL     1       7.959   5.335  18.504  0.00  0.00    +0.000 HD
ENDROOT
BRANCH   1  28
ATOM     23  O   UNL     1       1.232   9.831  21.943  0.00  0.00    +0.000 OA
ATOM     24  C   UNL     1       1.235  10.197  20.779  0.00  0.00    +0.000 C 
ATOM     25  O   UNL     1       0.970  11.500  20.434  0.00  0.00    +0.000 OA
ATOM     26  C   UNL     1       0.815  11.554  19.009  0.00  0.00    +0.000 C 
ATOM     27  C   UNL     1       1.561  10.341  18.504  0.00  0.00    +0.000 C 
ATOM     28  N   UNL     1       1.534   9.467  19.639  0.00  0.00    +0.000 N 
BRANCH  26  29
ATOM     29  C   UNL     1       1.371  12.871  18.486  0.00  0.00    +0.000 C 
BRANCH  29  30
ATOM     30  O   UNL     1       2.307  12.622  17.439  0.00  0.00    +0.000 OA
ATOM     31  H   UNL     1       3.194  12.650  17.847  0.00  0.00    +0.000 HD
ENDBRANCH  29  30
ENDBRANCH  26  29
ENDBRANCH   1  28
TORSDOF 3
ENDMDL
MODEL 7
REMARK VINA RESULT:      -8.6      1.822      3.541
REMARK  Name = 
REMARK  3 active torsions:
REMARK  status: ('A' for Active; 'I' for Inactive)
REMARK    1  A    between atoms: C_4  and  C_5
REMARK    2  A    between atoms: C_5  and  O_6
REMARK    3  A    between atoms: N_8  and  C_9
REMARK                            x       y       z     vdW  Elec       q    Type
REMARK                         _______ _______ _______ _____ _____    ______ ____
ROOT
ATOM      1  C   UNL     1       1.876   7.825  19.707  0.00  0.00    +0.000 A 
ATOM      2  C   UNL     1       1.569   6.881  20.690  0.00  0.00    +0.000 A 
ATOM      3  C   UNL     1       1.910   5.526  20.529  0.00  0.00    +0.000 A 
ATOM      4  C   UNL     1       2.623   5.079  19.416  0.00  0.00    +0.000 A 
ATOM      5  C   UNL     1       3.014   6.050  18.482  0.00  0.00    +0.000 A 
ATOM      6  C   UNL     1       2.597   7.388  18.594  0.00  0.00    +0.000 A 
ATOM      7  C   UNL     1       3.893   5.624  17.338  0.00  0.00    +0.000 C 
ATOM      8  C   UNL     1       4.900   4.576  17.804  0.00  0.00    +0.000 C 
ATOM      9  C   UNL     1       5.723   4.169  16.588  0.00  0.00    +0.000 C 
ATOM     10  O   UNL     1       5.309   3.715  15.534  0.00  0.00    +0.000 OA
ATOM     11  N   UNL     1       7.045   4.454  16.854  0.00  0.00    +0.000 N 
ATOM     12  N   UNL     1       7.164   5.179  18.013  0.00  0.00    +0.000 N 
ATOM     13  C   UNL     1       5.971   5.197  18.712  0.00  0.00    +0.000 C 
ATOM     14  O   UNL     1       5.860   5.618  19.849  0.00  0.00    +0.000 OA
ATOM     15  C   UNL     1       4.240   3.397  18.544  0.00  0.00    +0.000 C 
ATOM     16  C   UNL     1       4.017   2.139  17.665  0.00  0.00    +0.000 C 
ATOM     17  O   UNL     1       3.469   1.055  18.438  0.00  0.00    +0.000 OA
ATOM     18  C   UNL     1       2.183   1.418  18.960  0.00  0.00    +0.000 C 
ATOM     19  C   UNL     1       2.268   2.649  19.881  0.00  0.00    +0.000 C 
ATOM     20  N   UNL     1       2.925   3.753  19.164  0.00  0.00    +0.000 N 
ATOM     21  H   UNL     1       7.749   4.463  16.122  0.00  0.00    +0.000 HD
ATOM     22  H   UNL     1       8.051   5.365  18.471  0.00  0.00    +0.000 HD
ENDROOT
BRANCH   1  28
ATOM     23  O   UNL     1       1.626   9.953  17.601  0.00  0.00    +0.000 OA
ATOM     24  C   UNL     1       1.392  10.105  18.788  0.00  0.00    +0.000 C 
ATOM     25  O   UNL     1       0.936  11.301  19.283  0.00  0.00    +0.000 OA
ATOM     26  C   UNL     1       0.987  11.232  20.715  0.00  0.00    +0.000 C 
ATOM     27  C   UNL     1       0.955   9.754  21.021  0.00  0.00    +0.000 C 
ATOM     28  N   UNL     1       1.470   9.177  19.815  0.00  0.00    +0.000 N 
BRANCH  26  29
ATOM     29  C   UNL     1      -0.186  12.002  21.305  0.00  0.00    +0.000 C 
BRANCH  29  30
ATOM     30  O   UNL     1      -0.269  11.759  22.708  0.00  0.00    +0.000 OA
ATOM     31  H   UNL     1      -0.805  12.486  23.084  0.00  0.00    +0.000 HD
ENDBRANCH  29  30
ENDBRANCH  26  29
ENDBRANCH   1  28
TORSDOF 3
ENDMDL
MODEL 8
REMARK VINA RESULT:      -8.4      2.959      7.887
REMARK  Name = 
REMARK  3 active torsions:
REMARK  status: ('A' for Active; 'I' for Inactive)
REMARK    1  A    between atoms: C_4  and  C_5
REMARK    2  A    between atoms: C_5  and  O_6
REMARK    3  A    between atoms: N_8  and  C_9
REMARK                            x       y       z     vdW  Elec       q    Type
REMARK                         _______ _______ _______ _____ _____    ______ ____
ROOT
ATOM      1  C   UNL     1       5.557   4.865  14.908  0.00  0.00    +0.000 A 
ATOM      2  C   UNL     1       5.721   6.178  15.358  0.00  0.00    +0.000 A 
ATOM      3  C   UNL     1       5.026   6.653  16.485  0.00  0.00    +0.000 A 
ATOM      4  C   UNL     1       4.196   5.820  17.237  0.00  0.00    +0.000 A 
ATOM      5  C   UNL     1       4.115   4.478  16.837  0.00  0.00    +0.000 A 
ATOM      6  C   UNL     1       4.736   4.022  15.661  0.00  0.00    +0.000 A 
ATOM      7  C   UNL     1       3.333   3.524  17.698  0.00  0.00    +0.000 C 
ATOM      8  C   UNL     1       3.527   3.862  19.174  0.00  0.00    +0.000 C 
ATOM      9  C   UNL     1       2.678   2.882  19.976  0.00  0.00    +0.000 C 
ATOM     10  O   UNL     1       1.476   2.698  19.883  0.00  0.00    +0.000 OA
ATOM     11  N   UNL     1       3.518   2.177  20.811  0.00  0.00    +0.000 N 
ATOM     12  N   UNL     1       4.832   2.434  20.513  0.00  0.00    +0.000 N 
ATOM     13  C   UNL     1       4.944   3.506  19.647  0.00  0.00    +0.000 C 
ATOM     14  O   UNL     1       6.000   4.044  19.369  0.00  0.00    +0.000 OA
ATOM     15  C   UNL     1       3.252   5.344  19.492  0.00  0.00    +0.000 C 
ATOM     16  C   UNL     1       1.842   5.618  20.078  0.00  0.00    +0.000 C 
ATOM     17  O   UNL     1       1.683   7.007  20.420  0.00  0.00    +0.000 OA
ATOM     18  C   UNL     1       1.800   7.824  19.248  0.00  0.00    +0.000 C 
ATOM     19  C   UNL     1       3.177   7.667  18.578  0.00  0.00    +0.000 C 
ATOM     20  N   UNL     1       3.431   6.242  18.309  0.00  0.00    +0.000 N 
ATOM     21  H   UNL     1       3.215   1.332  21.287  0.00  0.00    +0.000 HD
ATOM     22  H   UNL     1       5.609   2.139  21.095  0.00  0.00    +0.000 HD
ENDROOT
BRANCH   1  28
ATOM     23  O   UNL     1       8.126   5.717  13.605  0.00  0.00    +0.000 OA
ATOM     24  C   UNL     1       7.375   4.852  13.186  0.00  0.00    +0.000 C 
ATOM     25  O   UNL     1       7.670   4.131  12.055  0.00  0.00    +0.000 OA
ATOM     26  C   UNL     1       6.502   3.378  11.697  0.00  0.00    +0.000 C 
ATOM     27  C   UNL     1       5.722   3.263  12.985  0.00  0.00    +0.000 C 
ATOM     28  N   UNL     1       6.186   4.394  13.731  0.00  0.00    +0.000 N 
BRANCH  26  29
ATOM     29  C   UNL     1       6.921   2.035  11.117  0.00  0.00    +0.000 C 
BRANCH  29  30
ATOM     30  O   UNL     1       5.992   1.026  11.510  0.00  0.00    +0.000 OA
ATOM     31  H   UNL     1       5.740   0.548  10.695  0.00  0.00    +0.000 HD
ENDBRANCH  29  30
ENDBRANCH  26  29
ENDBRANCH   1  28
TORSDOF 3
ENDMDL
MODEL 9
REMARK VINA RESULT:      -7.9      2.345      8.292
REMARK  Name = 
REMARK  3 active torsions:
REMARK  status: ('A' for Active; 'I' for Inactive)
REMARK    1  A    between atoms: C_4  and  C_5
REMARK    2  A    between atoms: C_5  and  O_6
REMARK    3  A    between atoms: N_8  and  C_9
REMARK                            x       y       z     vdW  Elec       q    Type
REMARK                         _______ _______ _______ _____ _____    ______ ____
ROOT
ATOM      1  C   UNL     1       1.896   7.431  19.744  0.00  0.00    +0.000 A 
ATOM      2  C   UNL     1       1.059   7.231  20.845  0.00  0.00    +0.000 A 
ATOM      3  C   UNL     1       0.279   8.279  21.366  0.00  0.00    +0.000 A 
ATOM      4  C   UNL     1       0.259   9.541  20.770  0.00  0.00    +0.000 A 
ATOM      5  C   UNL     1       1.025   9.705  19.607  0.00  0.00    +0.000 A 
ATOM      6  C   UNL     1       1.874   8.688  19.136  0.00  0.00    +0.000 A 
ATOM      7  C   UNL     1       0.926  11.011  18.866  0.00  0.00    +0.000 C 
ATOM      8  C   UNL     1      -0.507  11.535  18.907  0.00  0.00    +0.000 C 
ATOM      9  C   UNL     1      -0.519  12.872  18.174  0.00  0.00    +0.000 C 
ATOM     10  O   UNL     1       0.152  13.859  18.427  0.00  0.00    +0.000 OA
ATOM     11  N   UNL     1      -1.394  12.768  17.114  0.00  0.00    +0.000 N 
ATOM     12  N   UNL     1      -1.805  11.470  16.946  0.00  0.00    +0.000 N 
ATOM     13  C   UNL     1      -1.437  10.688  18.026  0.00  0.00    +0.000 C 
ATOM     14  O   UNL     1      -1.832   9.551  18.203  0.00  0.00    +0.000 OA
ATOM     15  C   UNL     1      -1.085  11.592  20.333  0.00  0.00    +0.000 C 
ATOM     16  C   UNL     1      -1.029  12.998  20.987  0.00  0.00    +0.000 C 
ATOM     17  O   UNL     1      -1.654  12.992  22.285  0.00  0.00    +0.000 OA
ATOM     18  C   UNL     1      -0.954  12.105  23.168  0.00  0.00    +0.000 C 
ATOM     19  C   UNL     1      -0.958  10.658  22.646  0.00  0.00    +0.000 C 
ATOM     20  N   UNL     1      -0.428  10.630  21.273  0.00  0.00    +0.000 N 
ATOM     21  H   UNL     1      -1.414  13.455  16.366  0.00  0.00    +0.000 HD
ATOM     22  H   UNL     1      -2.559  11.195  16.325  0.00  0.00    +0.000 HD
ENDROOT
BRANCH   1  28
ATOM     23  O   UNL     1       3.907   7.481  17.513  0.00  0.00    +0.000 OA
ATOM     24  C   UNL     1       3.646   6.512  18.206  0.00  0.00    +0.000 C 
ATOM     25  O   UNL     1       4.305   5.317  18.048  0.00  0.00    +0.000 OA
ATOM     26  C   UNL     1       3.617   4.330  18.829  0.00  0.00    +0.000 C 
ATOM     27  C   UNL     1       2.882   5.128  19.880  0.00  0.00    +0.000 C 
ATOM     28  N   UNL     1       2.747   6.411  19.256  0.00  0.00    +0.000 N 
BRANCH  26  29
ATOM     29  C   UNL     1       4.624   3.345  19.407  0.00  0.00    +0.000 C 
BRANCH  29  30
ATOM     30  O   UNL     1       5.945   3.713  19.012  0.00  0.00    +0.000 OA
ATOM     31  H   UNL     1       6.556   3.191  19.567  0.00  0.00    +0.000 HD
ENDBRANCH  29  30
ENDBRANCH  26  29
ENDBRANCH   1  28
TORSDOF 3
ENDMDL
