MODEL 1
REMARK VINA RESULT:      -6.8      0.000      0.000
REMARK  Name = 
REMARK  1 active torsions:
REMARK  status: ('A' for Active; 'I' for Inactive)
REMARK    1  A    between atoms: C_1  and  C_2
REMARK                            x       y       z     vdW  Elec       q    Type
REMARK                         _______ _______ _______ _____ _____    ______ ____
ROOT
ATOM      1  C   UNL     1       2.743   2.175  17.481  0.00  0.00    +0.000 C 
ATOM      2  C   UNL     1       3.785   3.184  17.868  0.00  0.00    +0.000 A 
ATOM      3  C   UNL     1       4.049   3.472  19.213  0.00  0.00    +0.000 A 
ATOM      4  C   UNL     1       5.076   4.359  19.564  0.00  0.00    +0.000 A 
ATOM      5  C   UNL     1       5.842   4.976  18.574  0.00  0.00    +0.000 A 
ATOM      6  C   UNL     1       5.542   4.724  17.243  0.00  0.00    +0.000 A 
ATOM      7  C   UNL     1       4.529   3.831  16.877  0.00  0.00    +0.000 A 
ATOM      8  S   UNL     1       6.501   5.478  15.996  0.00  0.00    +0.000 S 
ATOM      9  O   UNL     1       5.602   6.197  15.115  0.00  0.00    +0.000 OA
ATOM     10  O   UNL     1       7.418   4.481  15.487  0.00  0.00    +0.000 OA
ATOM     11  N   UNL     1       7.376   6.615  16.796  0.00  0.00    +0.000 N 
ATOM     12  C   UNL     1       7.610   6.640  18.155  0.00  0.00    +0.000 C 
ATOM     13  O   UNL     1       8.398   7.448  18.627  0.00  0.00    +0.000 OA
ATOM     14  N   UNL     1       6.886   5.819  18.965  0.00  0.00    +0.000 N 
ATOM     15  H   UNL     1       7.632   7.438  16.264  0.00  0.00    +0.000 HD
ATOM     16  H   UNL     1       7.086   5.941  19.950  0.00  0.00    +0.000 HD
ENDROOT
TORSDOF 0
ENDMDL
MODEL 2
REMARK VINA RESULT:      -6.7      4.432      5.256
REMARK  Name = 
REMARK  1 active torsions:
REMARK  status: ('A' for Active; 'I' for Inactive)
REMARK    1  A    between atoms: C_1  and  C_2
REMARK                            x       y       z     vdW  Elec       q    Type
REMARK                         _______ _______ _______ _____ _____    ______ ____
ROOT
ATOM      1  C   UNL     1       2.465   8.301  17.674  0.00  0.00    +0.000 C 
ATOM      2  C   UNL     1       3.114   7.000  18.047  0.00  0.00    +0.000 A 
ATOM      3  C   UNL     1       4.415   6.693  17.627  0.00  0.00    +0.000 A 
ATOM      4  C   UNL     1       5.039   5.511  18.044  0.00  0.00    +0.000 A 
ATOM      5  C   UNL     1       4.365   4.615  18.876  0.00  0.00    +0.000 A 
ATOM      6  C   UNL     1       3.059   4.901  19.247  0.00  0.00    +0.000 A 
ATOM      7  C   UNL     1       2.427   6.085  18.850  0.00  0.00    +0.000 A 
ATOM      8  S   UNL     1       2.211   3.797  20.299  0.00  0.00    +0.000 S 
ATOM      9  O   UNL     1       0.975   3.417  19.643  0.00  0.00    +0.000 OA
ATOM     10  O   UNL     1       2.214   4.370  21.628  0.00  0.00    +0.000 OA
ATOM     11  N   UNL     1       3.159   2.455  20.319  0.00  0.00    +0.000 N 
ATOM     12  C   UNL     1       4.489   2.405  19.959  0.00  0.00    +0.000 C 
ATOM     13  O   UNL     1       5.139   1.388  20.154  0.00  0.00    +0.000 OA
ATOM     14  N   UNL     1       5.037   3.468  19.307  0.00  0.00    +0.000 N 
ATOM     15  H   UNL     1       2.681   1.574  20.464  0.00  0.00    +0.000 HD
ATOM     16  H   UNL     1       6.002   3.325  19.036  0.00  0.00    +0.000 HD
ENDROOT
TORSDOF 0
ENDMDL
MODEL 3
REMARK VINA RESULT:      -6.7      1.536      1.765
REMARK  Name = 
REMARK  1 active torsions:
REMARK  status: ('A' for Active; 'I' for Inactive)
REMARK    1  A    between atoms: C_1  and  C_2
REMARK                            x       y       z     vdW  Elec       q    Type
REMARK                         _______ _______ _______ _____ _____    ______ ____
ROOT
ATOM      1  C   UNL     1       2.428   2.591  17.570  0.00  0.00    +0.000 C 
ATOM      2  C   UNL     1       3.260   3.840  17.542  0.00  0.00    +0.000 A 
ATOM      3  C   UNL     1       2.724   5.076  17.923  0.00  0.00    +0.000 A 
ATOM      4  C   UNL     1       3.531   6.221  17.966  0.00  0.00    +0.000 A 
ATOM      5  C   UNL     1       4.880   6.144  17.617  0.00  0.00    +0.000 A 
ATOM      6  C   UNL     1       5.392   4.927  17.192  0.00  0.00    +0.000 A 
ATOM      7  C   UNL     1       4.603   3.772  17.157  0.00  0.00    +0.000 A 
ATOM      8  S   UNL     1       7.080   4.815  16.767  0.00  0.00    +0.000 S 
ATOM      9  O   UNL     1       7.167   4.284  15.421  0.00  0.00    +0.000 OA
ATOM     10  O   UNL     1       7.769   4.182  17.872  0.00  0.00    +0.000 OA
ATOM     11  N   UNL     1       7.578   6.378  16.684  0.00  0.00    +0.000 N 
ATOM     12  C   UNL     1       6.932   7.458  17.249  0.00  0.00    +0.000 C 
ATOM     13  O   UNL     1       7.467   8.558  17.254  0.00  0.00    +0.000 OA
ATOM     14  N   UNL     1       5.662   7.298  17.715  0.00  0.00    +0.000 N 
ATOM     15  H   UNL     1       8.334   6.573  16.039  0.00  0.00    +0.000 HD
ATOM     16  H   UNL     1       5.247   8.153  18.065  0.00  0.00    +0.000 HD
ENDROOT
TORSDOF 0
ENDMDL
MODEL 4
REMARK VINA RESULT:      -6.6      4.554      5.449
REMARK  Name = 
REMARK  1 active torsions:
REMARK  status: ('A' for Active; 'I' for Inactive)
REMARK    1  A    between atoms: C_1  and  C_2
REMARK                            x       y       z     vdW  Elec       q    Type
REMARK                         _______ _______ _______ _____ _____    ______ ____
ROOT
ATOM      1  C   UNL     1       4.845   6.638  16.640  0.00  0.00    +0.000 C 
ATOM      2  C   UNL     1       4.071   6.045  17.781  0.00  0.00    +0.000 A 
ATOM      3  C   UNL     1       3.085   6.783  18.447  0.00  0.00    +0.000 A 
ATOM      4  C   UNL     1       2.316   6.195  19.460  0.00  0.00    +0.000 A 
ATOM      5  C   UNL     1       2.533   4.866  19.826  0.00  0.00    +0.000 A 
ATOM      6  C   UNL     1       3.545   4.156  19.197  0.00  0.00    +0.000 A 
ATOM      7  C   UNL     1       4.312   4.725  18.174  0.00  0.00    +0.000 A 
ATOM      8  S   UNL     1       3.817   2.489  19.635  0.00  0.00    +0.000 S 
ATOM      9  O   UNL     1       5.207   2.351  20.021  0.00  0.00    +0.000 OA
ATOM     10  O   UNL     1       3.238   1.664  18.596  0.00  0.00    +0.000 OA
ATOM     11  N   UNL     1       2.931   2.285  21.003  0.00  0.00    +0.000 N 
ATOM     12  C   UNL     1       1.896   3.096  21.419  0.00  0.00    +0.000 C 
ATOM     13  O   UNL     1       1.206   2.769  22.374  0.00  0.00    +0.000 OA
ATOM     14  N   UNL     1       1.716   4.301  20.809  0.00  0.00    +0.000 N 
ATOM     15  H   UNL     1       3.276   1.596  21.660  0.00  0.00    +0.000 HD
ATOM     16  H   UNL     1       0.968   4.852  21.212  0.00  0.00    +0.000 HD
ENDROOT
TORSDOF 0
ENDMDL
MODEL 5
REMARK VINA RESULT:      -6.6      3.480      4.168
REMARK  Name = 
REMARK  1 active torsions:
REMARK  status: ('A' for Active; 'I' for Inactive)
REMARK    1  A    between atoms: C_1  and  C_2
REMARK                            x       y       z     vdW  Elec       q    Type
REMARK                         _______ _______ _______ _____ _____    ______ ____
ROOT
ATOM      1  C   UNL     1       2.144   8.885  17.815  0.00  0.00    +0.000 C 
ATOM      2  C   UNL     1       2.563   7.581  18.430  0.00  0.00    +0.000 A 
ATOM      3  C   UNL     1       1.952   7.102  19.596  0.00  0.00    +0.000 A 
ATOM      4  C   UNL     1       2.298   5.849  20.118  0.00  0.00    +0.000 A 
ATOM      5  C   UNL     1       3.266   5.066  19.488  0.00  0.00    +0.000 A 
ATOM      6  C   UNL     1       3.902   5.568  18.362  0.00  0.00    +0.000 A 
ATOM      7  C   UNL     1       3.559   6.812  17.820  0.00  0.00    +0.000 A 
ATOM      8  S   UNL     1       5.104   4.594  17.555  0.00  0.00    +0.000 S 
ATOM      9  O   UNL     1       6.325   5.371  17.471  0.00  0.00    +0.000 OA
ATOM     10  O   UNL     1       4.487   4.029  16.374  0.00  0.00    +0.000 OA
ATOM     11  N   UNL     1       5.402   3.371  18.611  0.00  0.00    +0.000 N 
ATOM     12  C   UNL     1       4.579   2.987  19.649  0.00  0.00    +0.000 C 
ATOM     13  O   UNL     1       4.824   1.969  20.281  0.00  0.00    +0.000 OA
ATOM     14  N   UNL     1       3.551   3.802  20.013  0.00  0.00    +0.000 N 
ATOM     15  H   UNL     1       6.333   2.973  18.582  0.00  0.00    +0.000 HD
ATOM     16  H   UNL     1       3.032   3.468  20.816  0.00  0.00    +0.000 HD
ENDROOT
TORSDOF 0
ENDMDL
MODEL 6
REMARK VINA RESULT:      -6.6      1.889      3.252
REMARK  Name = 
REMARK  1 active torsions:
REMARK  status: ('A' for Active; 'I' for Inactive)
REMARK    1  A    between atoms: C_1  and  C_2
REMARK                            x       y       z     vdW  Elec       q    Type
REMARK                         _______ _______ _______ _____ _____    ______ ____
ROOT
ATOM      1  C   UNL     1       2.636   4.708  20.671  0.00  0.00    +0.000 C 
ATOM      2  C   UNL     1       3.330   4.505  19.356  0.00  0.00    +0.000 A 
ATOM      3  C   UNL     1       2.660   3.941  18.263  0.00  0.00    +0.000 A 
ATOM      4  C   UNL     1       3.294   3.827  17.019  0.00  0.00    +0.000 A 
ATOM      5  C   UNL     1       4.608   4.265  16.856  0.00  0.00    +0.000 A 
ATOM      6  C   UNL     1       5.283   4.777  17.955  0.00  0.00    +0.000 A 
ATOM      7  C   UNL     1       4.659   4.910  19.200  0.00  0.00    +0.000 A 
ATOM      8  S   UNL     1       6.922   5.342  17.762  0.00  0.00    +0.000 S 
ATOM      9  O   UNL     1       7.751   4.645  18.726  0.00  0.00    +0.000 OA
ATOM     10  O   UNL     1       6.883   6.788  17.707  0.00  0.00    +0.000 OA
ATOM     11  N   UNL     1       7.365   4.787  16.280  0.00  0.00    +0.000 N 
ATOM     12  C   UNL     1       6.503   4.378  15.284  0.00  0.00    +0.000 C 
ATOM     13  O   UNL     1       6.933   4.124  14.168  0.00  0.00    +0.000 OA
ATOM     14  N   UNL     1       5.191   4.176  15.589  0.00  0.00    +0.000 N 
ATOM     15  H   UNL     1       8.351   4.591  16.153  0.00  0.00    +0.000 HD
ATOM     16  H   UNL     1       4.643   3.827  14.812  0.00  0.00    +0.000 HD
ENDROOT
TORSDOF 0
ENDMDL
MODEL 7
REMARK VINA RESULT:      -6.6      3.831      4.724
REMARK  Name = 
REMARK  1 active torsions:
REMARK  status: ('A' for Active; 'I' for Inactive)
REMARK    1  A    between atoms: C_1  and  C_2
REMARK                            x       y       z     vdW  Elec       q    Type
REMARK                         _______ _______ _______ _____ _____    ______ ____
ROOT
ATOM      1  C   UNL     1       6.202   4.620  14.512  0.00  0.00    +0.000 C 
ATOM      2  C   UNL     1       5.384   5.036  15.700  0.00  0.00    +0.000 A 
ATOM      3  C   UNL     1       5.275   6.382  16.070  0.00  0.00    +0.000 A 
ATOM      4  C   UNL     1       4.449   6.765  17.133  0.00  0.00    +0.000 A 
ATOM      5  C   UNL     1       3.731   5.806  17.848  0.00  0.00    +0.000 A 
ATOM      6  C   UNL     1       3.882   4.469  17.509  0.00  0.00    +0.000 A 
ATOM      7  C   UNL     1       4.693   4.072  16.441  0.00  0.00    +0.000 A 
ATOM      8  S   UNL     1       2.979   3.260  18.385  0.00  0.00    +0.000 S 
ATOM      9  O   UNL     1       3.921   2.290  18.907  0.00  0.00    +0.000 OA
ATOM     10  O   UNL     1       1.866   2.857  17.552  0.00  0.00    +0.000 OA
ATOM     11  N   UNL     1       2.378   4.070  19.681  0.00  0.00    +0.000 N 
ATOM     12  C   UNL     1       2.254   5.440  19.787  0.00  0.00    +0.000 C 
ATOM     13  O   UNL     1       1.656   5.931  20.734  0.00  0.00    +0.000 OA
ATOM     14  N   UNL     1       2.882   6.232  18.873  0.00  0.00    +0.000 N 
ATOM     15  H   UNL     1       2.230   3.523  20.521  0.00  0.00    +0.000 HD
ATOM     16  H   UNL     1       2.780   7.222  19.057  0.00  0.00    +0.000 HD
ENDROOT
TORSDOF 0
ENDMDL
MODEL 8
REMARK VINA RESULT:      -6.5      4.186      5.054
REMARK  Name = 
REMARK  1 active torsions:
REMARK  status: ('A' for Active; 'I' for Inactive)
REMARK    1  A    between atoms: C_1  and  C_2
REMARK                            x       y       z     vdW  Elec       q    Type
REMARK                         _______ _______ _______ _____ _____    ______ ____
ROOT
ATOM      1  C   UNL     1       5.419   5.411  15.389  0.00  0.00    +0.000 C 
ATOM      2  C   UNL     1       4.839   5.157  16.750  0.00  0.00    +0.000 A 
ATOM      3  C   UNL     1       4.904   6.127  17.757  0.00  0.00    +0.000 A 
ATOM      4  C   UNL     1       4.293   5.908  18.999  0.00  0.00    +0.000 A 
ATOM      5  C   UNL     1       3.620   4.712  19.251  0.00  0.00    +0.000 A 
ATOM      6  C   UNL     1       3.602   3.735  18.266  0.00  0.00    +0.000 A 
ATOM      7  C   UNL     1       4.196   3.944  17.016  0.00  0.00    +0.000 A 
ATOM      8  S   UNL     1       2.751   2.242  18.563  0.00  0.00    +0.000 S 
ATOM      9  O   UNL     1       3.679   1.149  18.348  0.00  0.00    +0.000 OA
ATOM     10  O   UNL     1       1.490   2.309  17.856  0.00  0.00    +0.000 OA
ATOM     11  N   UNL     1       2.434   2.274  20.174  0.00  0.00    +0.000 N 
ATOM     12  C   UNL     1       2.445   3.399  20.973  0.00  0.00    +0.000 C 
ATOM     13  O   UNL     1       2.049   3.334  22.129  0.00  0.00    +0.000 OA
ATOM     14  N   UNL     1       2.984   4.550  20.485  0.00  0.00    +0.000 N 
ATOM     15  H   UNL     1       2.377   1.375  20.636  0.00  0.00    +0.000 HD
ATOM     16  H   UNL     1       2.997   5.309  21.155  0.00  0.00    +0.000 HD
ENDROOT
TORSDOF 0
ENDMDL
MODEL 9
REMARK VINA RESULT:      -6.5      2.906      3.715
REMARK  Name = 
REMARK  1 active torsions:
REMARK  status: ('A' for Active; 'I' for Inactive)
REMARK    1  A    between atoms: C_1  and  C_2
REMARK                            x       y       z     vdW  Elec       q    Type
REMARK                         _______ _______ _______ _____ _____    ______ ____
ROOT
ATOM      1  C   UNL     1       1.533   6.840  20.586  0.00  0.00    +0.000 C 
ATOM      2  C   UNL     1       2.558   6.683  19.500  0.00  0.00    +0.000 A 
ATOM      3  C   UNL     1       2.500   7.454  18.333  0.00  0.00    +0.000 A 
ATOM      4  C   UNL     1       3.504   7.353  17.361  0.00  0.00    +0.000 A 
ATOM      5  C   UNL     1       4.571   6.472  17.540  0.00  0.00    +0.000 A 
ATOM      6  C   UNL     1       4.596   5.675  18.676  0.00  0.00    +0.000 A 
ATOM      7  C   UNL     1       3.608   5.773  19.662  0.00  0.00    +0.000 A 
ATOM      8  S   UNL     1       5.932   4.580  18.919  0.00  0.00    +0.000 S 
ATOM      9  O   UNL     1       5.389   3.249  19.109  0.00  0.00    +0.000 OA
ATOM     10  O   UNL     1       6.816   5.179  19.896  0.00  0.00    +0.000 OA
ATOM     11  N   UNL     1       6.707   4.564  17.471  0.00  0.00    +0.000 N 
ATOM     12  C   UNL     1       6.583   5.519  16.483  0.00  0.00    +0.000 C 
ATOM     13  O   UNL     1       7.318   5.489  15.506  0.00  0.00    +0.000 OA
ATOM     14  N   UNL     1       5.577   6.433  16.570  0.00  0.00    +0.000 N 
ATOM     15  H   UNL     1       7.193   3.708  17.233  0.00  0.00    +0.000 HD
ATOM     16  H   UNL     1       5.529   7.061  15.778  0.00  0.00    +0.000 HD
ENDROOT
TORSDOF 0
ENDMDL
