MODEL 1
REMARK VINA RESULT:      -9.1      0.000      0.000
REMARK  Name = 
REMARK  4 active torsions:
REMARK  status: ('A' for Active; 'I' for Inactive)
REMARK    1  A    between atoms: C_6  and  C_7
REMARK    2  A    between atoms: N_9  and  S_10
REMARK    3  A    between atoms: S_10  and  C_13
REMARK    4  A    between atoms: C_16  and  N_17
REMARK                            x       y       z     vdW  Elec       q    Type
REMARK                         _______ _______ _______ _____ _____    ______ ____
ROOT
ATOM      1  C   UNL     1       5.704   4.498  15.814  0.00  0.00    +0.000 A 
ATOM      2  C   UNL     1       4.375   4.230  16.097  0.00  0.00    +0.000 A 
ATOM      3  N   UNL     1       4.178   4.427  17.444  0.00  0.00    +0.000 N 
ATOM      4  C   UNL     1       5.354   4.775  18.072  0.00  0.00    +0.000 A 
ATOM      5  C   UNL     1       5.666   5.073  19.411  0.00  0.00    +0.000 A 
ATOM      6  C   UNL     1       6.971   5.464  19.724  0.00  0.00    +0.000 A 
ATOM      7  C   UNL     1       7.949   5.541  18.741  0.00  0.00    +0.000 A 
ATOM      8  C   UNL     1       7.642   5.225  17.415  0.00  0.00    +0.000 A 
ATOM      9  C   UNL     1       6.329   4.839  17.062  0.00  0.00    +0.000 A 
ENDROOT
BRANCH   1  15
ATOM     10  N   UNL     1       8.939   6.051  12.755  0.00  0.00    +0.000 N 
ATOM     11  C   UNL     1       7.865   5.227  13.018  0.00  0.00    +0.000 A 
ATOM     12  N   UNL     1       7.443   4.446  12.021  0.00  0.00    +0.000 NA
ATOM     13  C   UNL     1       6.412   3.629  12.294  0.00  0.00    +0.000 A 
ATOM     14  C   UNL     1       5.793   3.574  13.518  0.00  0.00    +0.000 A 
ATOM     15  C   UNL     1       6.286   4.437  14.473  0.00  0.00    +0.000 A 
ATOM     16  N   UNL     1       7.314   5.279  14.233  0.00  0.00    +0.000 NA
ATOM     17  H   UNL     1       9.026   6.213  11.763  0.00  0.00    +0.000 HD
ATOM     18  H   UNL     1       8.938   6.854  13.368  0.00  0.00    +0.000 HD
ENDBRANCH   1  15
BRANCH   3  19
ATOM     19  S   UNL     1       2.678   4.126  18.213  0.00  0.00    +0.000 S 
ATOM     20  O   UNL     1       1.690   3.923  17.168  0.00  0.00    +0.000 OA
ATOM     21  O   UNL     1       2.947   3.100  19.203  0.00  0.00    +0.000 OA
BRANCH  19  22
ATOM     22  C   UNL     1       2.305   5.637  19.067  0.00  0.00    +0.000 A 
ATOM     23  C   UNL     1       1.875   5.599  20.397  0.00  0.00    +0.000 A 
ATOM     24  C   UNL     1       1.483   6.782  21.031  0.00  0.00    +0.000 A 
ATOM     25  C   UNL     1       1.549   7.997  20.335  0.00  0.00    +0.000 A 
ATOM     26  C   UNL     1       2.077   8.045  19.036  0.00  0.00    +0.000 A 
ATOM     27  C   UNL     1       2.461   6.859  18.402  0.00  0.00    +0.000 A 
BRANCH  25  28
ATOM     28  N   UNL     1       1.013   9.221  20.947  0.00  0.00    +0.000 N 
ATOM     29  O   UNL     1       0.713  10.157  20.193  0.00  0.00    +0.000 OA
ATOM     30  O   UNL     1       0.919   9.253  22.182  0.00  0.00    +0.000 OA
ENDBRANCH  25  28
ENDBRANCH  19  22
ENDBRANCH   3  19
TORSDOF 4
ENDMDL
MODEL 2
REMARK VINA RESULT:      -9.1      0.262      1.121
REMARK  Name = 
REMARK  4 active torsions:
REMARK  status: ('A' for Active; 'I' for Inactive)
REMARK    1  A    between atoms: C_6  and  C_7
REMARK    2  A    between atoms: N_9  and  S_10
REMARK    3  A    between atoms: S_10  and  C_13
REMARK    4  A    between atoms: C_16  and  N_17
REMARK                            x       y       z     vdW  Elec       q    Type
REMARK                         _______ _______ _______ _____ _____    ______ ____
ROOT
ATOM      1  C   UNL     1       5.758   4.450  15.809  0.00  0.00    +0.000 A 
ATOM      2  C   UNL     1       4.452   4.087  16.092  0.00  0.00    +0.000 A 
ATOM      3  N   UNL     1       4.240   4.272  17.438  0.00  0.00    +0.000 N 
ATOM      4  C   UNL     1       5.388   4.705  18.066  0.00  0.00    +0.000 A 
ATOM      5  C   UNL     1       5.678   5.028  19.404  0.00  0.00    +0.000 A 
ATOM      6  C   UNL     1       6.951   5.513  19.716  0.00  0.00    +0.000 A 
ATOM      7  C   UNL     1       7.921   5.657  18.733  0.00  0.00    +0.000 A 
ATOM      8  C   UNL     1       7.638   5.318  17.407  0.00  0.00    +0.000 A 
ATOM      9  C   UNL     1       6.357   4.837  17.056  0.00  0.00    +0.000 A 
ENDROOT
BRANCH   1  15
ATOM     10  N   UNL     1       8.989   6.103  12.799  0.00  0.00    +0.000 N 
ATOM     11  C   UNL     1       7.920   5.266  13.038  0.00  0.00    +0.000 A 
ATOM     12  N   UNL     1       7.505   4.510  12.019  0.00  0.00    +0.000 NA
ATOM     13  C   UNL     1       6.478   3.679  12.268  0.00  0.00    +0.000 A 
ATOM     14  C   UNL     1       5.857   3.588  13.488  0.00  0.00    +0.000 A 
ATOM     15  C   UNL     1       6.342   4.428  14.467  0.00  0.00    +0.000 A 
ATOM     16  N   UNL     1       7.366   5.282  14.252  0.00  0.00    +0.000 NA
ATOM     17  H   UNL     1       9.077   6.291  11.812  0.00  0.00    +0.000 HD
ATOM     18  H   UNL     1       8.983   6.889  13.434  0.00  0.00    +0.000 HD
ENDBRANCH   1  15
BRANCH   3  19
ATOM     19  S   UNL     1       2.766   3.866  18.208  0.00  0.00    +0.000 S 
ATOM     20  O   UNL     1       1.811   3.536  17.165  0.00  0.00    +0.000 OA
ATOM     21  O   UNL     1       3.116   2.904  19.238  0.00  0.00    +0.000 OA
BRANCH  19  22
ATOM     22  C   UNL     1       2.250   5.366  19.003  0.00  0.00    +0.000 A 
ATOM     23  C   UNL     1       2.352   6.586  18.326  0.00  0.00    +0.000 A 
ATOM     24  C   UNL     1       2.042   7.775  18.993  0.00  0.00    +0.000 A 
ATOM     25  C   UNL     1       1.610   7.730  20.326  0.00  0.00    +0.000 A 
ATOM     26  C   UNL     1       1.413   6.499  20.970  0.00  0.00    +0.000 A 
ATOM     27  C   UNL     1       1.730   5.313  20.302  0.00  0.00    +0.000 A 
BRANCH  25  28
ATOM     28  N   UNL     1       1.414   8.981  21.073  0.00  0.00    +0.000 N 
ATOM     29  O   UNL     1       1.496   8.931  22.309  0.00  0.00    +0.000 OA
ATOM     30  O   UNL     1       1.153  10.004  20.425  0.00  0.00    +0.000 OA
ENDBRANCH  25  28
ENDBRANCH  19  22
ENDBRANCH   3  19
TORSDOF 4
ENDMDL
MODEL 3
REMARK VINA RESULT:      -8.7      2.737      7.754
REMARK  Name = 
REMARK  4 active torsions:
REMARK  status: ('A' for Active; 'I' for Inactive)
REMARK    1  A    between atoms: C_6  and  C_7
REMARK    2  A    between atoms: N_9  and  S_10
REMARK    3  A    between atoms: S_10  and  C_13
REMARK    4  A    between atoms: C_16  and  N_17
REMARK                            x       y       z     vdW  Elec       q    Type
REMARK                         _______ _______ _______ _____ _____    ______ ____
ROOT
ATOM      1  C   UNL     1       2.616   6.577  19.449  0.00  0.00    +0.000 A 
ATOM      2  C   UNL     1       3.947   6.380  19.122  0.00  0.00    +0.000 A 
ATOM      3  N   UNL     1       4.231   5.043  19.277  0.00  0.00    +0.000 N 
ATOM      4  C   UNL     1       3.132   4.353  19.743  0.00  0.00    +0.000 A 
ATOM      5  C   UNL     1       2.920   2.998  20.054  0.00  0.00    +0.000 A 
ATOM      6  C   UNL     1       1.642   2.593  20.450  0.00  0.00    +0.000 A 
ATOM      7  C   UNL     1       0.603   3.508  20.553  0.00  0.00    +0.000 A 
ATOM      8  C   UNL     1       0.820   4.858  20.262  0.00  0.00    +0.000 A 
ATOM      9  C   UNL     1       2.097   5.298  19.847  0.00  0.00    +0.000 A 
ENDROOT
BRANCH   1  15
ATOM     10  N   UNL     1       0.305  10.053  21.641  0.00  0.00    +0.000 N 
ATOM     11  C   UNL     1       0.809   9.528  20.470  0.00  0.00    +0.000 A 
ATOM     12  N   UNL     1       0.625  10.243  19.358  0.00  0.00    +0.000 NA
ATOM     13  C   UNL     1       1.141   9.735  18.226  0.00  0.00    +0.000 A 
ATOM     14  C   UNL     1       1.821   8.544  18.172  0.00  0.00    +0.000 A 
ATOM     15  C   UNL     1       1.935   7.869  19.368  0.00  0.00    +0.000 A 
ATOM     16  N   UNL     1       1.422   8.344  20.524  0.00  0.00    +0.000 NA
ATOM     17  H   UNL     1      -0.432  10.714  21.444  0.00  0.00    +0.000 HD
ATOM     18  H   UNL     1       0.121   9.325  22.315  0.00  0.00    +0.000 HD
ENDBRANCH   1  15
BRANCH   3  19
ATOM     19  S   UNL     1       5.799   4.396  19.044  0.00  0.00    +0.000 S 
ATOM     20  O   UNL     1       6.727   5.242  19.773  0.00  0.00    +0.000 OA
ATOM     21  O   UNL     1       5.684   2.979  19.338  0.00  0.00    +0.000 OA
BRANCH  19  22
ATOM     22  C   UNL     1       6.102   4.579  17.305  0.00  0.00    +0.000 A 
ATOM     23  C   UNL     1       5.241   3.981  16.379  0.00  0.00    +0.000 A 
ATOM     24  C   UNL     1       5.543   4.041  15.016  0.00  0.00    +0.000 A 
ATOM     25  C   UNL     1       6.694   4.719  14.589  0.00  0.00    +0.000 A 
ATOM     26  C   UNL     1       7.500   5.403  15.511  0.00  0.00    +0.000 A 
ATOM     27  C   UNL     1       7.199   5.336  16.875  0.00  0.00    +0.000 A 
BRANCH  25  28
ATOM     28  N   UNL     1       7.089   4.671  13.174  0.00  0.00    +0.000 N 
ATOM     29  O   UNL     1       6.585   3.787  12.467  0.00  0.00    +0.000 OA
ATOM     30  O   UNL     1       7.922   5.499  12.780  0.00  0.00    +0.000 OA
ENDBRANCH  25  28
ENDBRANCH  19  22
ENDBRANCH   3  19
TORSDOF 4
ENDMDL
MODEL 4
REMARK VINA RESULT:      -8.7      2.781      7.723
REMARK  Name = 
REMARK  4 active torsions:
REMARK  status: ('A' for Active; 'I' for Inactive)
REMARK    1  A    between atoms: C_6  and  C_7
REMARK    2  A    between atoms: N_9  and  S_10
REMARK    3  A    between atoms: S_10  and  C_13
REMARK    4  A    between atoms: C_16  and  N_17
REMARK                            x       y       z     vdW  Elec       q    Type
REMARK                         _______ _______ _______ _____ _____    ______ ____
ROOT
ATOM      1  C   UNL     1       2.531   6.498  19.776  0.00  0.00    +0.000 A 
ATOM      2  C   UNL     1       3.875   6.393  19.460  0.00  0.00    +0.000 A 
ATOM      3  N   UNL     1       4.189   5.057  19.375  0.00  0.00    +0.000 N 
ATOM      4  C   UNL     1       3.098   4.270  19.673  0.00  0.00    +0.000 A 
ATOM      5  C   UNL     1       2.913   2.876  19.724  0.00  0.00    +0.000 A 
ATOM      6  C   UNL     1       1.637   2.379  19.999  0.00  0.00    +0.000 A 
ATOM      7  C   UNL     1       0.571   3.237  20.236  0.00  0.00    +0.000 A 
ATOM      8  C   UNL     1       0.760   4.621  20.205  0.00  0.00    +0.000 A 
ATOM      9  C   UNL     1       2.035   5.157  19.917  0.00  0.00    +0.000 A 
ENDROOT
BRANCH   1  15
ATOM     10  N   UNL     1       1.153  10.567  17.833  0.00  0.00    +0.000 N 
ATOM     11  C   UNL     1       1.179   9.736  18.933  0.00  0.00    +0.000 A 
ATOM     12  N   UNL     1       0.556  10.166  20.032  0.00  0.00    +0.000 NA
ATOM     13  C   UNL     1       0.567   9.338  21.090  0.00  0.00    +0.000 A 
ATOM     14  C   UNL     1       1.180   8.111  21.085  0.00  0.00    +0.000 A 
ATOM     15  C   UNL     1       1.818   7.769  19.912  0.00  0.00    +0.000 A 
ATOM     16  N   UNL     1       1.836   8.579  18.831  0.00  0.00    +0.000 NA
ATOM     17  H   UNL     1       0.982  11.521  18.115  0.00  0.00    +0.000 HD
ATOM     18  H   UNL     1       1.936  10.386  17.223  0.00  0.00    +0.000 HD
ENDBRANCH   1  15
BRANCH   3  19
ATOM     19  S   UNL     1       5.780   4.497  19.077  0.00  0.00    +0.000 S 
ATOM     20  O   UNL     1       6.694   5.478  19.633  0.00  0.00    +0.000 OA
ATOM     21  O   UNL     1       5.797   3.116  19.522  0.00  0.00    +0.000 OA
BRANCH  19  22
ATOM     22  C   UNL     1       5.932   4.512  17.308  0.00  0.00    +0.000 A 
ATOM     23  C   UNL     1       4.857   4.107  16.511  0.00  0.00    +0.000 A 
ATOM     24  C   UNL     1       5.017   4.021  15.125  0.00  0.00    +0.000 A 
ATOM     25  C   UNL     1       6.247   4.365  14.546  0.00  0.00    +0.000 A 
ATOM     26  C   UNL     1       7.291   4.867  15.338  0.00  0.00    +0.000 A 
ATOM     27  C   UNL     1       7.129   4.945  16.725  0.00  0.00    +0.000 A 
BRANCH  25  28
ATOM     28  N   UNL     1       6.465   4.149  13.109  0.00  0.00    +0.000 N 
ATOM     29  O   UNL     1       5.648   3.441  12.504  0.00  0.00    +0.000 OA
ATOM     30  O   UNL     1       7.467   4.666  12.595  0.00  0.00    +0.000 OA
ENDBRANCH  25  28
ENDBRANCH  19  22
ENDBRANCH   3  19
TORSDOF 4
ENDMDL
MODEL 5
REMARK VINA RESULT:      -8.7      0.823      1.349
REMARK  Name = 
REMARK  4 active torsions:
REMARK  status: ('A' for Active; 'I' for Inactive)
REMARK    1  A    between atoms: C_6  and  C_7
REMARK    2  A    between atoms: N_9  and  S_10
REMARK    3  A    between atoms: S_10  and  C_13
REMARK    4  A    between atoms: C_16  and  N_17
REMARK                            x       y       z     vdW  Elec       q    Type
REMARK                         _______ _______ _______ _____ _____    ______ ____
ROOT
ATOM      1  C   UNL     1       5.598   4.407  15.773  0.00  0.00    +0.000 A 
ATOM      2  C   UNL     1       4.279   4.143  16.102  0.00  0.00    +0.000 A 
ATOM      3  N   UNL     1       4.120   4.379  17.448  0.00  0.00    +0.000 N 
ATOM      4  C   UNL     1       5.313   4.750  18.031  0.00  0.00    +0.000 A 
ATOM      5  C   UNL     1       5.663   5.090  19.351  0.00  0.00    +0.000 A 
ATOM      6  C   UNL     1       6.975   5.495  19.613  0.00  0.00    +0.000 A 
ATOM      7  C   UNL     1       7.923   5.545  18.600  0.00  0.00    +0.000 A 
ATOM      8  C   UNL     1       7.579   5.189  17.293  0.00  0.00    +0.000 A 
ATOM      9  C   UNL     1       6.258   4.788  16.991  0.00  0.00    +0.000 A 
ENDROOT
BRANCH   1  15
ATOM     10  N   UNL     1       5.412   2.425  11.499  0.00  0.00    +0.000 N 
ATOM     11  C   UNL     1       6.020   3.313  12.361  0.00  0.00    +0.000 A 
ATOM     12  N   UNL     1       7.059   4.003  11.885  0.00  0.00    +0.000 NA
ATOM     13  C   UNL     1       7.630   4.883  12.724  0.00  0.00    +0.000 A 
ATOM     14  C   UNL     1       7.203   5.087  14.012  0.00  0.00    +0.000 A 
ATOM     15  C   UNL     1       6.140   4.308  14.418  0.00  0.00    +0.000 A 
ATOM     16  N   UNL     1       5.547   3.406  13.605  0.00  0.00    +0.000 NA
ATOM     17  H   UNL     1       6.045   2.159  10.760  0.00  0.00    +0.000 HD
ATOM     18  H   UNL     1       4.942   1.690  12.008  0.00  0.00    +0.000 HD
ENDBRANCH   1  15
BRANCH   3  19
ATOM     19  S   UNL     1       2.645   4.096  18.270  0.00  0.00    +0.000 S 
ATOM     20  O   UNL     1       1.629   3.855  17.261  0.00  0.00    +0.000 OA
ATOM     21  O   UNL     1       2.948   3.102  19.284  0.00  0.00    +0.000 OA
BRANCH  19  22
ATOM     22  C   UNL     1       2.289   5.631  19.087  0.00  0.00    +0.000 A 
ATOM     23  C   UNL     1       1.851   5.630  20.415  0.00  0.00    +0.000 A 
ATOM     24  C   UNL     1       1.473   6.833  21.019  0.00  0.00    +0.000 A 
ATOM     25  C   UNL     1       1.559   8.030  20.294  0.00  0.00    +0.000 A 
ATOM     26  C   UNL     1       2.093   8.041  18.997  0.00  0.00    +0.000 A 
ATOM     27  C   UNL     1       2.465   6.835  18.394  0.00  0.00    +0.000 A 
BRANCH  25  28
ATOM     28  N   UNL     1       1.037   9.275  20.875  0.00  0.00    +0.000 N 
ATOM     29  O   UNL     1       0.175   9.892  20.232  0.00  0.00    +0.000 OA
ATOM     30  O   UNL     1       1.508   9.647  21.959  0.00  0.00    +0.000 OA
ENDBRANCH  25  28
ENDBRANCH  19  22
ENDBRANCH   3  19
TORSDOF 4
ENDMDL
MODEL 6
REMARK VINA RESULT:      -8.6      0.815      1.728
REMARK  Name = 
REMARK  4 active torsions:
REMARK  status: ('A' for Active; 'I' for Inactive)
REMARK    1  A    between atoms: C_6  and  C_7
REMARK    2  A    between atoms: N_9  and  S_10
REMARK    3  A    between atoms: S_10  and  C_13
REMARK    4  A    between atoms: C_16  and  N_17
REMARK                            x       y       z     vdW  Elec       q    Type
REMARK                         _______ _______ _______ _____ _____    ______ ____
ROOT
ATOM      1  C   UNL     1       5.689   4.378  15.794  0.00  0.00    +0.000 A 
ATOM      2  C   UNL     1       4.399   4.007  16.133  0.00  0.00    +0.000 A 
ATOM      3  N   UNL     1       4.230   4.234  17.479  0.00  0.00    +0.000 N 
ATOM      4  C   UNL     1       5.392   4.704  18.053  0.00  0.00    +0.000 A 
ATOM      5  C   UNL     1       5.722   5.075  19.369  0.00  0.00    +0.000 A 
ATOM      6  C   UNL     1       6.997   5.588  19.621  0.00  0.00    +0.000 A 
ATOM      7  C   UNL     1       7.931   5.713  18.601  0.00  0.00    +0.000 A 
ATOM      8  C   UNL     1       7.608   5.325  17.298  0.00  0.00    +0.000 A 
ATOM      9  C   UNL     1       6.323   4.815  17.006  0.00  0.00    +0.000 A 
ENDROOT
BRANCH   1  15
ATOM     10  N   UNL     1       5.572   2.438  11.498  0.00  0.00    +0.000 N 
ATOM     11  C   UNL     1       6.143   3.343  12.367  0.00  0.00    +0.000 A 
ATOM     12  N   UNL     1       7.147   4.086  11.894  0.00  0.00    +0.000 NA
ATOM     13  C   UNL     1       7.681   4.982  12.741  0.00  0.00    +0.000 A 
ATOM     14  C   UNL     1       7.251   5.151  14.034  0.00  0.00    +0.000 A 
ATOM     15  C   UNL     1       6.228   4.320  14.435  0.00  0.00    +0.000 A 
ATOM     16  N   UNL     1       5.672   3.401  13.615  0.00  0.00    +0.000 NA
ATOM     17  H   UNL     1       6.213   2.211  10.753  0.00  0.00    +0.000 HD
ATOM     18  H   UNL     1       5.139   1.677  12.000  0.00  0.00    +0.000 HD
ENDBRANCH   1  15
BRANCH   3  19
ATOM     19  S   UNL     1       2.789   3.833  18.312  0.00  0.00    +0.000 S 
ATOM     20  O   UNL     1       1.808   3.442  17.314  0.00  0.00    +0.000 OA
ATOM     21  O   UNL     1       3.190   2.922  19.369  0.00  0.00    +0.000 OA
BRANCH  19  22
ATOM     22  C   UNL     1       2.268   5.356  19.060  0.00  0.00    +0.000 A 
ATOM     23  C   UNL     1       2.393   6.558  18.357  0.00  0.00    +0.000 A 
ATOM     24  C   UNL     1       2.080   7.765  18.989  0.00  0.00    +0.000 A 
ATOM     25  C   UNL     1       1.620   7.755  20.314  0.00  0.00    +0.000 A 
ATOM     26  C   UNL     1       1.400   6.541  20.982  0.00  0.00    +0.000 A 
ATOM     27  C   UNL     1       1.721   5.336  20.349  0.00  0.00    +0.000 A 
BRANCH  25  28
ATOM     28  N   UNL     1       1.418   9.024  21.028  0.00  0.00    +0.000 N 
ATOM     29  O   UNL     1       1.569   9.022  22.258  0.00  0.00    +0.000 OA
ATOM     30  O   UNL     1       1.084  10.013  20.360  0.00  0.00    +0.000 OA
ENDBRANCH  25  28
ENDBRANCH  19  22
ENDBRANCH   3  19
TORSDOF 4
ENDMDL
MODEL 7
REMARK VINA RESULT:      -8.5      3.071      7.817
REMARK  Name = 
REMARK  4 active torsions:
REMARK  status: ('A' for Active; 'I' for Inactive)
REMARK    1  A    between atoms: C_6  and  C_7
REMARK    2  A    between atoms: N_9  and  S_10
REMARK    3  A    between atoms: S_10  and  C_13
REMARK    4  A    between atoms: C_16  and  N_17
REMARK                            x       y       z     vdW  Elec       q    Type
REMARK                         _______ _______ _______ _____ _____    ______ ____
ROOT
ATOM      1  C   UNL     1       3.032   6.864  18.899  0.00  0.00    +0.000 A 
ATOM      2  C   UNL     1       4.282   6.926  18.307  0.00  0.00    +0.000 A 
ATOM      3  N   UNL     1       4.864   5.684  18.408  0.00  0.00    +0.000 N 
ATOM      4  C   UNL     1       4.050   4.809  19.095  0.00  0.00    +0.000 A 
ATOM      5  C   UNL     1       4.193   3.455  19.452  0.00  0.00    +0.000 A 
ATOM      6  C   UNL     1       3.134   2.819  20.104  0.00  0.00    +0.000 A 
ATOM      7  C   UNL     1       1.968   3.507  20.413  0.00  0.00    +0.000 A 
ATOM      8  C   UNL     1       1.835   4.857  20.075  0.00  0.00    +0.000 A 
ATOM      9  C   UNL     1       2.882   5.527  19.403  0.00  0.00    +0.000 A 
ENDROOT
BRANCH   1  15
ATOM     10  N   UNL     1       0.288   9.699  21.481  0.00  0.00    +0.000 N 
ATOM     11  C   UNL     1       0.767   9.331  20.241  0.00  0.00    +0.000 A 
ATOM     12  N   UNL     1       0.325  10.027  19.191  0.00  0.00    +0.000 NA
ATOM     13  C   UNL     1       0.816   9.676  17.990  0.00  0.00    +0.000 A 
ATOM     14  C   UNL     1       1.718   8.658  17.809  0.00  0.00    +0.000 A 
ATOM     15  C   UNL     1       2.092   7.984  18.951  0.00  0.00    +0.000 A 
ATOM     16  N   UNL     1       1.614   8.302  20.174  0.00  0.00    +0.000 NA
ATOM     17  H   UNL     1      -0.586  10.195  21.390  0.00  0.00    +0.000 HD
ATOM     18  H   UNL     1       0.330   8.927  22.129  0.00  0.00    +0.000 HD
ENDBRANCH   1  15
BRANCH   3  19
ATOM     19  S   UNL     1       6.454   5.359  17.863  0.00  0.00    +0.000 S 
ATOM     20  O   UNL     1       7.188   6.612  17.903  0.00  0.00    +0.000 OA
ATOM     21  O   UNL     1       6.898   4.203  18.620  0.00  0.00    +0.000 OA
BRANCH  19  22
ATOM     22  C   UNL     1       6.252   4.869  16.169  0.00  0.00    +0.000 A 
ATOM     23  C   UNL     1       5.084   4.214  15.766  0.00  0.00    +0.000 A 
ATOM     24  C   UNL     1       4.974   3.738  14.456  0.00  0.00    +0.000 A 
ATOM     25  C   UNL     1       6.028   3.942  13.553  0.00  0.00    +0.000 A 
ATOM     26  C   UNL     1       7.155   4.687  13.932  0.00  0.00    +0.000 A 
ATOM     27  C   UNL     1       7.264   5.156  15.244  0.00  0.00    +0.000 A 
BRANCH  25  28
ATOM     28  N   UNL     1       5.977   3.328  12.219  0.00  0.00    +0.000 N 
ATOM     29  O   UNL     1       7.044   2.936  11.726  0.00  0.00    +0.000 OA
ATOM     30  O   UNL     1       4.875   3.264  11.657  0.00  0.00    +0.000 OA
ENDBRANCH  25  28
ENDBRANCH  19  22
ENDBRANCH   3  19
TORSDOF 4
ENDMDL
MODEL 8
REMARK VINA RESULT:      -8.4      2.985      7.794
REMARK  Name = 
REMARK  4 active torsions:
REMARK  status: ('A' for Active; 'I' for Inactive)
REMARK    1  A    between atoms: C_6  and  C_7
REMARK    2  A    between atoms: N_9  and  S_10
REMARK    3  A    between atoms: S_10  and  C_13
REMARK    4  A    between atoms: C_16  and  N_17
REMARK                            x       y       z     vdW  Elec       q    Type
REMARK                         _______ _______ _______ _____ _____    ______ ____
ROOT
ATOM      1  C   UNL     1       2.852   6.656  19.350  0.00  0.00    +0.000 A 
ATOM      2  C   UNL     1       4.135   6.814  18.851  0.00  0.00    +0.000 A 
ATOM      3  N   UNL     1       4.672   5.563  18.653  0.00  0.00    +0.000 N 
ATOM      4  C   UNL     1       3.794   4.577  19.051  0.00  0.00    +0.000 A 
ATOM      5  C   UNL     1       3.876   3.173  19.051  0.00  0.00    +0.000 A 
ATOM      6  C   UNL     1       2.763   2.437  19.466  0.00  0.00    +0.000 A 
ATOM      7  C   UNL     1       1.603   3.074  19.890  0.00  0.00    +0.000 A 
ATOM      8  C   UNL     1       1.531   4.469  19.908  0.00  0.00    +0.000 A 
ATOM      9  C   UNL     1       2.633   5.243  19.482  0.00  0.00    +0.000 A 
ENDROOT
BRANCH   1  15
ATOM     10  N   UNL     1       0.639  10.551  17.879  0.00  0.00    +0.000 N 
ATOM     11  C   UNL     1       0.901   9.657  18.895  0.00  0.00    +0.000 A 
ATOM     12  N   UNL     1       0.309   9.886  20.070  0.00  0.00    +0.000 NA
ATOM     13  C   UNL     1       0.550   8.995  21.047  0.00  0.00    +0.000 A 
ATOM     14  C   UNL     1       1.362   7.900  20.889  0.00  0.00    +0.000 A 
ATOM     15  C   UNL     1       1.947   7.766  19.648  0.00  0.00    +0.000 A 
ATOM     16  N   UNL     1       1.735   8.646  18.644  0.00  0.00    +0.000 NA
ATOM     17  H   UNL     1       0.332  11.435  18.256  0.00  0.00    +0.000 HD
ATOM     18  H   UNL     1       1.387  10.558  17.201  0.00  0.00    +0.000 HD
ENDBRANCH   1  15
BRANCH   3  19
ATOM     19  S   UNL     1       6.279   5.321  18.115  0.00  0.00    +0.000 S 
ATOM     20  O   UNL     1       6.964   6.597  18.212  0.00  0.00    +0.000 OA
ATOM     21  O   UNL     1       6.758   4.154  18.833  0.00  0.00    +0.000 OA
BRANCH  19  22
ATOM     22  C   UNL     1       6.114   4.889  16.402  0.00  0.00    +0.000 A 
ATOM     23  C   UNL     1       4.939   4.285  15.943  0.00  0.00    +0.000 A 
ATOM     24  C   UNL     1       4.855   3.853  14.616  0.00  0.00    +0.000 A 
ATOM     25  C   UNL     1       5.942   4.051  13.752  0.00  0.00    +0.000 A 
ATOM     26  C   UNL     1       7.080   4.746  14.188  0.00  0.00    +0.000 A 
ATOM     27  C   UNL     1       7.163   5.171  15.517  0.00  0.00    +0.000 A 
BRANCH  25  28
ATOM     28  N   UNL     1       5.913   3.479  12.399  0.00  0.00    +0.000 N 
ATOM     29  O   UNL     1       6.999   3.252  11.847  0.00  0.00    +0.000 OA
ATOM     30  O   UNL     1       4.805   3.284  11.880  0.00  0.00    +0.000 OA
ENDBRANCH  25  28
ENDBRANCH  19  22
ENDBRANCH   3  19
TORSDOF 4
ENDMDL
MODEL 9
REMARK VINA RESULT:      -8.2      3.975      7.151
REMARK  Name = 
REMARK  4 active torsions:
REMARK  status: ('A' for Active; 'I' for Inactive)
REMARK    1  A    between atoms: C_6  and  C_7
REMARK    2  A    between atoms: N_9  and  S_10
REMARK    3  A    between atoms: S_10  and  C_13
REMARK    4  A    between atoms: C_16  and  N_17
REMARK                            x       y       z     vdW  Elec       q    Type
REMARK                         _______ _______ _______ _____ _____    ______ ____
ROOT
ATOM      1  C   UNL     1       2.553   6.512  19.491  0.00  0.00    +0.000 A 
ATOM      2  C   UNL     1       3.751   6.454  18.798  0.00  0.00    +0.000 A 
ATOM      3  N   UNL     1       4.090   5.130  18.643  0.00  0.00    +0.000 N 
ATOM      4  C   UNL     1       3.170   4.307  19.256  0.00  0.00    +0.000 A 
ATOM      5  C   UNL     1       3.075   2.908  19.377  0.00  0.00    +0.000 A 
ATOM      6  C   UNL     1       1.958   2.366  20.018  0.00  0.00    +0.000 A 
ATOM      7  C   UNL     1       0.968   3.186  20.544  0.00  0.00    +0.000 A 
ATOM      8  C   UNL     1       1.074   4.575  20.440  0.00  0.00    +0.000 A 
ATOM      9  C   UNL     1       2.183   5.156  19.787  0.00  0.00    +0.000 A 
ENDROOT
BRANCH   1  15
ATOM     10  N   UNL     1       0.938  10.705  18.063  0.00  0.00    +0.000 N 
ATOM     11  C   UNL     1       1.093   9.786  19.078  0.00  0.00    +0.000 A 
ATOM     12  N   UNL     1       0.595  10.113  20.273  0.00  0.00    +0.000 NA
ATOM     13  C   UNL     1       0.729   9.200  21.250  0.00  0.00    +0.000 A 
ATOM     14  C   UNL     1       1.347   7.988  21.073  0.00  0.00    +0.000 A 
ATOM     15  C   UNL     1       1.851   7.755  19.811  0.00  0.00    +0.000 A 
ATOM     16  N   UNL     1       1.743   8.652  18.807  0.00  0.00    +0.000 NA
ATOM     17  H   UNL     1       0.793  11.629  18.441  0.00  0.00    +0.000 HD
ATOM     18  H   UNL     1       1.649  10.588  17.356  0.00  0.00    +0.000 HD
ENDBRANCH   1  15
BRANCH   3  19
ATOM     19  S   UNL     1       5.550   4.629  17.902  0.00  0.00    +0.000 S 
ATOM     20  O   UNL     1       6.112   3.574  18.726  0.00  0.00    +0.000 OA
ATOM     21  O   UNL     1       5.220   4.399  16.507  0.00  0.00    +0.000 OA
BRANCH  19  22
ATOM     22  C   UNL     1       6.607   6.052  17.994  0.00  0.00    +0.000 A 
ATOM     23  C   UNL     1       7.669   6.076  18.904  0.00  0.00    +0.000 A 
ATOM     24  C   UNL     1       8.433   7.238  19.045  0.00  0.00    +0.000 A 
ATOM     25  C   UNL     1       8.141   8.360  18.255  0.00  0.00    +0.000 A 
ATOM     26  C   UNL     1       7.141   8.299  17.274  0.00  0.00    +0.000 A 
ATOM     27  C   UNL     1       6.375   7.137  17.140  0.00  0.00    +0.000 A 
BRANCH  25  28
ATOM     28  N   UNL     1       8.850   9.625  18.493  0.00  0.00    +0.000 N 
ATOM     29  O   UNL     1       9.349   9.803  19.614  0.00  0.00    +0.000 OA
ATOM     30  O   UNL     1       8.884  10.449  17.568  0.00  0.00    +0.000 OA
ENDBRANCH  25  28
ENDBRANCH  19  22
ENDBRANCH   3  19
TORSDOF 4
ENDMDL
