MODEL 1
REMARK VINA RESULT:      -8.0      0.000      0.000
REMARK  Name = 
REMARK  13 active torsions:
REMARK  status: ('A' for Active; 'I' for Inactive)
REMARK    1  A    between atoms: C_1  and  C_2
REMARK    2  A    between atoms: C_4  and  N_5
REMARK    3  A    between atoms: N_5  and  C_6
REMARK    4  A    between atoms: C_6  and  C_7
REMARK    5  A    between atoms: C_7  and  C_8
REMARK    6  A    between atoms: C_8  and  C_9
REMARK    7  A    between atoms: C_9  and  C_10
REMARK    8  A    between atoms: C_10  and  C_11
REMARK    9  A    between atoms: C_11  and  C_12
REMARK   10  A    between atoms: C_12  and  C_13
REMARK   11  A    between atoms: C_13  and  N_14
REMARK   12  A    between atoms: N_14  and  C_15
REMARK   13  A    between atoms: C_17  and  C_18
REMARK                            x       y       z     vdW  Elec       q    Type
REMARK                         _______ _______ _______ _____ _____    ______ ____
ROOT
ATOM      1  C   UNL     1       2.996   7.850  17.540  0.00  0.00    +0.000 C 
ENDROOT
BRANCH   1   2
ATOM      2  C   UNL     1       1.914   8.582  18.338  0.00  0.00    +0.000 C 
BRANCH   2   3
ATOM      3  C   UNL     1       1.762  10.036  17.894  0.00  0.00    +0.000 C 
BRANCH   3   4
ATOM      4  C   UNL     1       1.065  10.867  18.967  0.00  0.00    +0.000 C 
BRANCH   4   5
ATOM      5  N   UNL     1      -0.160  10.237  19.399  0.00  0.00    +0.000 N 
ATOM      6  H   UNL     1      -0.083   9.456  20.035  0.00  0.00    +0.000 HD
BRANCH   5  10
ATOM      7  C   UNL     1      -3.437  13.450  21.222  0.00  0.00    +0.000 C 
ATOM      8  C   UNL     1      -2.981  12.509  20.153  0.00  0.00    +0.000 A 
ATOM      9  C   UNL     1      -1.808  11.788  20.300  0.00  0.00    +0.000 A 
ATOM     10  C   UNL     1      -1.387  10.903  19.302  0.00  0.00    +0.000 A 
ATOM     11  C   UNL     1      -2.200  10.774  18.144  0.00  0.00    +0.000 A 
ATOM     12  C   UNL     1      -1.912   9.910  17.057  0.00  0.00    +0.000 A 
ATOM     13  C   UNL     1      -2.749   9.834  15.943  0.00  0.00    +0.000 A 
ATOM     14  C   UNL     1      -3.887  10.622  15.896  0.00  0.00    +0.000 A 
ATOM     15  C   UNL     1      -4.186  11.474  16.960  0.00  0.00    +0.000 A 
ATOM     16  C   UNL     1      -3.375  11.562  18.082  0.00  0.00    +0.000 A 
ATOM     17  N   UNL     1      -3.757  12.403  19.055  0.00  0.00    +0.000 NA
ENDBRANCH   5  10
ENDBRANCH   4   5
ENDBRANCH   3   4
ENDBRANCH   2   3
ENDBRANCH   1   2
BRANCH   1  18
ATOM     18  C   UNL     1       3.338   6.519  18.182  0.00  0.00    +0.000 C 
BRANCH  18  19
ATOM     19  C   UNL     1       2.199   5.516  17.983  0.00  0.00    +0.000 C 
BRANCH  19  20
ATOM     20  C   UNL     1       2.588   4.107  18.425  0.00  0.00    +0.000 C 
BRANCH  20  21
ATOM     21  C   UNL     1       3.005   3.249  17.234  0.00  0.00    +0.000 C 
BRANCH  21  22
ATOM     22  N   UNL     1       4.398   2.854  17.349  0.00  0.00    +0.000 N 
ATOM     23  H   UNL     1       4.547   1.854  17.267  0.00  0.00    +0.000 HD
BRANCH  22  24
ATOM     24  C   UNL     1       5.374   3.614  16.668  0.00  0.00    +0.000 A 
ATOM     25  C   UNL     1       5.503   3.551  15.274  0.00  0.00    +0.000 A 
ATOM     26  C   UNL     1       6.386   4.393  14.616  0.00  0.00    +0.000 A 
ATOM     27  C   UNL     1       6.542   4.318  13.126  0.00  0.00    +0.000 C 
ATOM     28  N   UNL     1       7.127   5.311  15.264  0.00  0.00    +0.000 NA
ATOM     29  C   UNL     1       7.008   5.405  16.598  0.00  0.00    +0.000 A 
ATOM     30  C   UNL     1       7.763   6.372  17.246  0.00  0.00    +0.000 A 
ATOM     31  C   UNL     1       7.721   6.541  18.631  0.00  0.00    +0.000 A 
ATOM     32  C   UNL     1       6.901   5.727  19.396  0.00  0.00    +0.000 A 
ATOM     33  C   UNL     1       6.119   4.759  18.769  0.00  0.00    +0.000 A 
ATOM     34  C   UNL     1       6.152   4.577  17.362  0.00  0.00    +0.000 A 
ENDBRANCH  22  24
ENDBRANCH  21  22
ENDBRANCH  20  21
ENDBRANCH  19  20
ENDBRANCH  18  19
ENDBRANCH   1  18
TORSDOF 11
ENDMDL
MODEL 2
REMARK VINA RESULT:      -7.8      0.610     10.583
REMARK  Name = 
REMARK  13 active torsions:
REMARK  status: ('A' for Active; 'I' for Inactive)
REMARK    1  A    between atoms: C_1  and  C_2
REMARK    2  A    between atoms: C_4  and  N_5
REMARK    3  A    between atoms: N_5  and  C_6
REMARK    4  A    between atoms: C_6  and  C_7
REMARK    5  A    between atoms: C_7  and  C_8
REMARK    6  A    between atoms: C_8  and  C_9
REMARK    7  A    between atoms: C_9  and  C_10
REMARK    8  A    between atoms: C_10  and  C_11
REMARK    9  A    between atoms: C_11  and  C_12
REMARK   10  A    between atoms: C_12  and  C_13
REMARK   11  A    between atoms: C_13  and  N_14
REMARK   12  A    between atoms: N_14  and  C_15
REMARK   13  A    between atoms: C_17  and  C_18
REMARK                            x       y       z     vdW  Elec       q    Type
REMARK                         _______ _______ _______ _____ _____    ______ ____
ROOT
ATOM      1  C   UNL     1       2.608   5.917  18.850  0.00  0.00    +0.000 C 
ENDROOT
BRANCH   1   2
ATOM      2  C   UNL     1       1.811   4.974  17.947  0.00  0.00    +0.000 C 
BRANCH   2   3
ATOM      3  C   UNL     1       2.251   3.520  18.109  0.00  0.00    +0.000 C 
BRANCH   3   4
ATOM      4  C   UNL     1       3.519   3.422  18.952  0.00  0.00    +0.000 C 
BRANCH   4   5
ATOM      5  N   UNL     1       4.621   2.904  18.177  0.00  0.00    +0.000 N 
ATOM      6  H   UNL     1       4.695   1.900  18.086  0.00  0.00    +0.000 HD
BRANCH   5  10
ATOM      7  C   UNL     1       5.469   4.284  13.512  0.00  0.00    +0.000 C 
ATOM      8  C   UNL     1       5.691   4.435  14.983  0.00  0.00    +0.000 A 
ATOM      9  C   UNL     1       5.083   3.573  15.881  0.00  0.00    +0.000 A 
ATOM     10  C   UNL     1       5.298   3.711  17.256  0.00  0.00    +0.000 A 
ATOM     11  C   UNL     1       6.153   4.758  17.691  0.00  0.00    +0.000 A 
ATOM     12  C   UNL     1       6.476   5.015  19.049  0.00  0.00    +0.000 A 
ATOM     13  C   UNL     1       7.318   6.066  19.412  0.00  0.00    +0.000 A 
ATOM     14  C   UNL     1       7.851   6.879  18.427  0.00  0.00    +0.000 A 
ATOM     15  C   UNL     1       7.546   6.637  17.086  0.00  0.00    +0.000 A 
ATOM     16  C   UNL     1       6.718   5.593  16.698  0.00  0.00    +0.000 A 
ATOM     17  N   UNL     1       6.497   5.438  15.384  0.00  0.00    +0.000 NA
ENDBRANCH   5  10
ENDBRANCH   4   5
ENDBRANCH   3   4
ENDBRANCH   2   3
ENDBRANCH   1   2
BRANCH   1  18
ATOM     18  C   UNL     1       2.864   7.244  18.161  0.00  0.00    +0.000 C 
BRANCH  18  19
ATOM     19  C   UNL     1       1.997   8.346  18.773  0.00  0.00    +0.000 C 
BRANCH  19  20
ATOM     20  C   UNL     1       2.108   9.660  18.002  0.00  0.00    +0.000 C 
BRANCH  20  21
ATOM     21  C   UNL     1       1.242  10.746  18.634  0.00  0.00    +0.000 C 
BRANCH  21  22
ATOM     22  N   UNL     1       0.155  10.156  19.395  0.00  0.00    +0.000 N 
ATOM     23  H   UNL     1       0.436   9.806  20.305  0.00  0.00    +0.000 HD
BRANCH  22  24
ATOM     24  C   UNL     1      -1.090  10.822  19.422  0.00  0.00    +0.000 A 
ATOM     25  C   UNL     1      -1.423  11.700  20.462  0.00  0.00    +0.000 A 
ATOM     26  C   UNL     1      -2.599  12.432  20.408  0.00  0.00    +0.000 A 
ATOM     27  C   UNL     1      -2.971  13.360  21.526  0.00  0.00    +0.000 C 
ATOM     28  N   UNL     1      -3.446  12.360  19.364  0.00  0.00    +0.000 NA
ATOM     29  C   UNL     1      -3.141  11.541  18.346  0.00  0.00    +0.000 A 
ATOM     30  C   UNL     1      -4.016  11.496  17.269  0.00  0.00    +0.000 A 
ATOM     31  C   UNL     1      -3.795  10.667  16.168  0.00  0.00    +0.000 A 
ATOM     32  C   UNL     1      -2.670   9.860  16.133  0.00  0.00    +0.000 A 
ATOM     33  C   UNL     1      -1.766   9.898  17.193  0.00  0.00    +0.000 A 
ATOM     34  C   UNL     1      -1.978  10.736  18.317  0.00  0.00    +0.000 A 
ENDBRANCH  22  24
ENDBRANCH  21  22
ENDBRANCH  20  21
ENDBRANCH  19  20
ENDBRANCH  18  19
ENDBRANCH   1  18
TORSDOF 11
ENDMDL
MODEL 3
REMARK VINA RESULT:      -7.8      1.046      2.478
REMARK  Name = 
REMARK  13 active torsions:
REMARK  status: ('A' for Active; 'I' for Inactive)
REMARK    1  A    between atoms: C_1  and  C_2
REMARK    2  A    between atoms: C_4  and  N_5
REMARK    3  A    between atoms: N_5  and  C_6
REMARK    4  A    between atoms: C_6  and  C_7
REMARK    5  A    between atoms: C_7  and  C_8
REMARK    6  A    between atoms: C_8  and  C_9
REMARK    7  A    between atoms: C_9  and  C_10
REMARK    8  A    between atoms: C_10  and  C_11
REMARK    9  A    between atoms: C_11  and  C_12
REMARK   10  A    between atoms: C_12  and  C_13
REMARK   11  A    between atoms: C_13  and  N_14
REMARK   12  A    between atoms: N_14  and  C_15
REMARK   13  A    between atoms: C_17  and  C_18
REMARK                            x       y       z     vdW  Elec       q    Type
REMARK                         _______ _______ _______ _____ _____    ______ ____
ROOT
ATOM      1  C   UNL     1       3.092   7.828  18.104  0.00  0.00    +0.000 C 
ENDROOT
BRANCH   1   2
ATOM      2  C   UNL     1       1.956   8.748  17.651  0.00  0.00    +0.000 C 
BRANCH   2   3
ATOM      3  C   UNL     1       1.163   9.302  18.833  0.00  0.00    +0.000 C 
BRANCH   3   4
ATOM      4  C   UNL     1       1.268  10.823  18.898  0.00  0.00    +0.000 C 
BRANCH   4   5
ATOM      5  N   UNL     1       0.196  11.450  18.161  0.00  0.00    +0.000 N 
ATOM      6  H   UNL     1       0.251  11.429  17.152  0.00  0.00    +0.000 HD
BRANCH   5  10
ATOM      7  C   UNL     1      -2.456  13.072  21.997  0.00  0.00    +0.000 C 
ATOM      8  C   UNL     1      -2.361  12.529  20.608  0.00  0.00    +0.000 A 
ATOM      9  C   UNL     1      -1.131  12.208  20.057  0.00  0.00    +0.000 A 
ATOM     10  C   UNL     1      -1.044  11.694  18.759  0.00  0.00    +0.000 A 
ATOM     11  C   UNL     1      -2.253  11.516  18.035  0.00  0.00    +0.000 A 
ATOM     12  C   UNL     1      -2.328  10.995  16.718  0.00  0.00    +0.000 A 
ATOM     13  C   UNL     1      -3.547  10.851  16.057  0.00  0.00    +0.000 A 
ATOM     14  C   UNL     1      -4.715  11.228  16.700  0.00  0.00    +0.000 A 
ATOM     15  C   UNL     1      -4.659  11.739  17.997  0.00  0.00    +0.000 A 
ATOM     16  C   UNL     1      -3.459  11.884  18.680  0.00  0.00    +0.000 A 
ATOM     17  N   UNL     1      -3.514  12.374  19.927  0.00  0.00    +0.000 NA
ENDBRANCH   5  10
ENDBRANCH   4   5
ENDBRANCH   3   4
ENDBRANCH   2   3
ENDBRANCH   1   2
BRANCH   1  18
ATOM     18  C   UNL     1       2.826   6.393  17.691  0.00  0.00    +0.000 C 
BRANCH  18  19
ATOM     19  C   UNL     1       2.525   5.526  18.916  0.00  0.00    +0.000 C 
BRANCH  19  20
ATOM     20  C   UNL     1       3.096   4.116  18.779  0.00  0.00    +0.000 C 
BRANCH  20  21
ATOM     21  C   UNL     1       4.363   3.949  19.612  0.00  0.00    +0.000 C 
BRANCH  21  22
ATOM     22  N   UNL     1       5.488   3.592  18.766  0.00  0.00    +0.000 N 
ATOM     23  H   UNL     1       5.354   2.728  18.250  0.00  0.00    +0.000 HD
BRANCH  22  24
ATOM     24  C   UNL     1       6.101   4.604  17.994  0.00  0.00    +0.000 A 
ATOM     25  C   UNL     1       6.775   5.673  18.598  0.00  0.00    +0.000 A 
ATOM     26  C   UNL     1       7.470   6.589  17.823  0.00  0.00    +0.000 A 
ATOM     27  C   UNL     1       8.178   7.746  18.462  0.00  0.00    +0.000 C 
ATOM     28  N   UNL     1       7.554   6.483  16.483  0.00  0.00    +0.000 NA
ATOM     29  C   UNL     1       6.933   5.457  15.881  0.00  0.00    +0.000 A 
ATOM     30  C   UNL     1       7.049   5.352  14.502  0.00  0.00    +0.000 A 
ATOM     31  C   UNL     1       6.430   4.330  13.781  0.00  0.00    +0.000 A 
ATOM     32  C   UNL     1       5.676   3.379  14.450  0.00  0.00    +0.000 A 
ATOM     33  C   UNL     1       5.557   3.451  15.836  0.00  0.00    +0.000 A 
ATOM     34  C   UNL     1       6.181   4.484  16.581  0.00  0.00    +0.000 A 
ENDBRANCH  22  24
ENDBRANCH  21  22
ENDBRANCH  20  21
ENDBRANCH  19  20
ENDBRANCH  18  19
ENDBRANCH   1  18
TORSDOF 11
ENDMDL
MODEL 4
REMARK VINA RESULT:      -7.8      2.120      3.330
REMARK  Name = 
REMARK  13 active torsions:
REMARK  status: ('A' for Active; 'I' for Inactive)
REMARK    1  A    between atoms: C_1  and  C_2
REMARK    2  A    between atoms: C_4  and  N_5
REMARK    3  A    between atoms: N_5  and  C_6
REMARK    4  A    between atoms: C_6  and  C_7
REMARK    5  A    between atoms: C_7  and  C_8
REMARK    6  A    between atoms: C_8  and  C_9
REMARK    7  A    between atoms: C_9  and  C_10
REMARK    8  A    between atoms: C_10  and  C_11
REMARK    9  A    between atoms: C_11  and  C_12
REMARK   10  A    between atoms: C_12  and  C_13
REMARK   11  A    between atoms: C_13  and  N_14
REMARK   12  A    between atoms: N_14  and  C_15
REMARK   13  A    between atoms: C_17  and  C_18
REMARK                            x       y       z     vdW  Elec       q    Type
REMARK                         _______ _______ _______ _____ _____    ______ ____
ROOT
ATOM      1  C   UNL     1       3.135   6.942  18.095  0.00  0.00    +0.000 C 
ENDROOT
BRANCH   1   2
ATOM      2  C   UNL     1       2.264   7.950  18.847  0.00  0.00    +0.000 C 
BRANCH   2   3
ATOM      3  C   UNL     1       1.980   9.197  18.011  0.00  0.00    +0.000 C 
BRANCH   3   4
ATOM      4  C   UNL     1       0.479   9.441  17.885  0.00  0.00    +0.000 C 
BRANCH   4   5
ATOM      5  N   UNL     1       0.172  10.849  17.976  0.00  0.00    +0.000 N 
ATOM      6  H   UNL     1      -0.452  11.235  17.282  0.00  0.00    +0.000 HD
BRANCH   5  10
ATOM      7  C   UNL     1      -0.951  11.598  22.727  0.00  0.00    +0.000 C 
ATOM      8  C   UNL     1      -0.138  11.903  21.510  0.00  0.00    +0.000 A 
ATOM      9  C   UNL     1      -0.395  11.261  20.309  0.00  0.00    +0.000 A 
ATOM     10  C   UNL     1       0.363  11.553  19.170  0.00  0.00    +0.000 A 
ATOM     11  C   UNL     1       1.395  12.522  19.291  0.00  0.00    +0.000 A 
ATOM     12  C   UNL     1       2.236  12.932  18.225  0.00  0.00    +0.000 A 
ATOM     13  C   UNL     1       3.238  13.884  18.410  0.00  0.00    +0.000 A 
ATOM     14  C   UNL     1       3.419  14.443  19.664  0.00  0.00    +0.000 A 
ATOM     15  C   UNL     1       2.596  14.053  20.723  0.00  0.00    +0.000 A 
ATOM     16  C   UNL     1       1.587  13.114  20.563  0.00  0.00    +0.000 A 
ATOM     17  N   UNL     1       0.845  12.816  21.640  0.00  0.00    +0.000 NA
ENDBRANCH   5  10
ENDBRANCH   4   5
ENDBRANCH   3   4
ENDBRANCH   2   3
ENDBRANCH   1   2
BRANCH   1  18
ATOM     18  C   UNL     1       2.360   5.674  17.790  0.00  0.00    +0.000 C 
BRANCH  18  19
ATOM     19  C   UNL     1       2.426   4.705  18.972  0.00  0.00    +0.000 C 
BRANCH  19  20
ATOM     20  C   UNL     1       2.279   3.249  18.532  0.00  0.00    +0.000 C 
BRANCH  20  21
ATOM     21  C   UNL     1       3.052   2.980  17.244  0.00  0.00    +0.000 C 
BRANCH  21  22
ATOM     22  N   UNL     1       4.469   2.823  17.521  0.00  0.00    +0.000 N 
ATOM     23  H   UNL     1       4.759   1.857  17.631  0.00  0.00    +0.000 HD
BRANCH  22  24
ATOM     24  C   UNL     1       5.392   3.594  16.780  0.00  0.00    +0.000 A 
ATOM     25  C   UNL     1       5.471   3.491  15.385  0.00  0.00    +0.000 A 
ATOM     26  C   UNL     1       6.299   4.342  14.668  0.00  0.00    +0.000 A 
ATOM     27  C   UNL     1       6.403   4.224  13.177  0.00  0.00    +0.000 C 
ATOM     28  N   UNL     1       7.029   5.306  15.260  0.00  0.00    +0.000 NA
ATOM     29  C   UNL     1       6.956   5.438  16.593  0.00  0.00    +0.000 A 
ATOM     30  C   UNL     1       7.699   6.451  17.183  0.00  0.00    +0.000 A 
ATOM     31  C   UNL     1       7.702   6.663  18.562  0.00  0.00    +0.000 A 
ATOM     32  C   UNL     1       6.941   5.846  19.382  0.00  0.00    +0.000 A 
ATOM     33  C   UNL     1       6.172   4.831  18.815  0.00  0.00    +0.000 A 
ATOM     34  C   UNL     1       6.160   4.606  17.415  0.00  0.00    +0.000 A 
ENDBRANCH  22  24
ENDBRANCH  21  22
ENDBRANCH  20  21
ENDBRANCH  19  20
ENDBRANCH  18  19
ENDBRANCH   1  18
TORSDOF 11
ENDMDL
MODEL 5
REMARK VINA RESULT:      -7.8      1.045     10.491
REMARK  Name = 
REMARK  13 active torsions:
REMARK  status: ('A' for Active; 'I' for Inactive)
REMARK    1  A    between atoms: C_1  and  C_2
REMARK    2  A    between atoms: C_4  and  N_5
REMARK    3  A    between atoms: N_5  and  C_6
REMARK    4  A    between atoms: C_6  and  C_7
REMARK    5  A    between atoms: C_7  and  C_8
REMARK    6  A    between atoms: C_8  and  C_9
REMARK    7  A    between atoms: C_9  and  C_10
REMARK    8  A    between atoms: C_10  and  C_11
REMARK    9  A    between atoms: C_11  and  C_12
REMARK   10  A    between atoms: C_12  and  C_13
REMARK   11  A    between atoms: C_13  and  N_14
REMARK   12  A    between atoms: N_14  and  C_15
REMARK   13  A    between atoms: C_17  and  C_18
REMARK                            x       y       z     vdW  Elec       q    Type
REMARK                         _______ _______ _______ _____ _____    ______ ____
ROOT
ATOM      1  C   UNL     1       2.440   5.404  17.841  0.00  0.00    +0.000 C 
ENDROOT
BRANCH   1   2
ATOM      2  C   UNL     1       2.192   4.916  19.270  0.00  0.00    +0.000 C 
BRANCH   2   3
ATOM      3  C   UNL     1       2.967   3.636  19.579  0.00  0.00    +0.000 C 
BRANCH   3   4
ATOM      4  C   UNL     1       4.465   3.911  19.670  0.00  0.00    +0.000 C 
BRANCH   4   5
ATOM      5  N   UNL     1       5.132   3.573  18.435  0.00  0.00    +0.000 N 
ATOM      6  H   UNL     1       4.792   2.767  17.928  0.00  0.00    +0.000 HD
BRANCH   5  10
ATOM      7  C   UNL     1       8.156   7.476  18.493  0.00  0.00    +0.000 C 
ATOM      8  C   UNL     1       7.426   6.397  17.761  0.00  0.00    +0.000 A 
ATOM      9  C   UNL     1       6.593   5.522  18.438  0.00  0.00    +0.000 A 
ATOM     10  C   UNL     1       5.905   4.517  17.750  0.00  0.00    +0.000 A 
ATOM     11  C   UNL     1       6.090   4.431  16.345  0.00  0.00    +0.000 A 
ATOM     12  C   UNL     1       5.452   3.477  15.511  0.00  0.00    +0.000 A 
ATOM     13  C   UNL     1       5.682   3.439  14.136  0.00  0.00    +0.000 A 
ATOM     14  C   UNL     1       6.555   4.352  13.569  0.00  0.00    +0.000 A 
ATOM     15  C   UNL     1       7.188   5.300  14.376  0.00  0.00    +0.000 A 
ATOM     16  C   UNL     1       6.970   5.364  15.744  0.00  0.00    +0.000 A 
ATOM     17  N   UNL     1       7.618   6.319  16.429  0.00  0.00    +0.000 NA
ENDBRANCH   5  10
ENDBRANCH   4   5
ENDBRANCH   3   4
ENDBRANCH   2   3
ENDBRANCH   1   2
BRANCH   1  18
ATOM     18  C   UNL     1       3.146   6.746  17.840  0.00  0.00    +0.000 C 
BRANCH  18  19
ATOM     19  C   UNL     1       2.292   7.806  18.539  0.00  0.00    +0.000 C 
BRANCH  19  20
ATOM     20  C   UNL     1       2.274   9.128  17.775  0.00  0.00    +0.000 C 
BRANCH  20  21
ATOM     21  C   UNL     1       1.357  10.144  18.449  0.00  0.00    +0.000 C 
BRANCH  21  22
ATOM     22  N   UNL     1       0.017  10.070  17.896  0.00  0.00    +0.000 N 
ATOM     23  H   UNL     1      -0.239   9.144  17.569  0.00  0.00    +0.000 HD
BRANCH  22  24
ATOM     24  C   UNL     1      -1.033  10.722  18.579  0.00  0.00    +0.000 A 
ATOM     25  C   UNL     1      -0.833  11.303  19.838  0.00  0.00    +0.000 A 
ATOM     26  C   UNL     1      -1.843  12.040  20.436  0.00  0.00    +0.000 A 
ATOM     27  C   UNL     1      -1.641  12.648  21.792  0.00  0.00    +0.000 C 
ATOM     28  N   UNL     1      -3.031  12.254  19.839  0.00  0.00    +0.000 NA
ATOM     29  C   UNL     1      -3.242  11.724  18.624  0.00  0.00    +0.000 A 
ATOM     30  C   UNL     1      -4.463  11.973  18.015  0.00  0.00    +0.000 A 
ATOM     31  C   UNL     1      -4.786  11.458  16.759  0.00  0.00    +0.000 A 
ATOM     32  C   UNL     1      -3.865  10.672  16.084  0.00  0.00    +0.000 A 
ATOM     33  C   UNL     1      -2.623  10.420  16.665  0.00  0.00    +0.000 A 
ATOM     34  C   UNL     1      -2.283  10.939  17.941  0.00  0.00    +0.000 A 
ENDBRANCH  22  24
ENDBRANCH  21  22
ENDBRANCH  20  21
ENDBRANCH  19  20
ENDBRANCH  18  19
ENDBRANCH   1  18
TORSDOF 11
ENDMDL
MODEL 6
REMARK VINA RESULT:      -7.7      2.748      4.401
REMARK  Name = 
REMARK  13 active torsions:
REMARK  status: ('A' for Active; 'I' for Inactive)
REMARK    1  A    between atoms: C_1  and  C_2
REMARK    2  A    between atoms: C_4  and  N_5
REMARK    3  A    between atoms: N_5  and  C_6
REMARK    4  A    between atoms: C_6  and  C_7
REMARK    5  A    between atoms: C_7  and  C_8
REMARK    6  A    between atoms: C_8  and  C_9
REMARK    7  A    between atoms: C_9  and  C_10
REMARK    8  A    between atoms: C_10  and  C_11
REMARK    9  A    between atoms: C_11  and  C_12
REMARK   10  A    between atoms: C_12  and  C_13
REMARK   11  A    between atoms: C_13  and  N_14
REMARK   12  A    between atoms: N_14  and  C_15
REMARK   13  A    between atoms: C_17  and  C_18
REMARK                            x       y       z     vdW  Elec       q    Type
REMARK                         _______ _______ _______ _____ _____    ______ ____
ROOT
ATOM      1  C   UNL     1       1.460   3.753  20.469  0.00  0.00    +0.000 C 
ENDROOT
BRANCH   1   2
ATOM      2  C   UNL     1       1.806   5.230  20.673  0.00  0.00    +0.000 C 
BRANCH   2   3
ATOM      3  C   UNL     1       1.899   5.984  19.347  0.00  0.00    +0.000 C 
BRANCH   3   4
ATOM      4  C   UNL     1       2.321   7.433  19.570  0.00  0.00    +0.000 C 
BRANCH   4   5
ATOM      5  N   UNL     1       1.430   8.345  18.892  0.00  0.00    +0.000 N 
ATOM      6  H   UNL     1       0.756   7.948  18.252  0.00  0.00    +0.000 HD
BRANCH   5  10
ATOM      7  C   UNL     1       1.624  13.245  18.308  0.00  0.00    +0.000 C 
ATOM      8  C   UNL     1       1.245  12.035  19.101  0.00  0.00    +0.000 A 
ATOM      9  C   UNL     1       1.553  10.764  18.641  0.00  0.00    +0.000 A 
ATOM     10  C   UNL     1       1.204   9.634  19.387  0.00  0.00    +0.000 A 
ATOM     11  C   UNL     1       0.530   9.836  20.621  0.00  0.00    +0.000 A 
ATOM     12  C   UNL     1       0.125   8.792  21.492  0.00  0.00    +0.000 A 
ATOM     13  C   UNL     1      -0.541   9.057  22.688  0.00  0.00    +0.000 A 
ATOM     14  C   UNL     1      -0.817  10.369  23.035  0.00  0.00    +0.000 A 
ATOM     15  C   UNL     1      -0.421  11.407  22.190  0.00  0.00    +0.000 A 
ATOM     16  C   UNL     1       0.250  11.172  20.999  0.00  0.00    +0.000 A 
ATOM     17  N   UNL     1       0.597  12.240  20.265  0.00  0.00    +0.000 NA
ENDBRANCH   5  10
ENDBRANCH   4   5
ENDBRANCH   3   4
ENDBRANCH   2   3
ENDBRANCH   1   2
BRANCH   1  18
ATOM     18  C   UNL     1       1.171   3.459  19.009  0.00  0.00    +0.000 C 
BRANCH  18  19
ATOM     19  C   UNL     1       1.696   2.075  18.623  0.00  0.00    +0.000 C 
BRANCH  19  20
ATOM     20  C   UNL     1       3.208   2.074  18.402  0.00  0.00    +0.000 C 
BRANCH  20  21
ATOM     21  C   UNL     1       3.704   3.449  17.963  0.00  0.00    +0.000 C 
BRANCH  21  22
ATOM     22  N   UNL     1       4.269   3.387  16.627  0.00  0.00    +0.000 N 
ATOM     23  H   UNL     1       3.572   3.312  15.893  0.00  0.00    +0.000 HD
BRANCH  22  24
ATOM     24  C   UNL     1       5.323   4.266  16.298  0.00  0.00    +0.000 A 
ATOM     25  C   UNL     1       5.938   5.064  17.273  0.00  0.00    +0.000 A 
ATOM     26  C   UNL     1       7.048   5.830  16.951  0.00  0.00    +0.000 A 
ATOM     27  C   UNL     1       7.698   6.700  17.985  0.00  0.00    +0.000 C 
ATOM     28  N   UNL     1       7.596   5.824  15.721  0.00  0.00    +0.000 NA
ATOM     29  C   UNL     1       7.038   5.054  14.774  0.00  0.00    +0.000 A 
ATOM     30  C   UNL     1       7.630   5.045  13.519  0.00  0.00    +0.000 A 
ATOM     31  C   UNL     1       7.120   4.288  12.463  0.00  0.00    +0.000 A 
ATOM     32  C   UNL     1       5.988   3.514  12.660  0.00  0.00    +0.000 A 
ATOM     33  C   UNL     1       5.383   3.491  13.916  0.00  0.00    +0.000 A 
ATOM     34  C   UNL     1       5.893   4.255  14.997  0.00  0.00    +0.000 A 
ENDBRANCH  22  24
ENDBRANCH  21  22
ENDBRANCH  20  21
ENDBRANCH  19  20
ENDBRANCH  18  19
ENDBRANCH   1  18
TORSDOF 11
ENDMDL
MODEL 7
REMARK VINA RESULT:      -7.6      2.104      4.909
REMARK  Name = 
REMARK  13 active torsions:
REMARK  status: ('A' for Active; 'I' for Inactive)
REMARK    1  A    between atoms: C_1  and  C_2
REMARK    2  A    between atoms: C_4  and  N_5
REMARK    3  A    between atoms: N_5  and  C_6
REMARK    4  A    between atoms: C_6  and  C_7
REMARK    5  A    between atoms: C_7  and  C_8
REMARK    6  A    between atoms: C_8  and  C_9
REMARK    7  A    between atoms: C_9  and  C_10
REMARK    8  A    between atoms: C_10  and  C_11
REMARK    9  A    between atoms: C_11  and  C_12
REMARK   10  A    between atoms: C_12  and  C_13
REMARK   11  A    between atoms: C_13  and  N_14
REMARK   12  A    between atoms: N_14  and  C_15
REMARK   13  A    between atoms: C_17  and  C_18
REMARK                            x       y       z     vdW  Elec       q    Type
REMARK                         _______ _______ _______ _____ _____    ______ ____
ROOT
ATOM      1  C   UNL     1      -1.432   9.732  17.350  0.00  0.00    +0.000 C 
ENDROOT
BRANCH   1   2
ATOM      2  C   UNL     1      -2.809  10.094  17.912  0.00  0.00    +0.000 C 
BRANCH   2   3
ATOM      3  C   UNL     1      -3.074  11.597  17.852  0.00  0.00    +0.000 C 
BRANCH   3   4
ATOM      4  C   UNL     1      -3.725  12.091  19.140  0.00  0.00    +0.000 C 
BRANCH   4   5
ATOM      5  N   UNL     1      -2.897  13.074  19.798  0.00  0.00    +0.000 N 
ATOM      6  H   UNL     1      -3.320  13.963  20.024  0.00  0.00    +0.000 HD
BRANCH   5  10
ATOM      7  C   UNL     1      -0.583  10.191  23.073  0.00  0.00    +0.000 C 
ATOM      8  C   UNL     1      -0.567  11.265  22.033  0.00  0.00    +0.000 A 
ATOM      9  C   UNL     1      -1.744  11.689  21.437  0.00  0.00    +0.000 A 
ATOM     10  C   UNL     1      -1.728  12.699  20.470  0.00  0.00    +0.000 A 
ATOM     11  C   UNL     1      -0.472  13.267  20.126  0.00  0.00    +0.000 A 
ATOM     12  C   UNL     1      -0.298  14.305  19.175  0.00  0.00    +0.000 A 
ATOM     13  C   UNL     1       0.965  14.816  18.875  0.00  0.00    +0.000 A 
ATOM     14  C   UNL     1       2.076  14.297  19.519  0.00  0.00    +0.000 A 
ATOM     15  C   UNL     1       1.920  13.278  20.460  0.00  0.00    +0.000 A 
ATOM     16  C   UNL     1       0.675  12.759  20.782  0.00  0.00    +0.000 A 
ATOM     17  N   UNL     1       0.631  11.789  21.708  0.00  0.00    +0.000 NA
ENDBRANCH   5  10
ENDBRANCH   4   5
ENDBRANCH   3   4
ENDBRANCH   2   3
ENDBRANCH   1   2
BRANCH   1  18
ATOM     18  C   UNL     1      -0.339  10.531  18.032  0.00  0.00    +0.000 C 
BRANCH  18  19
ATOM     19  C   UNL     1       0.654   9.599  18.731  0.00  0.00    +0.000 C 
BRANCH  19  20
ATOM     20  C   UNL     1       1.709   9.055  17.769  0.00  0.00    +0.000 C 
BRANCH  20  21
ATOM     21  C   UNL     1       2.526   7.942  18.416  0.00  0.00    +0.000 C 
BRANCH  21  22
ATOM     22  N   UNL     1       3.174   7.127  17.403  0.00  0.00    +0.000 N 
ATOM     23  H   UNL     1       3.557   7.663  16.632  0.00  0.00    +0.000 HD
BRANCH  22  24
ATOM     24  C   UNL     1       4.023   6.079  17.821  0.00  0.00    +0.000 A 
ATOM     25  C   UNL     1       5.376   6.308  18.105  0.00  0.00    +0.000 A 
ATOM     26  C   UNL     1       6.162   5.291  18.626  0.00  0.00    +0.000 A 
ATOM     27  C   UNL     1       7.615   5.525  18.915  0.00  0.00    +0.000 C 
ATOM     28  N   UNL     1       5.669   4.070  18.907  0.00  0.00    +0.000 NA
ATOM     29  C   UNL     1       4.372   3.831  18.661  0.00  0.00    +0.000 A 
ATOM     30  C   UNL     1       3.877   2.573  18.977  0.00  0.00    +0.000 A 
ATOM     31  C   UNL     1       2.546   2.220  18.749  0.00  0.00    +0.000 A 
ATOM     32  C   UNL     1       1.678   3.146  18.193  0.00  0.00    +0.000 A 
ATOM     33  C   UNL     1       2.144   4.422  17.882  0.00  0.00    +0.000 A 
ATOM     34  C   UNL     1       3.494   4.793  18.110  0.00  0.00    +0.000 A 
ENDBRANCH  22  24
ENDBRANCH  21  22
ENDBRANCH  20  21
ENDBRANCH  19  20
ENDBRANCH  18  19
ENDBRANCH   1  18
TORSDOF 11
ENDMDL
MODEL 8
REMARK VINA RESULT:      -7.6      1.279     10.482
REMARK  Name = 
REMARK  13 active torsions:
REMARK  status: ('A' for Active; 'I' for Inactive)
REMARK    1  A    between atoms: C_1  and  C_2
REMARK    2  A    between atoms: C_4  and  N_5
REMARK    3  A    between atoms: N_5  and  C_6
REMARK    4  A    between atoms: C_6  and  C_7
REMARK    5  A    between atoms: C_7  and  C_8
REMARK    6  A    between atoms: C_8  and  C_9
REMARK    7  A    between atoms: C_9  and  C_10
REMARK    8  A    between atoms: C_10  and  C_11
REMARK    9  A    between atoms: C_11  and  C_12
REMARK   10  A    between atoms: C_12  and  C_13
REMARK   11  A    between atoms: C_13  and  N_14
REMARK   12  A    between atoms: N_14  and  C_15
REMARK   13  A    between atoms: C_17  and  C_18
REMARK                            x       y       z     vdW  Elec       q    Type
REMARK                         _______ _______ _______ _____ _____    ______ ____
ROOT
ATOM      1  C   UNL     1       3.203   7.032  17.828  0.00  0.00    +0.000 C 
ENDROOT
BRANCH   1   2
ATOM      2  C   UNL     1       2.820   6.039  18.928  0.00  0.00    +0.000 C 
BRANCH   2   3
ATOM      3  C   UNL     1       3.213   4.607  18.566  0.00  0.00    +0.000 C 
BRANCH   3   4
ATOM      4  C   UNL     1       4.267   4.069  19.528  0.00  0.00    +0.000 C 
BRANCH   4   5
ATOM      5  N   UNL     1       5.492   3.749  18.833  0.00  0.00    +0.000 N 
ATOM      6  H   UNL     1       5.701   2.772  18.683  0.00  0.00    +0.000 HD
BRANCH   5  10
ATOM      7  C   UNL     1       8.205   7.856  18.436  0.00  0.00    +0.000 C 
ATOM      8  C   UNL     1       7.509   6.683  17.825  0.00  0.00    +0.000 A 
ATOM      9  C   UNL     1       6.796   5.794  18.613  0.00  0.00    +0.000 A 
ATOM     10  C   UNL     1       6.139   4.702  18.039  0.00  0.00    +0.000 A 
ATOM     11  C   UNL     1       6.230   4.540  16.630  0.00  0.00    +0.000 A 
ATOM     12  C   UNL     1       5.609   3.491  15.904  0.00  0.00    +0.000 A 
ATOM     13  C   UNL     1       5.743   3.383  14.520  0.00  0.00    +0.000 A 
ATOM     14  C   UNL     1       6.502   4.319  13.837  0.00  0.00    +0.000 A 
ATOM     15  C   UNL     1       7.115   5.359  14.537  0.00  0.00    +0.000 A 
ATOM     16  C   UNL     1       6.991   5.494  15.912  0.00  0.00    +0.000 A 
ATOM     17  N   UNL     1       7.611   6.535  16.489  0.00  0.00    +0.000 NA
ENDBRANCH   5  10
ENDBRANCH   4   5
ENDBRANCH   3   4
ENDBRANCH   2   3
ENDBRANCH   1   2
BRANCH   1  18
ATOM     18  C   UNL     1       2.377   8.300  17.930  0.00  0.00    +0.000 C 
BRANCH  18  19
ATOM     19  C   UNL     1       1.915   8.529  19.371  0.00  0.00    +0.000 C 
BRANCH  19  20
ATOM     20  C   UNL     1       0.992   9.740  19.494  0.00  0.00    +0.000 C 
BRANCH  20  21
ATOM     21  C   UNL     1      -0.280   9.551  18.673  0.00  0.00    +0.000 C 
BRANCH  21  22
ATOM     22  N   UNL     1      -0.536  10.718  17.848  0.00  0.00    +0.000 N 
ATOM     23  H   UNL     1       0.167  10.875  17.133  0.00  0.00    +0.000 HD
BRANCH  22  24
ATOM     24  C   UNL     1      -1.850  10.945  17.386  0.00  0.00    +0.000 A 
ATOM     25  C   UNL     1      -2.274  10.472  16.137  0.00  0.00    +0.000 A 
ATOM     26  C   UNL     1      -3.601  10.601  15.754  0.00  0.00    +0.000 A 
ATOM     27  C   UNL     1      -4.057  10.114  14.411  0.00  0.00    +0.000 C 
ATOM     28  N   UNL     1      -4.533  11.149  16.557  0.00  0.00    +0.000 NA
ATOM     29  C   UNL     1      -4.157  11.593  17.766  0.00  0.00    +0.000 A 
ATOM     30  C   UNL     1      -5.135  12.134  18.588  0.00  0.00    +0.000 A 
ATOM     31  C   UNL     1      -4.845  12.635  19.858  0.00  0.00    +0.000 A 
ATOM     32  C   UNL     1      -3.542  12.593  20.329  0.00  0.00    +0.000 A 
ATOM     33  C   UNL     1      -2.543  12.039  19.531  0.00  0.00    +0.000 A 
ATOM     34  C   UNL     1      -2.825  11.526  18.239  0.00  0.00    +0.000 A 
ENDBRANCH  22  24
ENDBRANCH  21  22
ENDBRANCH  20  21
ENDBRANCH  19  20
ENDBRANCH  18  19
ENDBRANCH   1  18
TORSDOF 11
ENDMDL
MODEL 9
REMARK VINA RESULT:      -7.6      1.957     10.439
REMARK  Name = 
REMARK  13 active torsions:
REMARK  status: ('A' for Active; 'I' for Inactive)
REMARK    1  A    between atoms: C_1  and  C_2
REMARK    2  A    between atoms: C_4  and  N_5
REMARK    3  A    between atoms: N_5  and  C_6
REMARK    4  A    between atoms: C_6  and  C_7
REMARK    5  A    between atoms: C_7  and  C_8
REMARK    6  A    between atoms: C_8  and  C_9
REMARK    7  A    between atoms: C_9  and  C_10
REMARK    8  A    between atoms: C_10  and  C_11
REMARK    9  A    between atoms: C_11  and  C_12
REMARK   10  A    between atoms: C_12  and  C_13
REMARK   11  A    between atoms: C_13  and  N_14
REMARK   12  A    between atoms: N_14  and  C_15
REMARK   13  A    between atoms: C_17  and  C_18
REMARK                            x       y       z     vdW  Elec       q    Type
REMARK                         _______ _______ _______ _____ _____    ______ ____
ROOT
ATOM      1  C   UNL     1       1.179   9.439  21.897  0.00  0.00    +0.000 C 
ENDROOT
BRANCH   1   2
ATOM      2  C   UNL     1       1.092   8.467  20.719  0.00  0.00    +0.000 C 
BRANCH   2   3
ATOM      3  C   UNL     1       1.402   9.151  19.388  0.00  0.00    +0.000 C 
BRANCH   3   4
ATOM      4  C   UNL     1       1.825   8.133  18.334  0.00  0.00    +0.000 C 
BRANCH   4   5
ATOM      5  N   UNL     1       2.855   7.257  18.841  0.00  0.00    +0.000 N 
ATOM      6  H   UNL     1       3.293   7.510  19.716  0.00  0.00    +0.000 HD
BRANCH   5  10
ATOM      7  C   UNL     1       1.044   2.668  18.630  0.00  0.00    +0.000 C 
ATOM      8  C   UNL     1       2.062   3.692  18.244  0.00  0.00    +0.000 A 
ATOM      9  C   UNL     1       2.000   4.978  18.757  0.00  0.00    +0.000 A 
ATOM     10  C   UNL     1       2.957   5.933  18.401  0.00  0.00    +0.000 A 
ATOM     11  C   UNL     1       3.984   5.538  17.502  0.00  0.00    +0.000 A 
ATOM     12  C   UNL     1       5.030   6.389  17.059  0.00  0.00    +0.000 A 
ATOM     13  C   UNL     1       6.006   5.942  16.168  0.00  0.00    +0.000 A 
ATOM     14  C   UNL     1       5.954   4.639  15.703  0.00  0.00    +0.000 A 
ATOM     15  C   UNL     1       4.933   3.789  16.132  0.00  0.00    +0.000 A 
ATOM     16  C   UNL     1       3.956   4.206  17.024  0.00  0.00    +0.000 A 
ATOM     17  N   UNL     1       3.025   3.308  17.384  0.00  0.00    +0.000 NA
ENDBRANCH   5  10
ENDBRANCH   4   5
ENDBRANCH   3   4
ENDBRANCH   2   3
ENDBRANCH   1   2
BRANCH   1  18
ATOM     18  C   UNL     1      -0.006   9.272  22.829  0.00  0.00    +0.000 C 
BRANCH  18  19
ATOM     19  C   UNL     1      -0.947  10.474  22.726  0.00  0.00    +0.000 C 
BRANCH  19  20
ATOM     20  C   UNL     1      -0.275  11.678  22.068  0.00  0.00    +0.000 C 
BRANCH  20  21
ATOM     21  C   UNL     1      -1.215  12.879  22.022  0.00  0.00    +0.000 C 
BRANCH  21  22
ATOM     22  N   UNL     1      -1.552  13.213  20.650  0.00  0.00    +0.000 N 
ATOM     23  H   UNL     1      -0.766  13.155  20.010  0.00  0.00    +0.000 HD
BRANCH  22  24
ATOM     24  C   UNL     1      -2.746  12.693  20.102  0.00  0.00    +0.000 A 
ATOM     25  C   UNL     1      -3.999  13.189  20.485  0.00  0.00    +0.000 A 
ATOM     26  C   UNL     1      -5.149  12.748  19.848  0.00  0.00    +0.000 A 
ATOM     27  C   UNL     1      -6.495  13.261  20.266  0.00  0.00    +0.000 C 
ATOM     28  N   UNL     1      -5.118  11.863  18.834  0.00  0.00    +0.000 NA
ATOM     29  C   UNL     1      -3.928  11.387  18.435  0.00  0.00    +0.000 A 
ATOM     30  C   UNL     1      -3.915  10.492  17.374  0.00  0.00    +0.000 A 
ATOM     31  C   UNL     1      -2.731   9.930  16.893  0.00  0.00    +0.000 A 
ATOM     32  C   UNL     1      -1.523  10.269  17.481  0.00  0.00    +0.000 A 
ATOM     33  C   UNL     1      -1.506  11.178  18.537  0.00  0.00    +0.000 A 
ATOM     34  C   UNL     1      -2.702  11.757  19.035  0.00  0.00    +0.000 A 
ENDBRANCH  22  24
ENDBRANCH  21  22
ENDBRANCH  20  21
ENDBRANCH  19  20
ENDBRANCH  18  19
ENDBRANCH   1  18
TORSDOF 11
ENDMDL
