MODEL 1
REMARK VINA RESULT:      -9.0      0.000      0.000
REMARK  Name = 
REMARK  6 active torsions:
REMARK  status: ('A' for Active; 'I' for Inactive)
REMARK    1  A    between atoms: C_1  and  N_2
REMARK    2  A    between atoms: C_3  and  C_5
REMARK    3  A    between atoms: C_8  and  C_9
REMARK    4  A    between atoms: C_11  and  C_12
REMARK    5  A    between atoms: C_15  and  O_16
REMARK    6  A    between atoms: O_16  and  C_17
REMARK                            x       y       z     vdW  Elec       q    Type
REMARK                         _______ _______ _______ _____ _____    ______ ____
ROOT
ATOM      1  C   UNL     1      -1.390  12.570  20.217  0.00  0.00    +0.000 A 
ATOM      2  N   UNL     1      -1.115  11.279  20.135  0.00  0.00    +0.000 NA
ATOM      3  C   UNL     1       0.115  11.182  19.521  0.00  0.00    +0.000 A 
ATOM      4  C   UNL     1       0.558  12.433  19.131  0.00  0.00    +0.000 A 
ATOM      5  C   UNL     1       1.714  12.973  18.437  0.00  0.00    +0.000 A 
ATOM      6  N   UNL     1       2.739  12.245  17.906  0.00  0.00    +0.000 N 
ATOM      7  N   UNL     1       1.843  14.272  18.268  0.00  0.00    +0.000 NA
ATOM      8  C   UNL     1       0.851  15.103  18.742  0.00  0.00    +0.000 A 
ATOM      9  C   UNL     1      -0.243  14.673  19.379  0.00  0.00    +0.000 A 
ATOM     10  N   UNL     1      -0.406  13.313  19.588  0.00  0.00    +0.000 N 
ATOM     11  H   UNL     1       2.481  11.363  17.484  0.00  0.00    +0.000 HD
ATOM     12  H   UNL     1       3.344  12.811  17.323  0.00  0.00    +0.000 HD
ENDROOT
BRANCH   1  16
ATOM     13  C   UNL     1      -5.150  12.689  22.426  0.00  0.00    +0.000 C 
ATOM     14  C   UNL     1      -5.121  13.302  21.019  0.00  0.00    +0.000 C 
ATOM     15  C   UNL     1      -3.888  12.852  20.227  0.00  0.00    +0.000 C 
ATOM     16  C   UNL     1      -2.571  13.143  20.966  0.00  0.00    +0.000 C 
ATOM     17  C   UNL     1      -2.621  12.552  22.386  0.00  0.00    +0.000 C 
ATOM     18  C   UNL     1      -3.847  13.021  23.166  0.00  0.00    +0.000 C 
BRANCH  13  21
ATOM     19  C   UNL     1      -7.887  15.047  23.626  0.00  0.00    +0.000 C 
ATOM     20  N   UNL     1      -6.735  14.470  22.977  0.00  0.00    +0.000 N 
ATOM     21  C   UNL     1      -6.366  13.166  23.227  0.00  0.00    +0.000 C 
ATOM     22  O   UNL     1      -6.974  12.448  24.015  0.00  0.00    +0.000 OA
ATOM     23  H   UNL     1      -6.260  15.002  22.260  0.00  0.00    +0.000 HD
ENDBRANCH  13  21
ENDBRANCH   1  16
BRANCH   3  24
ATOM     24  C   UNL     1       0.786   9.903  19.357  0.00  0.00    +0.000 A 
ATOM     25  C   UNL     1       1.162   9.445  18.087  0.00  0.00    +0.000 A 
ATOM     26  C   UNL     1       1.871   8.244  17.946  0.00  0.00    +0.000 A 
ATOM     27  C   UNL     1       2.233   7.504  19.074  0.00  0.00    +0.000 A 
ATOM     28  C   UNL     1       1.774   7.903  20.327  0.00  0.00    +0.000 A 
ATOM     29  C   UNL     1       1.037   9.078  20.459  0.00  0.00    +0.000 A 
BRANCH  27  30
ATOM     30  O   UNL     1       2.981   6.367  18.862  0.00  0.00    +0.000 OA
BRANCH  30  31
ATOM     31  C   UNL     1       2.369   5.132  18.927  0.00  0.00    +0.000 A 
ATOM     32  C   UNL     1       2.525   4.306  17.811  0.00  0.00    +0.000 A 
ATOM     33  C   UNL     1       1.950   3.033  17.794  0.00  0.00    +0.000 A 
ATOM     34  C   UNL     1       1.216   2.582  18.892  0.00  0.00    +0.000 A 
ATOM     35  C   UNL     1       1.079   3.394  20.017  0.00  0.00    +0.000 A 
ATOM     36  C   UNL     1       1.676   4.656  20.045  0.00  0.00    +0.000 A 
ENDBRANCH  30  31
ENDBRANCH  27  30
ENDBRANCH   3  24
TORSDOF 5
ENDMDL
MODEL 2
REMARK VINA RESULT:      -9.0      0.654      1.062
REMARK  Name = 
REMARK  6 active torsions:
REMARK  status: ('A' for Active; 'I' for Inactive)
REMARK    1  A    between atoms: C_1  and  N_2
REMARK    2  A    between atoms: C_3  and  C_5
REMARK    3  A    between atoms: C_8  and  C_9
REMARK    4  A    between atoms: C_11  and  C_12
REMARK    5  A    between atoms: C_15  and  O_16
REMARK    6  A    between atoms: O_16  and  C_17
REMARK                            x       y       z     vdW  Elec       q    Type
REMARK                         _______ _______ _______ _____ _____    ______ ____
ROOT
ATOM      1  C   UNL     1      -1.524  12.573  19.911  0.00  0.00    +0.000 A 
ATOM      2  N   UNL     1      -1.148  11.310  19.807  0.00  0.00    +0.000 NA
ATOM      3  C   UNL     1       0.150  11.326  19.346  0.00  0.00    +0.000 A 
ATOM      4  C   UNL     1       0.546  12.623  19.068  0.00  0.00    +0.000 A 
ATOM      5  C   UNL     1       1.735  13.274  18.547  0.00  0.00    +0.000 A 
ATOM      6  N   UNL     1       2.865  12.643  18.116  0.00  0.00    +0.000 N 
ATOM      7  N   UNL     1       1.789  14.585  18.452  0.00  0.00    +0.000 NA
ATOM      8  C   UNL     1       0.689  15.323  18.837  0.00  0.00    +0.000 A 
ATOM      9  C   UNL     1      -0.439  14.789  19.314  0.00  0.00    +0.000 A 
ATOM     10  N   UNL     1      -0.528  13.412  19.441  0.00  0.00    +0.000 N 
ATOM     11  H   UNL     1       2.724  11.770  17.627  0.00  0.00    +0.000 HD
ATOM     12  H   UNL     1       3.494  13.278  17.637  0.00  0.00    +0.000 HD
ENDROOT
BRANCH   1  16
ATOM     13  C   UNL     1      -5.437  12.320  21.823  0.00  0.00    +0.000 C 
ATOM     14  C   UNL     1      -5.370  12.856  20.387  0.00  0.00    +0.000 C 
ATOM     15  C   UNL     1      -4.030  12.529  19.717  0.00  0.00    +0.000 C 
ATOM     16  C   UNL     1      -2.824  13.027  20.533  0.00  0.00    +0.000 C 
ATOM     17  C   UNL     1      -2.915  12.510  21.980  0.00  0.00    +0.000 C 
ATOM     18  C   UNL     1      -4.251  12.857  22.635  0.00  0.00    +0.000 C 
BRANCH  13  21
ATOM     19  C   UNL     1      -7.858  14.199  24.081  0.00  0.00    +0.000 C 
ATOM     20  N   UNL     1      -6.682  13.722  23.395  0.00  0.00    +0.000 N 
ATOM     21  C   UNL     1      -6.764  12.677  22.501  0.00  0.00    +0.000 C 
ATOM     22  O   UNL     1      -7.818  12.097  22.259  0.00  0.00    +0.000 OA
ATOM     23  H   UNL     1      -5.813  14.228  23.504  0.00  0.00    +0.000 HD
ENDBRANCH  13  21
ENDBRANCH   1  16
BRANCH   3  24
ATOM     24  C   UNL     1       0.926  10.105  19.210  0.00  0.00    +0.000 A 
ATOM     25  C   UNL     1       1.196   9.297  20.322  0.00  0.00    +0.000 A 
ATOM     26  C   UNL     1       1.885   8.085  20.170  0.00  0.00    +0.000 A 
ATOM     27  C   UNL     1       2.285   7.658  18.902  0.00  0.00    +0.000 A 
ATOM     28  C   UNL     1       2.109   8.505  17.810  0.00  0.00    +0.000 A 
ATOM     29  C   UNL     1       1.457   9.726  17.972  0.00  0.00    +0.000 A 
BRANCH  27  30
ATOM     30  O   UNL     1       2.902   6.430  18.821  0.00  0.00    +0.000 OA
BRANCH  30  31
ATOM     31  C   UNL     1       2.190   5.292  19.139  0.00  0.00    +0.000 A 
ATOM     32  C   UNL     1       1.799   4.487  18.065  0.00  0.00    +0.000 A 
ATOM     33  C   UNL     1       1.085   3.309  18.294  0.00  0.00    +0.000 A 
ATOM     34  C   UNL     1       0.759   2.931  19.597  0.00  0.00    +0.000 A 
ATOM     35  C   UNL     1       1.168   3.718  20.672  0.00  0.00    +0.000 A 
ATOM     36  C   UNL     1       1.905   4.882  20.446  0.00  0.00    +0.000 A 
ENDBRANCH  30  31
ENDBRANCH  27  30
ENDBRANCH   3  24
TORSDOF 5
ENDMDL
MODEL 3
REMARK VINA RESULT:      -8.8      4.785      7.565
REMARK  Name = 
REMARK  6 active torsions:
REMARK  status: ('A' for Active; 'I' for Inactive)
REMARK    1  A    between atoms: C_1  and  N_2
REMARK    2  A    between atoms: C_3  and  C_5
REMARK    3  A    between atoms: C_8  and  C_9
REMARK    4  A    between atoms: C_11  and  C_12
REMARK    5  A    between atoms: C_15  and  O_16
REMARK    6  A    between atoms: O_16  and  C_17
REMARK                            x       y       z     vdW  Elec       q    Type
REMARK                         _______ _______ _______ _____ _____    ______ ____
ROOT
ATOM      1  C   UNL     1       2.043   6.856  20.158  0.00  0.00    +0.000 A 
ATOM      2  N   UNL     1       3.027   7.175  19.334  0.00  0.00    +0.000 NA
ATOM      3  C   UNL     1       3.624   5.990  18.964  0.00  0.00    +0.000 A 
ATOM      4  C   UNL     1       3.058   4.930  19.650  0.00  0.00    +0.000 A 
ATOM      5  C   UNL     1       3.260   3.494  19.725  0.00  0.00    +0.000 A 
ATOM      6  N   UNL     1       4.225   2.789  19.068  0.00  0.00    +0.000 N 
ATOM      7  N   UNL     1       2.480   2.751  20.480  0.00  0.00    +0.000 NA
ATOM      8  C   UNL     1       1.484   3.364  21.211  0.00  0.00    +0.000 A 
ATOM      9  C   UNL     1       1.251   4.680  21.197  0.00  0.00    +0.000 A 
ATOM     10  N   UNL     1       2.044   5.493  20.403  0.00  0.00    +0.000 N 
ATOM     11  H   UNL     1       5.123   3.245  18.979  0.00  0.00    +0.000 HD
ATOM     12  H   UNL     1       4.288   1.833  19.399  0.00  0.00    +0.000 HD
ENDROOT
BRANCH   1  16
ATOM     13  C   UNL     1       0.344  10.630  21.535  0.00  0.00    +0.000 C 
ATOM     14  C   UNL     1       0.501   9.495  22.557  0.00  0.00    +0.000 C 
ATOM     15  C   UNL     1       1.446   8.400  22.050  0.00  0.00    +0.000 C 
ATOM     16  C   UNL     1       1.020   7.836  20.683  0.00  0.00    +0.000 C 
ATOM     17  C   UNL     1       0.835   8.983  19.674  0.00  0.00    +0.000 C 
ATOM     18  C   UNL     1      -0.120  10.059  20.189  0.00  0.00    +0.000 C 
BRANCH  13  21
ATOM     19  C   UNL     1      -2.543  12.156  23.492  0.00  0.00    +0.000 C 
ATOM     20  N   UNL     1      -1.584  11.250  22.909  0.00  0.00    +0.000 N 
ATOM     21  C   UNL     1      -0.627  11.708  22.030  0.00  0.00    +0.000 C 
ATOM     22  O   UNL     1      -0.553  12.884  21.689  0.00  0.00    +0.000 OA
ATOM     23  H   UNL     1      -1.560  10.291  23.229  0.00  0.00    +0.000 HD
ENDBRANCH  13  21
ENDBRANCH   1  16
BRANCH   3  24
ATOM     24  C   UNL     1       4.688   5.949  17.974  0.00  0.00    +0.000 A 
ATOM     25  C   UNL     1       5.939   5.399  18.284  0.00  0.00    +0.000 A 
ATOM     26  C   UNL     1       6.935   5.300  17.303  0.00  0.00    +0.000 A 
ATOM     27  C   UNL     1       6.681   5.726  15.997  0.00  0.00    +0.000 A 
ATOM     28  C   UNL     1       5.477   6.367  15.711  0.00  0.00    +0.000 A 
ATOM     29  C   UNL     1       4.504   6.496  16.699  0.00  0.00    +0.000 A 
BRANCH  27  30
ATOM     30  O   UNL     1       7.685   5.543  15.073  0.00  0.00    +0.000 OA
BRANCH  30  31
ATOM     31  C   UNL     1       7.394   4.938  13.868  0.00  0.00    +0.000 A 
ATOM     32  C   UNL     1       6.471   3.890  13.909  0.00  0.00    +0.000 A 
ATOM     33  C   UNL     1       6.107   3.228  12.735  0.00  0.00    +0.000 A 
ATOM     34  C   UNL     1       6.665   3.609  11.515  0.00  0.00    +0.000 A 
ATOM     35  C   UNL     1       7.568   4.670  11.465  0.00  0.00    +0.000 A 
ATOM     36  C   UNL     1       7.912   5.350  12.635  0.00  0.00    +0.000 A 
ENDBRANCH  30  31
ENDBRANCH  27  30
ENDBRANCH   3  24
TORSDOF 5
ENDMDL
MODEL 4
REMARK VINA RESULT:      -8.7      4.850      7.905
REMARK  Name = 
REMARK  6 active torsions:
REMARK  status: ('A' for Active; 'I' for Inactive)
REMARK    1  A    between atoms: C_1  and  N_2
REMARK    2  A    between atoms: C_3  and  C_5
REMARK    3  A    between atoms: C_8  and  C_9
REMARK    4  A    between atoms: C_11  and  C_12
REMARK    5  A    between atoms: C_15  and  O_16
REMARK    6  A    between atoms: O_16  and  C_17
REMARK                            x       y       z     vdW  Elec       q    Type
REMARK                         _______ _______ _______ _____ _____    ______ ____
ROOT
ATOM      1  C   UNL     1       2.352   6.593  19.546  0.00  0.00    +0.000 A 
ATOM      2  N   UNL     1       3.129   6.731  18.485  0.00  0.00    +0.000 NA
ATOM      3  C   UNL     1       3.746   5.514  18.293  0.00  0.00    +0.000 A 
ATOM      4  C   UNL     1       3.416   4.641  19.314  0.00  0.00    +0.000 A 
ATOM      5  C   UNL     1       3.752   3.278  19.687  0.00  0.00    +0.000 A 
ATOM      6  N   UNL     1       4.632   2.466  19.031  0.00  0.00    +0.000 N 
ATOM      7  N   UNL     1       3.198   2.720  20.741  0.00  0.00    +0.000 NA
ATOM      8  C   UNL     1       2.312   3.460  21.494  0.00  0.00    +0.000 A 
ATOM      9  C   UNL     1       1.966   4.720  21.215  0.00  0.00    +0.000 A 
ATOM     10  N   UNL     1       2.519   5.337  20.104  0.00  0.00    +0.000 N 
ATOM     11  H   UNL     1       5.453   2.919  18.653  0.00  0.00    +0.000 HD
ATOM     12  H   UNL     1       4.840   1.628  19.561  0.00  0.00    +0.000 HD
ENDROOT
BRANCH   1  16
ATOM     13  C   UNL     1       0.862  10.392  21.087  0.00  0.00    +0.000 C 
ATOM     14  C   UNL     1       0.726   9.150  21.979  0.00  0.00    +0.000 C 
ATOM     15  C   UNL     1       1.619   8.002  21.495  0.00  0.00    +0.000 C 
ATOM     16  C   UNL     1       1.367   7.635  20.023  0.00  0.00    +0.000 C 
ATOM     17  C   UNL     1       1.474   8.892  19.140  0.00  0.00    +0.000 C 
ATOM     18  C   UNL     1       0.568  10.020  19.628  0.00  0.00    +0.000 C 
BRANCH  13  21
ATOM     19  C   UNL     1      -1.549  13.325  20.812  0.00  0.00    +0.000 C 
ATOM     20  N   UNL     1      -0.629  12.251  20.529  0.00  0.00    +0.000 N 
ATOM     21  C   UNL     1      -0.057  11.527  21.553  0.00  0.00    +0.000 C 
ATOM     22  O   UNL     1      -0.281  11.766  22.735  0.00  0.00    +0.000 OA
ATOM     23  H   UNL     1      -0.484  11.970  19.569  0.00  0.00    +0.000 HD
ENDBRANCH  13  21
ENDBRANCH   1  16
BRANCH   3  24
ATOM     24  C   UNL     1       4.600   5.266  17.144  0.00  0.00    +0.000 A 
ATOM     25  C   UNL     1       4.857   3.960  16.707  0.00  0.00    +0.000 A 
ATOM     26  C   UNL     1       5.624   3.733  15.555  0.00  0.00    +0.000 A 
ATOM     27  C   UNL     1       6.119   4.811  14.817  0.00  0.00    +0.000 A 
ATOM     28  C   UNL     1       5.953   6.105  15.305  0.00  0.00    +0.000 A 
ATOM     29  C   UNL     1       5.221   6.323  16.470  0.00  0.00    +0.000 A 
BRANCH  27  30
ATOM     30  O   UNL     1       6.813   4.513  13.665  0.00  0.00    +0.000 OA
BRANCH  30  31
ATOM     31  C   UNL     1       6.254   3.658  12.739  0.00  0.00    +0.000 A 
ATOM     32  C   UNL     1       4.918   3.896  12.406  0.00  0.00    +0.000 A 
ATOM     33  C   UNL     1       4.273   3.087  11.467  0.00  0.00    +0.000 A 
ATOM     34  C   UNL     1       4.961   2.037  10.859  0.00  0.00    +0.000 A 
ATOM     35  C   UNL     1       6.301   1.810  11.171  0.00  0.00    +0.000 A 
ATOM     36  C   UNL     1       6.953   2.635  12.089  0.00  0.00    +0.000 A 
ENDBRANCH  30  31
ENDBRANCH  27  30
ENDBRANCH   3  24
TORSDOF 5
ENDMDL
MODEL 5
REMARK VINA RESULT:      -8.6      2.977      3.909
REMARK  Name = 
REMARK  6 active torsions:
REMARK  status: ('A' for Active; 'I' for Inactive)
REMARK    1  A    between atoms: C_1  and  N_2
REMARK    2  A    between atoms: C_3  and  C_5
REMARK    3  A    between atoms: C_8  and  C_9
REMARK    4  A    between atoms: C_11  and  C_12
REMARK    5  A    between atoms: C_15  and  O_16
REMARK    6  A    between atoms: O_16  and  C_17
REMARK                            x       y       z     vdW  Elec       q    Type
REMARK                         _______ _______ _______ _____ _____    ______ ____
ROOT
ATOM      1  C   UNL     1      -1.035  10.925  19.278  0.00  0.00    +0.000 A 
ATOM      2  N   UNL     1      -0.183  10.194  18.578  0.00  0.00    +0.000 NA
ATOM      3  C   UNL     1       0.618   9.547  19.494  0.00  0.00    +0.000 A 
ATOM      4  C   UNL     1       0.315   9.964  20.778  0.00  0.00    +0.000 A 
ATOM      5  C   UNL     1       0.804   9.691  22.118  0.00  0.00    +0.000 A 
ATOM      6  N   UNL     1       1.853   8.877  22.434  0.00  0.00    +0.000 N 
ATOM      7  N   UNL     1       0.233  10.251  23.162  0.00  0.00    +0.000 NA
ATOM      8  C   UNL     1      -0.822  11.115  22.957  0.00  0.00    +0.000 A 
ATOM      9  C   UNL     1      -1.315  11.418  21.752  0.00  0.00    +0.000 A 
ATOM     10  N   UNL     1      -0.748  10.837  20.630  0.00  0.00    +0.000 N 
ATOM     11  H   UNL     1       2.634   8.895  21.793  0.00  0.00    +0.000 HD
ATOM     12  H   UNL     1       2.124   8.970  23.406  0.00  0.00    +0.000 HD
ENDROOT
BRANCH   1  16
ATOM     13  C   UNL     1      -5.160  11.890  18.238  0.00  0.00    +0.000 C 
ATOM     14  C   UNL     1      -4.204  11.496  17.103  0.00  0.00    +0.000 C 
ATOM     15  C   UNL     1      -2.936  10.819  17.636  0.00  0.00    +0.000 C 
ATOM     16  C   UNL     1      -2.203  11.677  18.682  0.00  0.00    +0.000 C 
ATOM     17  C   UNL     1      -3.176  12.093  19.800  0.00  0.00    +0.000 C 
ATOM     18  C   UNL     1      -4.427  12.777  19.252  0.00  0.00    +0.000 C 
BRANCH  13  21
ATOM     19  C   UNL     1      -7.230  14.479  16.367  0.00  0.00    +0.000 C 
ATOM     20  N   UNL     1      -6.154  13.731  16.968  0.00  0.00    +0.000 N 
ATOM     21  C   UNL     1      -6.412  12.595  17.705  0.00  0.00    +0.000 C 
ATOM     22  O   UNL     1      -7.550  12.181  17.901  0.00  0.00    +0.000 OA
ATOM     23  H   UNL     1      -5.200  13.992  16.760  0.00  0.00    +0.000 HD
ENDBRANCH  13  21
ENDBRANCH   1  16
BRANCH   3  24
ATOM     24  C   UNL     1       1.611   8.569  19.080  0.00  0.00    +0.000 A 
ATOM     25  C   UNL     1       1.861   7.427  19.852  0.00  0.00    +0.000 A 
ATOM     26  C   UNL     1       2.769   6.455  19.410  0.00  0.00    +0.000 A 
ATOM     27  C   UNL     1       3.415   6.603  18.180  0.00  0.00    +0.000 A 
ATOM     28  C   UNL     1       3.246   7.784  17.460  0.00  0.00    +0.000 A 
ATOM     29  C   UNL     1       2.371   8.764  17.921  0.00  0.00    +0.000 A 
BRANCH  27  30
ATOM     30  O   UNL     1       4.247   5.580  17.783  0.00  0.00    +0.000 OA
BRANCH  30  31
ATOM     31  C   UNL     1       3.877   4.273  18.026  0.00  0.00    +0.000 A 
ATOM     32  C   UNL     1       4.523   3.635  19.087  0.00  0.00    +0.000 A 
ATOM     33  C   UNL     1       4.202   2.315  19.413  0.00  0.00    +0.000 A 
ATOM     34  C   UNL     1       3.235   1.629  18.679  0.00  0.00    +0.000 A 
ATOM     35  C   UNL     1       2.571   2.270  17.634  0.00  0.00    +0.000 A 
ATOM     36  C   UNL     1       2.872   3.598  17.325  0.00  0.00    +0.000 A 
ENDBRANCH  30  31
ENDBRANCH  27  30
ENDBRANCH   3  24
TORSDOF 5
ENDMDL
MODEL 6
REMARK VINA RESULT:      -8.6      1.734      2.223
REMARK  Name = 
REMARK  6 active torsions:
REMARK  status: ('A' for Active; 'I' for Inactive)
REMARK    1  A    between atoms: C_1  and  N_2
REMARK    2  A    between atoms: C_3  and  C_5
REMARK    3  A    between atoms: C_8  and  C_9
REMARK    4  A    between atoms: C_11  and  C_12
REMARK    5  A    between atoms: C_15  and  O_16
REMARK    6  A    between atoms: O_16  and  C_17
REMARK                            x       y       z     vdW  Elec       q    Type
REMARK                         _______ _______ _______ _____ _____    ______ ____
ROOT
ATOM      1  C   UNL     1      -0.954  12.371  20.181  0.00  0.00    +0.000 A 
ATOM      2  N   UNL     1      -0.741  11.078  20.007  0.00  0.00    +0.000 NA
ATOM      3  C   UNL     1       0.460  10.968  19.340  0.00  0.00    +0.000 A 
ATOM      4  C   UNL     1       0.945  12.221  19.011  0.00  0.00    +0.000 A 
ATOM      5  C   UNL     1       2.098  12.755  18.307  0.00  0.00    +0.000 A 
ATOM      6  N   UNL     1       3.068  12.019  17.692  0.00  0.00    +0.000 N 
ATOM      7  N   UNL     1       2.278  14.055  18.215  0.00  0.00    +0.000 NA
ATOM      8  C   UNL     1       1.343  14.896  18.780  0.00  0.00    +0.000 A 
ATOM      9  C   UNL     1       0.255  14.473  19.431  0.00  0.00    +0.000 A 
ATOM     10  N   UNL     1       0.039  13.111  19.561  0.00  0.00    +0.000 N 
ATOM     11  H   UNL     1       2.755  11.178  17.226  0.00  0.00    +0.000 HD
ATOM     12  H   UNL     1       3.676  12.595  17.122  0.00  0.00    +0.000 HD
ENDROOT
BRANCH   1  16
ATOM     13  C   UNL     1      -4.655  12.521  22.486  0.00  0.00    +0.000 C 
ATOM     14  C   UNL     1      -4.612  13.263  21.144  0.00  0.00    +0.000 C 
ATOM     15  C   UNL     1      -3.427  12.812  20.281  0.00  0.00    +0.000 C 
ATOM     16  C   UNL     1      -2.079  12.945  21.010  0.00  0.00    +0.000 C 
ATOM     17  C   UNL     1      -2.141  12.225  22.369  0.00  0.00    +0.000 C 
ATOM     18  C   UNL     1      -3.319  12.695  23.221  0.00  0.00    +0.000 C 
BRANCH  13  21
ATOM     19  C   UNL     1      -7.232  14.915  23.942  0.00  0.00    +0.000 C 
ATOM     20  N   UNL     1      -6.131  14.331  23.215  0.00  0.00    +0.000 N 
ATOM     21  C   UNL     1      -5.820  12.997  23.360  0.00  0.00    +0.000 C 
ATOM     22  O   UNL     1      -6.439  12.254  24.115  0.00  0.00    +0.000 OA
ATOM     23  H   UNL     1      -5.652  14.890  22.521  0.00  0.00    +0.000 HD
ENDBRANCH  13  21
ENDBRANCH   1  16
BRANCH   3  24
ATOM     24  C   UNL     1       1.066   9.674  19.070  0.00  0.00    +0.000 A 
ATOM     25  C   UNL     1       1.308   9.254  17.755  0.00  0.00    +0.000 A 
ATOM     26  C   UNL     1       1.957   8.036  17.507  0.00  0.00    +0.000 A 
ATOM     27  C   UNL     1       2.392   7.241  18.570  0.00  0.00    +0.000 A 
ATOM     28  C   UNL     1       2.062   7.606  19.873  0.00  0.00    +0.000 A 
ATOM     29  C   UNL     1       1.385   8.799  20.114  0.00  0.00    +0.000 A 
BRANCH  27  30
ATOM     30  O   UNL     1       3.075   6.089  18.250  0.00  0.00    +0.000 OA
BRANCH  30  31
ATOM     31  C   UNL     1       4.454   6.092  18.266  0.00  0.00    +0.000 A 
ATOM     32  C   UNL     1       5.082   6.872  17.291  0.00  0.00    +0.000 A 
ATOM     33  C   UNL     1       6.476   6.945  17.240  0.00  0.00    +0.000 A 
ATOM     34  C   UNL     1       7.247   6.239  18.163  0.00  0.00    +0.000 A 
ATOM     35  C   UNL     1       6.625   5.479  19.153  0.00  0.00    +0.000 A 
ATOM     36  C   UNL     1       5.231   5.427  19.221  0.00  0.00    +0.000 A 
ENDBRANCH  30  31
ENDBRANCH  27  30
ENDBRANCH   3  24
TORSDOF 5
ENDMDL
MODEL 7
REMARK VINA RESULT:      -8.5      4.755      7.564
REMARK  Name = 
REMARK  6 active torsions:
REMARK  status: ('A' for Active; 'I' for Inactive)
REMARK    1  A    between atoms: C_1  and  N_2
REMARK    2  A    between atoms: C_3  and  C_5
REMARK    3  A    between atoms: C_8  and  C_9
REMARK    4  A    between atoms: C_11  and  C_12
REMARK    5  A    between atoms: C_15  and  O_16
REMARK    6  A    between atoms: O_16  and  C_17
REMARK                            x       y       z     vdW  Elec       q    Type
REMARK                         _______ _______ _______ _____ _____    ______ ____
ROOT
ATOM      1  C   UNL     1       2.017   6.792  20.244  0.00  0.00    +0.000 A 
ATOM      2  N   UNL     1       2.991   7.118  19.411  0.00  0.00    +0.000 NA
ATOM      3  C   UNL     1       3.580   5.936  19.018  0.00  0.00    +0.000 A 
ATOM      4  C   UNL     1       3.019   4.870  19.698  0.00  0.00    +0.000 A 
ATOM      5  C   UNL     1       3.217   3.432  19.752  0.00  0.00    +0.000 A 
ATOM      6  N   UNL     1       4.171   2.732  19.073  0.00  0.00    +0.000 N 
ATOM      7  N   UNL     1       2.444   2.681  20.507  0.00  0.00    +0.000 NA
ATOM      8  C   UNL     1       1.461   3.288  21.259  0.00  0.00    +0.000 A 
ATOM      9  C   UNL     1       1.231   4.605  21.265  0.00  0.00    +0.000 A 
ATOM     10  N   UNL     1       2.016   5.426  20.472  0.00  0.00    +0.000 N 
ATOM     11  H   UNL     1       5.069   3.187  18.979  0.00  0.00    +0.000 HD
ATOM     12  H   UNL     1       4.235   1.772  19.391  0.00  0.00    +0.000 HD
ENDROOT
BRANCH   1  16
ATOM     13  C   UNL     1       0.315  10.575  21.593  0.00  0.00    +0.000 C 
ATOM     14  C   UNL     1       0.556   9.479  22.640  0.00  0.00    +0.000 C 
ATOM     15  C   UNL     1       1.494   8.386  22.116  0.00  0.00    +0.000 C 
ATOM     16  C   UNL     1       1.004   7.768  20.795  0.00  0.00    +0.000 C 
ATOM     17  C   UNL     1       0.736   8.876  19.761  0.00  0.00    +0.000 C 
ATOM     18  C   UNL     1      -0.211   9.949  20.295  0.00  0.00    +0.000 C 
BRANCH  13  21
ATOM     19  C   UNL     1      -2.006  13.590  21.473  0.00  0.00    +0.000 C 
ATOM     20  N   UNL     1      -1.064  12.547  21.148  0.00  0.00    +0.000 N 
ATOM     21  C   UNL     1      -0.649  11.649  22.107  0.00  0.00    +0.000 C 
ATOM     22  O   UNL     1      -1.036  11.701  23.270  0.00  0.00    +0.000 OA
ATOM     23  H   UNL     1      -0.788  12.420  20.183  0.00  0.00    +0.000 HD
ENDBRANCH  13  21
ENDBRANCH   1  16
BRANCH   3  24
ATOM     24  C   UNL     1       4.631   5.905  18.014  0.00  0.00    +0.000 A 
ATOM     25  C   UNL     1       5.884   5.350  18.302  0.00  0.00    +0.000 A 
ATOM     26  C   UNL     1       6.867   5.260  17.306  0.00  0.00    +0.000 A 
ATOM     27  C   UNL     1       6.597   5.701  16.009  0.00  0.00    +0.000 A 
ATOM     28  C   UNL     1       5.390   6.346  15.746  0.00  0.00    +0.000 A 
ATOM     29  C   UNL     1       4.430   6.466  16.748  0.00  0.00    +0.000 A 
BRANCH  27  30
ATOM     30  O   UNL     1       7.588   5.527  15.069  0.00  0.00    +0.000 OA
BRANCH  30  31
ATOM     31  C   UNL     1       7.287   4.910  13.873  0.00  0.00    +0.000 A 
ATOM     32  C   UNL     1       7.944   5.400  12.742  0.00  0.00    +0.000 A 
ATOM     33  C   UNL     1       7.710   4.827  11.489  0.00  0.00    +0.000 A 
ATOM     34  C   UNL     1       6.816   3.764  11.363  0.00  0.00    +0.000 A 
ATOM     35  C   UNL     1       6.176   3.256  12.493  0.00  0.00    +0.000 A 
ATOM     36  C   UNL     1       6.431   3.811  13.749  0.00  0.00    +0.000 A 
ENDBRANCH  30  31
ENDBRANCH  27  30
ENDBRANCH   3  24
TORSDOF 5
ENDMDL
MODEL 8
REMARK VINA RESULT:      -8.5      1.579      2.314
REMARK  Name = 
REMARK  6 active torsions:
REMARK  status: ('A' for Active; 'I' for Inactive)
REMARK    1  A    between atoms: C_1  and  N_2
REMARK    2  A    between atoms: C_3  and  C_5
REMARK    3  A    between atoms: C_8  and  C_9
REMARK    4  A    between atoms: C_11  and  C_12
REMARK    5  A    between atoms: C_15  and  O_16
REMARK    6  A    between atoms: O_16  and  C_17
REMARK                            x       y       z     vdW  Elec       q    Type
REMARK                         _______ _______ _______ _____ _____    ______ ____
ROOT
ATOM      1  C   UNL     1      -1.016  12.462  20.413  0.00  0.00    +0.000 A 
ATOM      2  N   UNL     1      -0.723  11.186  20.232  0.00  0.00    +0.000 NA
ATOM      3  C   UNL     1       0.452  11.154  19.512  0.00  0.00    +0.000 A 
ATOM      4  C   UNL     1       0.835  12.436  19.160  0.00  0.00    +0.000 A 
ATOM      5  C   UNL     1       1.916  13.043  18.404  0.00  0.00    +0.000 A 
ATOM      6  N   UNL     1       2.906  12.372  17.747  0.00  0.00    +0.000 N 
ATOM      7  N   UNL     1       2.004  14.352  18.301  0.00  0.00    +0.000 NA
ATOM      8  C   UNL     1       1.040  15.130  18.906  0.00  0.00    +0.000 A 
ATOM      9  C   UNL     1       0.014  14.638  19.606  0.00  0.00    +0.000 A 
ATOM     10  N   UNL     1      -0.104  13.265  19.747  0.00  0.00    +0.000 N 
ATOM     11  H   UNL     1       2.631  11.509  17.297  0.00  0.00    +0.000 HD
ATOM     12  H   UNL     1       3.448  12.985  17.149  0.00  0.00    +0.000 HD
ENDROOT
BRANCH   1  16
ATOM     13  C   UNL     1      -4.788  12.462  22.605  0.00  0.00    +0.000 C 
ATOM     14  C   UNL     1      -4.654  13.403  21.400  0.00  0.00    +0.000 C 
ATOM     15  C   UNL     1      -3.464  13.026  20.511  0.00  0.00    +0.000 C 
ATOM     16  C   UNL     1      -2.139  12.963  21.291  0.00  0.00    +0.000 C 
ATOM     17  C   UNL     1      -2.291  12.041  22.514  0.00  0.00    +0.000 C 
ATOM     18  C   UNL     1      -3.473  12.439  23.396  0.00  0.00    +0.000 C 
BRANCH  13  21
ATOM     19  C   UNL     1      -7.612  14.605  23.989  0.00  0.00    +0.000 C 
ATOM     20  N   UNL     1      -6.480  14.109  23.247  0.00  0.00    +0.000 N 
ATOM     21  C   UNL     1      -5.958  12.861  23.510  0.00  0.00    +0.000 C 
ATOM     22  O   UNL     1      -6.409  12.129  24.385  0.00  0.00    +0.000 OA
ATOM     23  H   UNL     1      -6.135  14.646  22.463  0.00  0.00    +0.000 HD
ENDBRANCH  13  21
ENDBRANCH   1  16
BRANCH   3  24
ATOM     24  C   UNL     1       1.131   9.903  19.217  0.00  0.00    +0.000 A 
ATOM     25  C   UNL     1       1.388   8.969  20.228  0.00  0.00    +0.000 A 
ATOM     26  C   UNL     1       1.981   7.735  19.922  0.00  0.00    +0.000 A 
ATOM     27  C   UNL     1       2.296   7.416  18.600  0.00  0.00    +0.000 A 
ATOM     28  C   UNL     1       2.137   8.381  17.608  0.00  0.00    +0.000 A 
ATOM     29  C   UNL     1       1.582   9.619  17.923  0.00  0.00    +0.000 A 
BRANCH  27  30
ATOM     30  O   UNL     1       2.820   6.163  18.367  0.00  0.00    +0.000 OA
BRANCH  30  31
ATOM     31  C   UNL     1       4.183   6.016  18.219  0.00  0.00    +0.000 A 
ATOM     32  C   UNL     1       4.863   5.434  19.293  0.00  0.00    +0.000 A 
ATOM     33  C   UNL     1       6.243   5.234  19.225  0.00  0.00    +0.000 A 
ATOM     34  C   UNL     1       6.950   5.616  18.084  0.00  0.00    +0.000 A 
ATOM     35  C   UNL     1       6.273   6.174  17.001  0.00  0.00    +0.000 A 
ATOM     36  C   UNL     1       4.889   6.350  17.058  0.00  0.00    +0.000 A 
ENDBRANCH  30  31
ENDBRANCH  27  30
ENDBRANCH   3  24
TORSDOF 5
ENDMDL
MODEL 9
REMARK VINA RESULT:      -8.4      1.157      1.546
REMARK  Name = 
REMARK  6 active torsions:
REMARK  status: ('A' for Active; 'I' for Inactive)
REMARK    1  A    between atoms: C_1  and  N_2
REMARK    2  A    between atoms: C_3  and  C_5
REMARK    3  A    between atoms: C_8  and  C_9
REMARK    4  A    between atoms: C_11  and  C_12
REMARK    5  A    between atoms: C_15  and  O_16
REMARK    6  A    between atoms: O_16  and  C_17
REMARK                            x       y       z     vdW  Elec       q    Type
REMARK                         _______ _______ _______ _____ _____    ______ ____
ROOT
ATOM      1  C   UNL     1      -1.274  11.851  20.522  0.00  0.00    +0.000 A 
ATOM      2  N   UNL     1      -0.896  10.605  20.294  0.00  0.00    +0.000 NA
ATOM      3  C   UNL     1       0.276  10.679  19.573  0.00  0.00    +0.000 A 
ATOM      4  C   UNL     1       0.572  11.996  19.269  0.00  0.00    +0.000 A 
ATOM      5  C   UNL     1       1.608  12.703  18.537  0.00  0.00    +0.000 A 
ATOM      6  N   UNL     1       2.639  12.124  17.856  0.00  0.00    +0.000 N 
ATOM      7  N   UNL     1       1.607  14.017  18.484  0.00  0.00    +0.000 NA
ATOM      8  C   UNL     1       0.595  14.706  19.117  0.00  0.00    +0.000 A 
ATOM      9  C   UNL     1      -0.395  14.120  19.798  0.00  0.00    +0.000 A 
ATOM     10  N   UNL     1      -0.420  12.737  19.887  0.00  0.00    +0.000 N 
ATOM     11  H   UNL     1       2.421  11.263  17.374  0.00  0.00    +0.000 HD
ATOM     12  H   UNL     1       3.137  12.794  17.282  0.00  0.00    +0.000 HD
ENDROOT
BRANCH   1  16
ATOM     13  C   UNL     1      -4.140  14.399  22.602  0.00  0.00    +0.000 C 
ATOM     14  C   UNL     1      -3.101  13.645  23.445  0.00  0.00    +0.000 C 
ATOM     15  C   UNL     1      -1.945  13.119  22.587  0.00  0.00    +0.000 C 
ATOM     16  C   UNL     1      -2.426  12.242  21.418  0.00  0.00    +0.000 C 
ATOM     17  C   UNL     1      -3.490  12.993  20.597  0.00  0.00    +0.000 C 
ATOM     18  C   UNL     1      -4.640  13.498  21.465  0.00  0.00    +0.000 C 
BRANCH  13  21
ATOM     19  C   UNL     1      -7.621  14.442  24.142  0.00  0.00    +0.000 C 
ATOM     20  N   UNL     1      -6.449  14.124  23.363  0.00  0.00    +0.000 N 
ATOM     21  C   UNL     1      -5.311  14.895  23.457  0.00  0.00    +0.000 C 
ATOM     22  O   UNL     1      -5.243  15.885  24.178  0.00  0.00    +0.000 OA
ATOM     23  H   UNL     1      -6.438  13.269  22.823  0.00  0.00    +0.000 HD
ENDBRANCH  13  21
ENDBRANCH   1  16
BRANCH   3  24
ATOM     24  C   UNL     1       1.038   9.489  19.232  0.00  0.00    +0.000 A 
ATOM     25  C   UNL     1       1.426   9.238  17.909  0.00  0.00    +0.000 A 
ATOM     26  C   UNL     1       2.221   8.125  17.601  0.00  0.00    +0.000 A 
ATOM     27  C   UNL     1       2.655   7.268  18.615  0.00  0.00    +0.000 A 
ATOM     28  C   UNL     1       2.187   7.456  19.913  0.00  0.00    +0.000 A 
ATOM     29  C   UNL     1       1.367   8.543  20.209  0.00  0.00    +0.000 A 
BRANCH  27  30
ATOM     30  O   UNL     1       3.481   6.230  18.245  0.00  0.00    +0.000 OA
BRANCH  30  31
ATOM     31  C   UNL     1       3.077   4.930  18.468  0.00  0.00    +0.000 A 
ATOM     32  C   UNL     1       3.875   4.173  19.330  0.00  0.00    +0.000 A 
ATOM     33  C   UNL     1       3.534   2.851  19.622  0.00  0.00    +0.000 A 
ATOM     34  C   UNL     1       2.395   2.280  19.054  0.00  0.00    +0.000 A 
ATOM     35  C   UNL     1       1.583   3.039  18.213  0.00  0.00    +0.000 A 
ATOM     36  C   UNL     1       1.909   4.369  17.941  0.00  0.00    +0.000 A 
ENDBRANCH  30  31
ENDBRANCH  27  30
ENDBRANCH   3  24
TORSDOF 5
ENDMDL
