MODEL 1
REMARK VINA RESULT:      -7.7      0.000      0.000
REMARK  Name = 
REMARK  13 active torsions:
REMARK  status: ('A' for Active; 'I' for Inactive)
REMARK    1  A    between atoms: C_1  and  C_2
REMARK    2  A    between atoms: C_2  and  O_3
REMARK    3  A    between atoms: O_3  and  C_4
REMARK    4  A    between atoms: C_7  and  C_8
REMARK    5  A    between atoms: C_8  and  C_9
REMARK    6  A    between atoms: C_9  and  O_11
REMARK    7  A    between atoms: C_13  and  C_14
REMARK    8  A    between atoms: C_23  and  O_25
REMARK    9  A    between atoms: O_25  and  C_26
REMARK   10  A    between atoms: C_26  and  C_27
REMARK   11  A    between atoms: C_27  and  C_28
REMARK   12  A    between atoms: C_27  and  C_29
REMARK   13  A    between atoms: C_29  and  C_30
REMARK                            x       y       z     vdW  Elec       q    Type
REMARK                         _______ _______ _______ _____ _____    ______ ____
ROOT
ATOM      1  C   UNL     1       3.915   3.879  17.304  0.00  0.00    +0.000 A 
ATOM      2  C   UNL     1       3.964   2.457  17.307  0.00  0.00    +0.000 A 
ATOM      3  C   UNL     1       3.061   1.663  18.023  0.00  0.00    +0.000 A 
ATOM      4  C   UNL     1       2.209   2.278  18.912  0.00  0.00    +0.000 A 
ATOM      5  F   UNL     1       1.484   1.542  19.759  0.00  0.00    +0.000 F 
ATOM      6  C   UNL     1       2.163   3.667  18.964  0.00  0.00    +0.000 A 
ATOM      7  C   UNL     1       2.819   4.452  17.987  0.00  0.00    +0.000 A 
ATOM      8  C   UNL     1       2.269   5.871  17.850  0.00  0.00    +0.000 C 
ATOM      9  N   UNL     1       2.261   6.584  19.129  0.00  0.00    +0.000 N 
ATOM     10  C   UNL     1       2.010   7.938  19.288  0.00  0.00    +0.000 C 
ATOM     11  O   UNL     1       1.910   8.471  20.381  0.00  0.00    +0.000 OA
ATOM     12  C   UNL     1       2.369   5.743  20.324  0.00  0.00    +0.000 C 
ATOM     13  C   UNL     1       1.630   4.394  20.180  0.00  0.00    +0.000 C 
ENDROOT
BRANCH   1  19
ATOM     14  C   UNL     1       5.619   4.697  15.515  0.00  0.00    +0.000 A 
ATOM     15  C   UNL     1       6.805   5.400  15.223  0.00  0.00    +0.000 A 
ATOM     16  C   UNL     1       7.533   6.053  16.213  0.00  0.00    +0.000 A 
ATOM     17  C   UNL     1       7.100   6.019  17.531  0.00  0.00    +0.000 A 
ATOM     18  C   UNL     1       5.906   5.334  17.822  0.00  0.00    +0.000 A 
ATOM     19  C   UNL     1       5.109   4.676  16.842  0.00  0.00    +0.000 A 
BRANCH  14  20
ATOM     20  O   UNL     1       4.942   4.016  14.528  0.00  0.00    +0.000 OA
BRANCH  20  22
ATOM     21  C   UNL     1       4.838   3.528  12.165  0.00  0.00    +0.000 C 
ATOM     22  C   UNL     1       5.709   3.567  13.411  0.00  0.00    +0.000 C 
ENDBRANCH  20  22
ENDBRANCH  14  20
BRANCH  17  23
ATOM     23  C   UNL     1       7.853   6.769  18.609  0.00  0.00    +0.000 C 
BRANCH  23  24
ATOM     24  C   UNL     1       8.166   8.226  18.320  0.00  0.00    +0.000 C 
ATOM     25  O   UNL     1       7.603   8.858  17.441  0.00  0.00    +0.000 OA
BRANCH  24  26
ATOM     26  O   UNL     1       9.067   8.800  19.139  0.00  0.00    +0.000 OA
ATOM     27  H   UNL     1       8.730   9.588  19.606  0.00  0.00    +0.000 HD
ENDBRANCH  24  26
ENDBRANCH  23  24
ENDBRANCH  17  23
ENDBRANCH   1  19
BRANCH  10  28
ATOM     28  O   UNL     1       1.848   8.636  18.118  0.00  0.00    +0.000 OA
BRANCH  28  29
ATOM     29  C   UNL     1       1.485  10.040  18.266  0.00  0.00    +0.000 C 
BRANCH  29  30
ATOM     30  C   UNL     1      -0.011  10.305  18.563  0.00  0.00    +0.000 C 
ATOM     31  C   UNL     1      -0.266  11.795  18.817  0.00  0.00    +0.000 C 
BRANCH  30  32
ATOM     32  C   UNL     1      -0.953   9.848  17.421  0.00  0.00    +0.000 C 
ATOM     33  C   UNL     1      -2.442   9.970  17.710  0.00  0.00    +0.000 C 
ENDBRANCH  30  32
ENDBRANCH  29  30
ENDBRANCH  28  29
ENDBRANCH  10  28
TORSDOF 10
ENDMDL
MODEL 2
REMARK VINA RESULT:      -7.6      1.408      3.658
REMARK  Name = 
REMARK  13 active torsions:
REMARK  status: ('A' for Active; 'I' for Inactive)
REMARK    1  A    between atoms: C_1  and  C_2
REMARK    2  A    between atoms: C_2  and  O_3
REMARK    3  A    between atoms: O_3  and  C_4
REMARK    4  A    between atoms: C_7  and  C_8
REMARK    5  A    between atoms: C_8  and  C_9
REMARK    6  A    between atoms: C_9  and  O_11
REMARK    7  A    between atoms: C_13  and  C_14
REMARK    8  A    between atoms: C_23  and  O_25
REMARK    9  A    between atoms: O_25  and  C_26
REMARK   10  A    between atoms: C_26  and  C_27
REMARK   11  A    between atoms: C_27  and  C_28
REMARK   12  A    between atoms: C_27  and  C_29
REMARK   13  A    between atoms: C_29  and  C_30
REMARK                            x       y       z     vdW  Elec       q    Type
REMARK                         _______ _______ _______ _____ _____    ______ ____
ROOT
ATOM      1  C   UNL     1       3.809   3.572  17.283  0.00  0.00    +0.000 A 
ATOM      2  C   UNL     1       3.848   2.161  17.448  0.00  0.00    +0.000 A 
ATOM      3  C   UNL     1       3.006   1.471  18.327  0.00  0.00    +0.000 A 
ATOM      4  C   UNL     1       2.239   2.199  19.207  0.00  0.00    +0.000 A 
ATOM      5  F   UNL     1       1.585   1.579  20.194  0.00  0.00    +0.000 F 
ATOM      6  C   UNL     1       2.207   3.585  19.101  0.00  0.00    +0.000 A 
ATOM      7  C   UNL     1       2.782   4.240  17.986  0.00  0.00    +0.000 A 
ATOM      8  C   UNL     1       2.232   5.642  17.730  0.00  0.00    +0.000 C 
ATOM      9  N   UNL     1       2.339   6.500  18.913  0.00  0.00    +0.000 N 
ATOM     10  C   UNL     1       2.113   7.866  18.933  0.00  0.00    +0.000 C 
ATOM     11  O   UNL     1       2.112   8.525  19.960  0.00  0.00    +0.000 OA
ATOM     12  C   UNL     1       2.545   5.801  20.185  0.00  0.00    +0.000 C 
ATOM     13  C   UNL     1       1.787   4.457  20.264  0.00  0.00    +0.000 C 
ENDROOT
BRANCH   1  19
ATOM     14  C   UNL     1       5.696   5.365  17.206  0.00  0.00    +0.000 A 
ATOM     15  C   UNL     1       6.690   6.026  16.458  0.00  0.00    +0.000 A 
ATOM     16  C   UNL     1       6.959   5.688  15.136  0.00  0.00    +0.000 A 
ATOM     17  C   UNL     1       6.238   4.678  14.515  0.00  0.00    +0.000 A 
ATOM     18  C   UNL     1       5.257   4.003  15.266  0.00  0.00    +0.000 A 
ATOM     19  C   UNL     1       4.965   4.290  16.630  0.00  0.00    +0.000 A 
BRANCH  14  20
ATOM     20  O   UNL     1       5.412   5.750  18.497  0.00  0.00    +0.000 OA
BRANCH  20  22
ATOM     21  C   UNL     1       7.611   5.688  19.493  0.00  0.00    +0.000 C 
ATOM     22  C   UNL     1       6.189   5.150  19.534  0.00  0.00    +0.000 C 
ENDBRANCH  20  22
ENDBRANCH  14  20
BRANCH  17  23
ATOM     23  C   UNL     1       6.556   4.263  13.094  0.00  0.00    +0.000 C 
BRANCH  23  24
ATOM     24  C   UNL     1       5.575   3.309  12.437  0.00  0.00    +0.000 C 
ATOM     25  O   UNL     1       4.439   3.638  12.136  0.00  0.00    +0.000 OA
BRANCH  24  26
ATOM     26  O   UNL     1       6.058   2.087  12.148  0.00  0.00    +0.000 OA
ATOM     27  H   UNL     1       5.752   1.387  12.755  0.00  0.00    +0.000 HD
ENDBRANCH  24  26
ENDBRANCH  23  24
ENDBRANCH  17  23
ENDBRANCH   1  19
BRANCH  10  28
ATOM     28  O   UNL     1       1.855   8.427  17.708  0.00  0.00    +0.000 OA
BRANCH  28  29
ATOM     29  C   UNL     1       1.252   9.753  17.735  0.00  0.00    +0.000 C 
BRANCH  29  30
ATOM     30  C   UNL     1      -0.179   9.814  18.323  0.00  0.00    +0.000 C 
ATOM     31  C   UNL     1      -0.339  11.018  19.258  0.00  0.00    +0.000 C 
BRANCH  30  32
ATOM     32  C   UNL     1      -1.283   9.902  17.240  0.00  0.00    +0.000 C 
ATOM     33  C   UNL     1      -2.710   9.982  17.762  0.00  0.00    +0.000 C 
ENDBRANCH  30  32
ENDBRANCH  29  30
ENDBRANCH  28  29
ENDBRANCH  10  28
TORSDOF 10
ENDMDL
MODEL 3
REMARK VINA RESULT:      -7.2      1.350      1.440
REMARK  Name = 
REMARK  13 active torsions:
REMARK  status: ('A' for Active; 'I' for Inactive)
REMARK    1  A    between atoms: C_1  and  C_2
REMARK    2  A    between atoms: C_2  and  O_3
REMARK    3  A    between atoms: O_3  and  C_4
REMARK    4  A    between atoms: C_7  and  C_8
REMARK    5  A    between atoms: C_8  and  C_9
REMARK    6  A    between atoms: C_9  and  O_11
REMARK    7  A    between atoms: C_13  and  C_14
REMARK    8  A    between atoms: C_23  and  O_25
REMARK    9  A    between atoms: O_25  and  C_26
REMARK   10  A    between atoms: C_26  and  C_27
REMARK   11  A    between atoms: C_27  and  C_28
REMARK   12  A    between atoms: C_27  and  C_29
REMARK   13  A    between atoms: C_29  and  C_30
REMARK                            x       y       z     vdW  Elec       q    Type
REMARK                         _______ _______ _______ _____ _____    ______ ____
ROOT
ATOM      1  C   UNL     1       3.599   4.027  17.296  0.00  0.00    +0.000 A 
ATOM      2  C   UNL     1       3.476   2.618  17.144  0.00  0.00    +0.000 A 
ATOM      3  C   UNL     1       2.426   1.879  17.701  0.00  0.00    +0.000 A 
ATOM      4  C   UNL     1       1.582   2.505  18.588  0.00  0.00    +0.000 A 
ATOM      5  F   UNL     1       0.703   1.787  19.294  0.00  0.00    +0.000 F 
ATOM      6  C   UNL     1       1.698   3.876  18.790  0.00  0.00    +0.000 A 
ATOM      7  C   UNL     1       2.526   4.665  17.957  0.00  0.00    +0.000 A 
ATOM      8  C   UNL     1       2.164   6.149  17.937  0.00  0.00    +0.000 C 
ATOM      9  N   UNL     1       2.131   6.725  19.283  0.00  0.00    +0.000 N 
ATOM     10  C   UNL     1       2.032   8.076  19.573  0.00  0.00    +0.000 C 
ATOM     11  O   UNL     1       1.904   8.505  20.708  0.00  0.00    +0.000 OA
ATOM     12  C   UNL     1       2.035   5.761  20.383  0.00  0.00    +0.000 C 
ATOM     13  C   UNL     1       1.154   4.539  20.037  0.00  0.00    +0.000 C 
ENDROOT
BRANCH   1  19
ATOM     14  C   UNL     1       5.551   4.771  15.741  0.00  0.00    +0.000 A 
ATOM     15  C   UNL     1       6.831   5.345  15.618  0.00  0.00    +0.000 A 
ATOM     16  C   UNL     1       7.530   5.823  16.722  0.00  0.00    +0.000 A 
ATOM     17  C   UNL     1       6.971   5.737  17.990  0.00  0.00    +0.000 A 
ATOM     18  C   UNL     1       5.685   5.181  18.113  0.00  0.00    +0.000 A 
ATOM     19  C   UNL     1       4.916   4.707  17.012  0.00  0.00    +0.000 A 
BRANCH  14  20
ATOM     20  O   UNL     1       4.898   4.260  14.642  0.00  0.00    +0.000 OA
BRANCH  20  22
ATOM     21  C   UNL     1       4.814   3.464  12.363  0.00  0.00    +0.000 C 
ATOM     22  C   UNL     1       5.692   3.999  13.485  0.00  0.00    +0.000 C 
ENDBRANCH  20  22
ENDBRANCH  14  20
BRANCH  17  23
ATOM     23  C   UNL     1       7.698   6.301  19.192  0.00  0.00    +0.000 C 
BRANCH  23  24
ATOM     24  C   UNL     1       8.473   5.305  20.036  0.00  0.00    +0.000 C 
ATOM     25  O   UNL     1       9.341   4.584  19.572  0.00  0.00    +0.000 OA
BRANCH  24  26
ATOM     26  O   UNL     1       8.185   5.310  21.351  0.00  0.00    +0.000 OA
ATOM     27  H   UNL     1       7.229   5.284  21.547  0.00  0.00    +0.000 HD
ENDBRANCH  24  26
ENDBRANCH  23  24
ENDBRANCH  17  23
ENDBRANCH   1  19
BRANCH  10  28
ATOM     28  O   UNL     1       2.056   8.904  18.479  0.00  0.00    +0.000 OA
BRANCH  28  29
ATOM     29  C   UNL     1       0.757   9.368  18.010  0.00  0.00    +0.000 C 
BRANCH  29  30
ATOM     30  C   UNL     1       0.122  10.504  18.850  0.00  0.00    +0.000 C 
ATOM     31  C   UNL     1       0.992  11.767  18.814  0.00  0.00    +0.000 C 
BRANCH  30  32
ATOM     32  C   UNL     1      -1.301  10.893  18.378  0.00  0.00    +0.000 C 
ATOM     33  C   UNL     1      -1.899  10.008  17.294  0.00  0.00    +0.000 C 
ENDBRANCH  30  32
ENDBRANCH  29  30
ENDBRANCH  28  29
ENDBRANCH  10  28
TORSDOF 10
ENDMDL
MODEL 4
REMARK VINA RESULT:      -7.1      1.325      1.690
REMARK  Name = 
REMARK  13 active torsions:
REMARK  status: ('A' for Active; 'I' for Inactive)
REMARK    1  A    between atoms: C_1  and  C_2
REMARK    2  A    between atoms: C_2  and  O_3
REMARK    3  A    between atoms: O_3  and  C_4
REMARK    4  A    between atoms: C_7  and  C_8
REMARK    5  A    between atoms: C_8  and  C_9
REMARK    6  A    between atoms: C_9  and  O_11
REMARK    7  A    between atoms: C_13  and  C_14
REMARK    8  A    between atoms: C_23  and  O_25
REMARK    9  A    between atoms: O_25  and  C_26
REMARK   10  A    between atoms: C_26  and  C_27
REMARK   11  A    between atoms: C_27  and  C_28
REMARK   12  A    between atoms: C_27  and  C_29
REMARK   13  A    between atoms: C_29  and  C_30
REMARK                            x       y       z     vdW  Elec       q    Type
REMARK                         _______ _______ _______ _____ _____    ______ ____
ROOT
ATOM      1  C   UNL     1       3.643   3.960  17.239  0.00  0.00    +0.000 A 
ATOM      2  C   UNL     1       3.592   2.548  17.077  0.00  0.00    +0.000 A 
ATOM      3  C   UNL     1       2.600   1.748  17.657  0.00  0.00    +0.000 A 
ATOM      4  C   UNL     1       1.750   2.321  18.574  0.00  0.00    +0.000 A 
ATOM      5  F   UNL     1       0.932   1.550  19.298  0.00  0.00    +0.000 F 
ATOM      6  C   UNL     1       1.798   3.694  18.786  0.00  0.00    +0.000 A 
ATOM      7  C   UNL     1       2.557   4.533  17.937  0.00  0.00    +0.000 A 
ATOM      8  C   UNL     1       2.116   5.996  17.942  0.00  0.00    +0.000 C 
ATOM      9  N   UNL     1       2.092   6.559  19.294  0.00  0.00    +0.000 N 
ATOM     10  C   UNL     1       1.929   7.900  19.599  0.00  0.00    +0.000 C 
ATOM     11  O   UNL     1       1.810   8.312  20.742  0.00  0.00    +0.000 OA
ATOM     12  C   UNL     1       2.079   5.581  20.387  0.00  0.00    +0.000 C 
ATOM     13  C   UNL     1       1.256   4.317  20.055  0.00  0.00    +0.000 C 
ENDROOT
BRANCH   1  19
ATOM     14  C   UNL     1       5.484   4.855  15.630  0.00  0.00    +0.000 A 
ATOM     15  C   UNL     1       6.729   5.494  15.472  0.00  0.00    +0.000 A 
ATOM     16  C   UNL     1       7.457   5.962  16.562  0.00  0.00    +0.000 A 
ATOM     17  C   UNL     1       6.963   5.801  17.849  0.00  0.00    +0.000 A 
ATOM     18  C   UNL     1       5.710   5.180  18.008  0.00  0.00    +0.000 A 
ATOM     19  C   UNL     1       4.913   4.712  16.924  0.00  0.00    +0.000 A 
BRANCH  14  20
ATOM     20  O   UNL     1       4.804   4.357  14.541  0.00  0.00    +0.000 OA
BRANCH  20  22
ATOM     21  C   UNL     1       4.707   3.501  12.285  0.00  0.00    +0.000 C 
ATOM     22  C   UNL     1       5.593   3.820  13.480  0.00  0.00    +0.000 C 
ENDBRANCH  20  22
ENDBRANCH  14  20
BRANCH  17  23
ATOM     23  C   UNL     1       7.718   6.351  19.040  0.00  0.00    +0.000 C 
BRANCH  23  24
ATOM     24  C   UNL     1       8.431   5.334  19.913  0.00  0.00    +0.000 C 
ATOM     25  O   UNL     1       9.267   4.561  19.473  0.00  0.00    +0.000 OA
BRANCH  24  26
ATOM     26  O   UNL     1       8.127   5.378  21.223  0.00  0.00    +0.000 OA
ATOM     27  H   UNL     1       8.853   5.707  21.786  0.00  0.00    +0.000 HD
ENDBRANCH  24  26
ENDBRANCH  23  24
ENDBRANCH  17  23
ENDBRANCH   1  19
BRANCH  10  28
ATOM     28  O   UNL     1       1.876   8.736  18.514  0.00  0.00    +0.000 OA
BRANCH  28  29
ATOM     29  C   UNL     1       1.686  10.150  18.815  0.00  0.00    +0.000 C 
BRANCH  29  30
ATOM     30  C   UNL     1       0.235  10.666  18.661  0.00  0.00    +0.000 C 
ATOM     31  C   UNL     1      -0.573   9.766  17.718  0.00  0.00    +0.000 C 
BRANCH  30  32
ATOM     32  C   UNL     1      -0.530  10.754  20.005  0.00  0.00    +0.000 C 
ATOM     33  C   UNL     1       0.139  11.588  21.088  0.00  0.00    +0.000 C 
ENDBRANCH  30  32
ENDBRANCH  29  30
ENDBRANCH  28  29
ENDBRANCH  10  28
TORSDOF 10
ENDMDL
MODEL 5
REMARK VINA RESULT:      -6.9      1.883      3.594
REMARK  Name = 
REMARK  13 active torsions:
REMARK  status: ('A' for Active; 'I' for Inactive)
REMARK    1  A    between atoms: C_1  and  C_2
REMARK    2  A    between atoms: C_2  and  O_3
REMARK    3  A    between atoms: O_3  and  C_4
REMARK    4  A    between atoms: C_7  and  C_8
REMARK    5  A    between atoms: C_8  and  C_9
REMARK    6  A    between atoms: C_9  and  O_11
REMARK    7  A    between atoms: C_13  and  C_14
REMARK    8  A    between atoms: C_23  and  O_25
REMARK    9  A    between atoms: O_25  and  C_26
REMARK   10  A    between atoms: C_26  and  C_27
REMARK   11  A    between atoms: C_27  and  C_28
REMARK   12  A    between atoms: C_27  and  C_29
REMARK   13  A    between atoms: C_29  and  C_30
REMARK                            x       y       z     vdW  Elec       q    Type
REMARK                         _______ _______ _______ _____ _____    ______ ____
ROOT
ATOM      1  C   UNL     1       3.181   3.436  17.535  0.00  0.00    +0.000 A 
ATOM      2  C   UNL     1       2.818   2.063  17.466  0.00  0.00    +0.000 A 
ATOM      3  C   UNL     1       1.642   1.555  18.030  0.00  0.00    +0.000 A 
ATOM      4  C   UNL     1       0.898   2.376  18.846  0.00  0.00    +0.000 A 
ATOM      5  F   UNL     1      -0.110   1.869  19.563  0.00  0.00    +0.000 F 
ATOM      6  C   UNL     1       1.247   3.716  18.967  0.00  0.00    +0.000 A 
ATOM      7  C   UNL     1       2.220   4.293  18.117  0.00  0.00    +0.000 A 
ATOM      8  C   UNL     1       2.123   5.812  17.993  0.00  0.00    +0.000 C 
ATOM      9  N   UNL     1       2.159   6.474  19.299  0.00  0.00    +0.000 N 
ATOM     10  C   UNL     1       2.290   7.839  19.500  0.00  0.00    +0.000 C 
ATOM     11  O   UNL     1       2.211   8.358  20.602  0.00  0.00    +0.000 OA
ATOM     12  C   UNL     1       1.868   5.617  20.452  0.00  0.00    +0.000 C 
ATOM     13  C   UNL     1       0.797   4.545  20.151  0.00  0.00    +0.000 C 
ENDROOT
BRANCH   1  19
ATOM     14  C   UNL     1       5.572   4.180  18.247  0.00  0.00    +0.000 A 
ATOM     15  C   UNL     1       6.840   4.662  17.865  0.00  0.00    +0.000 A 
ATOM     16  C   UNL     1       7.171   4.878  16.531  0.00  0.00    +0.000 A 
ATOM     17  C   UNL     1       6.241   4.624  15.533  0.00  0.00    +0.000 A 
ATOM     18  C   UNL     1       4.980   4.125  15.910  0.00  0.00    +0.000 A 
ATOM     19  C   UNL     1       4.603   3.858  17.258  0.00  0.00    +0.000 A 
BRANCH  14  20
ATOM     20  O   UNL     1       5.249   4.021  19.576  0.00  0.00    +0.000 OA
BRANCH  20  22
ATOM     21  C   UNL     1       3.916   2.539  20.939  0.00  0.00    +0.000 C 
ATOM     22  C   UNL     1       5.148   2.681  20.058  0.00  0.00    +0.000 C 
ENDBRANCH  20  22
ENDBRANCH  14  20
BRANCH  17  23
ATOM     23  C   UNL     1       6.605   4.804  14.075  0.00  0.00    +0.000 C 
BRANCH  23  24
ATOM     24  C   UNL     1       6.007   3.801  13.104  0.00  0.00    +0.000 C 
ATOM     25  O   UNL     1       4.848   3.862  12.727  0.00  0.00    +0.000 OA
BRANCH  24  26
ATOM     26  O   UNL     1       6.857   2.870  12.633  0.00  0.00    +0.000 OA
ATOM     27  H   UNL     1       7.504   2.557  13.293  0.00  0.00    +0.000 HD
ENDBRANCH  24  26
ENDBRANCH  23  24
ENDBRANCH  17  23
ENDBRANCH   1  19
BRANCH  10  28
ATOM     28  O   UNL     1       2.485   8.574  18.360  0.00  0.00    +0.000 OA
BRANCH  28  29
ATOM     29  C   UNL     1       1.332   9.335  17.894  0.00  0.00    +0.000 C 
BRANCH  29  30
ATOM     30  C   UNL     1       0.707  10.288  18.941  0.00  0.00    +0.000 C 
ATOM     31  C   UNL     1       1.068  11.748  18.641  0.00  0.00    +0.000 C 
BRANCH  30  32
ATOM     32  C   UNL     1      -0.837  10.187  19.018  0.00  0.00    +0.000 C 
ATOM     33  C   UNL     1      -1.575  10.391  17.703  0.00  0.00    +0.000 C 
ENDBRANCH  30  32
ENDBRANCH  29  30
ENDBRANCH  28  29
ENDBRANCH  10  28
TORSDOF 10
ENDMDL
MODEL 6
REMARK VINA RESULT:      -6.8      5.283      7.699
REMARK  Name = 
REMARK  13 active torsions:
REMARK  status: ('A' for Active; 'I' for Inactive)
REMARK    1  A    between atoms: C_1  and  C_2
REMARK    2  A    between atoms: C_2  and  O_3
REMARK    3  A    between atoms: O_3  and  C_4
REMARK    4  A    between atoms: C_7  and  C_8
REMARK    5  A    between atoms: C_8  and  C_9
REMARK    6  A    between atoms: C_9  and  O_11
REMARK    7  A    between atoms: C_13  and  C_14
REMARK    8  A    between atoms: C_23  and  O_25
REMARK    9  A    between atoms: O_25  and  C_26
REMARK   10  A    between atoms: C_26  and  C_27
REMARK   11  A    between atoms: C_27  and  C_28
REMARK   12  A    between atoms: C_27  and  C_29
REMARK   13  A    between atoms: C_29  and  C_30
REMARK                            x       y       z     vdW  Elec       q    Type
REMARK                         _______ _______ _______ _____ _____    ______ ____
ROOT
ATOM      1  C   UNL     1       1.188  10.252  18.608  0.00  0.00    +0.000 A 
ATOM      2  C   UNL     1       1.921   9.675  17.535  0.00  0.00    +0.000 A 
ATOM      3  C   UNL     1       2.398   8.359  17.556  0.00  0.00    +0.000 A 
ATOM      4  C   UNL     1       2.320   7.653  18.734  0.00  0.00    +0.000 A 
ATOM      5  F   UNL     1       2.947   6.478  18.850  0.00  0.00    +0.000 F 
ATOM      6  C   UNL     1       1.643   8.202  19.817  0.00  0.00    +0.000 A 
ATOM      7  C   UNL     1       0.865   9.374  19.667  0.00  0.00    +0.000 A 
ATOM      8  C   UNL     1      -0.207   9.557  20.740  0.00  0.00    +0.000 C 
ATOM      9  N   UNL     1       0.354   9.510  22.092  0.00  0.00    +0.000 N 
ATOM     10  C   UNL     1      -0.327   9.839  23.253  0.00  0.00    +0.000 C 
ATOM     11  O   UNL     1       0.146   9.686  24.367  0.00  0.00    +0.000 OA
ATOM     12  C   UNL     1       1.686   8.909  22.204  0.00  0.00    +0.000 C 
ATOM     13  C   UNL     1       1.899   7.728  21.231  0.00  0.00    +0.000 C 
ENDROOT
BRANCH   1  19
ATOM     14  C   UNL     1      -0.203  12.452  18.664  0.00  0.00    +0.000 A 
ATOM     15  C   UNL     1      -0.216  13.861  18.655  0.00  0.00    +0.000 A 
ATOM     16  C   UNL     1       0.960  14.606  18.636  0.00  0.00    +0.000 A 
ATOM     17  C   UNL     1       2.190  13.963  18.622  0.00  0.00    +0.000 A 
ATOM     18  C   UNL     1       2.206  12.557  18.650  0.00  0.00    +0.000 A 
ATOM     19  C   UNL     1       1.033  11.750  18.700  0.00  0.00    +0.000 A 
BRANCH  14  20
ATOM     20  O   UNL     1      -1.378  11.736  18.632  0.00  0.00    +0.000 OA
BRANCH  20  22
ATOM     21  C   UNL     1      -2.063  10.109  16.984  0.00  0.00    +0.000 C 
ATOM     22  C   UNL     1      -2.004  11.582  17.359  0.00  0.00    +0.000 C 
ENDBRANCH  20  22
ENDBRANCH  14  20
BRANCH  17  23
ATOM     23  C   UNL     1       3.477  14.760  18.656  0.00  0.00    +0.000 C 
BRANCH  23  24
ATOM     24  C   UNL     1       3.337  16.251  18.909  0.00  0.00    +0.000 C 
ATOM     25  O   UNL     1       3.259  16.723  20.031  0.00  0.00    +0.000 OA
BRANCH  24  26
ATOM     26  O   UNL     1       3.367  17.031  17.813  0.00  0.00    +0.000 OA
ATOM     27  H   UNL     1       2.626  16.876  17.197  0.00  0.00    +0.000 HD
ENDBRANCH  24  26
ENDBRANCH  23  24
ENDBRANCH  17  23
ENDBRANCH   1  19
BRANCH  10  28
ATOM     28  O   UNL     1      -1.596  10.324  23.059  0.00  0.00    +0.000 OA
BRANCH  28  29
ATOM     29  C   UNL     1      -1.763  11.757  23.272  0.00  0.00    +0.000 C 
BRANCH  29  30
ATOM     30  C   UNL     1      -1.417  12.647  22.053  0.00  0.00    +0.000 C 
ATOM     31  C   UNL     1      -2.625  13.488  21.624  0.00  0.00    +0.000 C 
BRANCH  30  32
ATOM     32  C   UNL     1      -0.235  13.613  22.317  0.00  0.00    +0.000 C 
ATOM     33  C   UNL     1      -0.538  15.091  22.122  0.00  0.00    +0.000 C 
ENDBRANCH  30  32
ENDBRANCH  29  30
ENDBRANCH  28  29
ENDBRANCH  10  28
TORSDOF 10
ENDMDL
MODEL 7
REMARK VINA RESULT:      -6.7      4.086      8.002
REMARK  Name = 
REMARK  13 active torsions:
REMARK  status: ('A' for Active; 'I' for Inactive)
REMARK    1  A    between atoms: C_1  and  C_2
REMARK    2  A    between atoms: C_2  and  O_3
REMARK    3  A    between atoms: O_3  and  C_4
REMARK    4  A    between atoms: C_7  and  C_8
REMARK    5  A    between atoms: C_8  and  C_9
REMARK    6  A    between atoms: C_9  and  O_11
REMARK    7  A    between atoms: C_13  and  C_14
REMARK    8  A    between atoms: C_23  and  O_25
REMARK    9  A    between atoms: O_25  and  C_26
REMARK   10  A    between atoms: C_26  and  C_27
REMARK   11  A    between atoms: C_27  and  C_28
REMARK   12  A    between atoms: C_27  and  C_29
REMARK   13  A    between atoms: C_29  and  C_30
REMARK                            x       y       z     vdW  Elec       q    Type
REMARK                         _______ _______ _______ _____ _____    ______ ____
ROOT
ATOM      1  C   UNL     1      -0.363  10.104  18.209  0.00  0.00    +0.000 A 
ATOM      2  C   UNL     1      -1.524   9.658  17.519  0.00  0.00    +0.000 A 
ATOM      3  C   UNL     1      -2.650  10.465  17.319  0.00  0.00    +0.000 A 
ATOM      4  C   UNL     1      -2.717  11.671  17.977  0.00  0.00    +0.000 A 
ATOM      5  F   UNL     1      -3.858  12.369  17.976  0.00  0.00    +0.000 F 
ATOM      6  C   UNL     1      -1.614  12.122  18.693  0.00  0.00    +0.000 A 
ATOM      7  C   UNL     1      -0.366  11.464  18.591  0.00  0.00    +0.000 A 
ATOM      8  C   UNL     1       0.832  12.330  18.978  0.00  0.00    +0.000 C 
ATOM      9  N   UNL     1       0.687  12.903  20.318  0.00  0.00    +0.000 N 
ATOM     10  C   UNL     1       1.685  13.560  21.019  0.00  0.00    +0.000 C 
ATOM     11  O   UNL     1       1.492  14.113  22.090  0.00  0.00    +0.000 OA
ATOM     12  C   UNL     1      -0.674  12.906  20.862  0.00  0.00    +0.000 C 
ATOM     13  C   UNL     1      -1.752  13.161  19.785  0.00  0.00    +0.000 C 
ENDROOT
BRANCH   1  19
ATOM     14  C   UNL     1       0.781   8.697  20.077  0.00  0.00    +0.000 A 
ATOM     15  C   UNL     1       1.827   7.832  20.454  0.00  0.00    +0.000 A 
ATOM     16  C   UNL     1       2.775   7.385  19.539  0.00  0.00    +0.000 A 
ATOM     17  C   UNL     1       2.711   7.794  18.214  0.00  0.00    +0.000 A 
ATOM     18  C   UNL     1       1.656   8.644  17.831  0.00  0.00    +0.000 A 
ATOM     19  C   UNL     1       0.644   9.104  18.721  0.00  0.00    +0.000 A 
BRANCH  14  20
ATOM     20  O   UNL     1      -0.117   9.166  21.009  0.00  0.00    +0.000 OA
BRANCH  20  22
ATOM     21  C   UNL     1      -0.696  10.080  23.168  0.00  0.00    +0.000 C 
ATOM     22  C   UNL     1       0.399   9.474  22.304  0.00  0.00    +0.000 C 
ENDBRANCH  20  22
ENDBRANCH  14  20
BRANCH  17  23
ATOM     23  C   UNL     1       3.704   7.275  17.197  0.00  0.00    +0.000 C 
BRANCH  23  24
ATOM     24  C   UNL     1       4.378   5.956  17.530  0.00  0.00    +0.000 C 
ATOM     25  O   UNL     1       5.479   5.893  18.051  0.00  0.00    +0.000 OA
BRANCH  24  26
ATOM     26  O   UNL     1       3.654   4.851  17.269  0.00  0.00    +0.000 OA
ATOM     27  H   UNL     1       2.800   4.819  17.739  0.00  0.00    +0.000 HD
ENDBRANCH  24  26
ENDBRANCH  23  24
ENDBRANCH  17  23
ENDBRANCH   1  19
BRANCH  10  28
ATOM     28  O   UNL     1       2.911  13.574  20.403  0.00  0.00    +0.000 OA
BRANCH  28  29
ATOM     29  C   UNL     1       3.304  14.844  19.807  0.00  0.00    +0.000 C 
BRANCH  29  30
ATOM     30  C   UNL     1       4.127  14.731  18.501  0.00  0.00    +0.000 C 
ATOM     31  C   UNL     1       3.519  15.595  17.389  0.00  0.00    +0.000 C 
BRANCH  30  32
ATOM     32  C   UNL     1       5.608  15.151  18.672  0.00  0.00    +0.000 C 
ATOM     33  C   UNL     1       6.592  14.497  17.712  0.00  0.00    +0.000 C 
ENDBRANCH  30  32
ENDBRANCH  29  30
ENDBRANCH  28  29
ENDBRANCH  10  28
TORSDOF 10
ENDMDL
MODEL 8
REMARK VINA RESULT:      -6.7      7.542      9.868
REMARK  Name = 
REMARK  13 active torsions:
REMARK  status: ('A' for Active; 'I' for Inactive)
REMARK    1  A    between atoms: C_1  and  C_2
REMARK    2  A    between atoms: C_2  and  O_3
REMARK    3  A    between atoms: O_3  and  C_4
REMARK    4  A    between atoms: C_7  and  C_8
REMARK    5  A    between atoms: C_8  and  C_9
REMARK    6  A    between atoms: C_9  and  O_11
REMARK    7  A    between atoms: C_13  and  C_14
REMARK    8  A    between atoms: C_23  and  O_25
REMARK    9  A    between atoms: O_25  and  C_26
REMARK   10  A    between atoms: C_26  and  C_27
REMARK   11  A    between atoms: C_27  and  C_28
REMARK   12  A    between atoms: C_27  and  C_29
REMARK   13  A    between atoms: C_29  and  C_30
REMARK                            x       y       z     vdW  Elec       q    Type
REMARK                         _______ _______ _______ _____ _____    ______ ____
ROOT
ATOM      1  C   UNL     1      -3.679  11.963  19.178  0.00  0.00    +0.000 A 
ATOM      2  C   UNL     1      -4.794  11.386  18.511  0.00  0.00    +0.000 A 
ATOM      3  C   UNL     1      -6.121  11.646  18.875  0.00  0.00    +0.000 A 
ATOM      4  C   UNL     1      -6.357  12.338  20.041  0.00  0.00    +0.000 A 
ATOM      5  F   UNL     1      -7.600  12.424  20.525  0.00  0.00    +0.000 F 
ATOM      6  C   UNL     1      -5.287  12.884  20.740  0.00  0.00    +0.000 A 
ATOM      7  C   UNL     1      -3.991  12.917  20.173  0.00  0.00    +0.000 A 
ATOM      8  C   UNL     1      -3.068  13.973  20.779  0.00  0.00    +0.000 C 
ATOM      9  N   UNL     1      -2.964  13.843  22.234  0.00  0.00    +0.000 N 
ATOM     10  C   UNL     1      -2.058  14.520  23.034  0.00  0.00    +0.000 C 
ATOM     11  O   UNL     1      -2.074  14.461  24.253  0.00  0.00    +0.000 OA
ATOM     12  C   UNL     1      -4.018  13.054  22.877  0.00  0.00    +0.000 C 
ATOM     13  C   UNL     1      -5.399  13.236  22.208  0.00  0.00    +0.000 C 
ENDROOT
BRANCH   1  19
ATOM     14  C   UNL     1      -1.769  10.878  17.782  0.00  0.00    +0.000 A 
ATOM     15  C   UNL     1      -0.507  10.250  17.763  0.00  0.00    +0.000 A 
ATOM     16  C   UNL     1       0.231  10.051  18.925  0.00  0.00    +0.000 A 
ATOM     17  C   UNL     1      -0.272  10.470  20.149  0.00  0.00    +0.000 A 
ATOM     18  C   UNL     1      -1.523  11.115  20.169  0.00  0.00    +0.000 A 
ATOM     19  C   UNL     1      -2.303  11.369  19.005  0.00  0.00    +0.000 A 
BRANCH  14  20
ATOM     20  O   UNL     1      -2.503  11.020  16.627  0.00  0.00    +0.000 OA
BRANCH  20  22
ATOM     21  C   UNL     1      -3.336  10.210  14.509  0.00  0.00    +0.000 C 
ATOM     22  C   UNL     1      -2.714   9.842  15.848  0.00  0.00    +0.000 C 
ENDBRANCH  20  22
ENDBRANCH  14  20
BRANCH  17  23
ATOM     23  C   UNL     1       0.543  10.309  21.414  0.00  0.00    +0.000 C 
BRANCH  23  24
ATOM     24  C   UNL     1      -0.040   9.394  22.476  0.00  0.00    +0.000 C 
ATOM     25  O   UNL     1      -0.719   8.418  22.203  0.00  0.00    +0.000 OA
BRANCH  24  26
ATOM     26  O   UNL     1       0.293   9.691  23.746  0.00  0.00    +0.000 OA
ATOM     27  H   UNL     1       1.226   9.506  23.963  0.00  0.00    +0.000 HD
ENDBRANCH  24  26
ENDBRANCH  23  24
ENDBRANCH  17  23
ENDBRANCH   1  19
BRANCH  10  28
ATOM     28  O   UNL     1      -1.152  15.294  22.354  0.00  0.00    +0.000 OA
BRANCH  28  29
ATOM     29  C   UNL     1       0.225  14.817  22.371  0.00  0.00    +0.000 C 
BRANCH  29  30
ATOM     30  C   UNL     1       0.943  14.832  20.999  0.00  0.00    +0.000 C 
ATOM     31  C   UNL     1       1.980  13.706  20.909  0.00  0.00    +0.000 C 
BRANCH  30  32
ATOM     32  C   UNL     1      -0.025  14.684  19.799  0.00  0.00    +0.000 C 
ATOM     33  C   UNL     1       0.491  13.847  18.638  0.00  0.00    +0.000 C 
ENDBRANCH  30  32
ENDBRANCH  29  30
ENDBRANCH  28  29
ENDBRANCH  10  28
TORSDOF 10
ENDMDL
MODEL 9
REMARK VINA RESULT:      -6.7      4.014      8.026
REMARK  Name = 
REMARK  13 active torsions:
REMARK  status: ('A' for Active; 'I' for Inactive)
REMARK    1  A    between atoms: C_1  and  C_2
REMARK    2  A    between atoms: C_2  and  O_3
REMARK    3  A    between atoms: O_3  and  C_4
REMARK    4  A    between atoms: C_7  and  C_8
REMARK    5  A    between atoms: C_8  and  C_9
REMARK    6  A    between atoms: C_9  and  O_11
REMARK    7  A    between atoms: C_13  and  C_14
REMARK    8  A    between atoms: C_23  and  O_25
REMARK    9  A    between atoms: O_25  and  C_26
REMARK   10  A    between atoms: C_26  and  C_27
REMARK   11  A    between atoms: C_27  and  C_28
REMARK   12  A    between atoms: C_27  and  C_29
REMARK   13  A    between atoms: C_29  and  C_30
REMARK                            x       y       z     vdW  Elec       q    Type
REMARK                         _______ _______ _______ _____ _____    ______ ____
ROOT
ATOM      1  C   UNL     1      -0.592  10.184  18.163  0.00  0.00    +0.000 A 
ATOM      2  C   UNL     1      -1.573   9.716  17.246  0.00  0.00    +0.000 A 
ATOM      3  C   UNL     1      -2.731  10.437  16.932  0.00  0.00    +0.000 A 
ATOM      4  C   UNL     1      -3.029  11.554  17.679  0.00  0.00    +0.000 A 
ATOM      5  F   UNL     1      -4.221  12.144  17.548  0.00  0.00    +0.000 F 
ATOM      6  C   UNL     1      -2.110  12.018  18.612  0.00  0.00    +0.000 A 
ATOM      7  C   UNL     1      -0.799  11.488  18.664  0.00  0.00    +0.000 A 
ATOM      8  C   UNL     1       0.224  12.408  19.330  0.00  0.00    +0.000 C 
ATOM      9  N   UNL     1      -0.195  12.815  20.673  0.00  0.00    +0.000 N 
ATOM     10  C   UNL     1       0.603  13.477  21.593  0.00  0.00    +0.000 C 
ATOM     11  O   UNL     1       0.182  13.890  22.661  0.00  0.00    +0.000 OA
ATOM     12  C   UNL     1      -1.618  12.639  20.973  0.00  0.00    +0.000 C 
ATOM     13  C   UNL     1      -2.530  12.914  19.757  0.00  0.00    +0.000 C 
ENDROOT
BRANCH   1  19
ATOM     14  C   UNL     1       0.522   8.874  20.118  0.00  0.00    +0.000 A 
ATOM     15  C   UNL     1       1.573   8.047  20.560  0.00  0.00    +0.000 A 
ATOM     16  C   UNL     1       2.558   7.585  19.692  0.00  0.00    +0.000 A 
ATOM     17  C   UNL     1       2.526   7.942  18.351  0.00  0.00    +0.000 A 
ATOM     18  C   UNL     1       1.467   8.753  17.903  0.00  0.00    +0.000 A 
ATOM     19  C   UNL     1       0.419   9.225  18.744  0.00  0.00    +0.000 A 
BRANCH  14  20
ATOM     20  O   UNL     1      -0.413   9.359  21.004  0.00  0.00    +0.000 OA
BRANCH  20  22
ATOM     21  C   UNL     1      -0.839  10.206  23.225  0.00  0.00    +0.000 C 
ATOM     22  C   UNL     1      -0.172   9.123  22.390  0.00  0.00    +0.000 C 
ENDBRANCH  20  22
ENDBRANCH  14  20
BRANCH  17  23
ATOM     23  C   UNL     1       3.560   7.404  17.385  0.00  0.00    +0.000 C 
BRANCH  23  24
ATOM     24  C   UNL     1       4.070   6.001  17.659  0.00  0.00    +0.000 C 
ATOM     25  O   UNL     1       3.416   5.002  17.406  0.00  0.00    +0.000 OA
BRANCH  24  26
ATOM     26  O   UNL     1       5.322   5.922  18.145  0.00  0.00    +0.000 OA
ATOM     27  H   UNL     1       5.757   5.063  17.981  0.00  0.00    +0.000 HD
ENDBRANCH  24  26
ENDBRANCH  23  24
ENDBRANCH  17  23
ENDBRANCH   1  19
BRANCH  10  28
ATOM     28  O   UNL     1       1.903  13.665  21.199  0.00  0.00    +0.000 OA
BRANCH  28  29
ATOM     29  C   UNL     1       2.284  15.044  20.917  0.00  0.00    +0.000 C 
BRANCH  29  30
ATOM     30  C   UNL     1       1.969  15.533  19.483  0.00  0.00    +0.000 C 
ATOM     31  C   UNL     1       0.805  16.532  19.485  0.00  0.00    +0.000 C 
BRANCH  30  32
ATOM     32  C   UNL     1       3.175  16.211  18.787  0.00  0.00    +0.000 C 
ATOM     33  C   UNL     1       3.561  15.636  17.432  0.00  0.00    +0.000 C 
ENDBRANCH  30  32
ENDBRANCH  29  30
ENDBRANCH  28  29
ENDBRANCH  10  28
TORSDOF 10
ENDMDL
