MODEL 1
REMARK VINA RESULT:      -8.6      0.000      0.000
REMARK  Name = 
REMARK  5 active torsions:
REMARK  status: ('A' for Active; 'I' for Inactive)
REMARK    1  A    between atoms: C_2  and  C_3
REMARK    2  A    between atoms: C_4  and  C_5
REMARK    3  A    between atoms: C_8  and  N_9
REMARK    4  A    between atoms: N_14  and  C_15
REMARK    5  A    between atoms: C_18  and  N_19
REMARK                            x       y       z     vdW  Elec       q    Type
REMARK                         _______ _______ _______ _____ _____    ______ ____
ROOT
ATOM      1  O   UNL     1       8.406   7.170  18.923  0.00  0.00    +0.000 OA
ATOM      2  C   UNL     1       7.948   7.941  18.087  0.00  0.00    +0.000 C 
ATOM      3  N   UNL     1       6.881   7.706  17.242  0.00  0.00    +0.000 N 
ATOM      4  H   UNL     1       6.708   8.366  16.496  0.00  0.00    +0.000 HD
ENDROOT
BRANCH   3   5
ATOM      5  C   UNL     1       5.998   6.604  17.309  0.00  0.00    +0.000 A 
ATOM      6  C   UNL     1       5.305   6.256  18.465  0.00  0.00    +0.000 A 
ATOM      7  C   UNL     1       4.401   5.186  18.464  0.00  0.00    +0.000 A 
ATOM      8  C   UNL     1       4.153   4.422  17.317  0.00  0.00    +0.000 A 
ATOM      9  C   UNL     1       4.875   4.786  16.167  0.00  0.00    +0.000 A 
ATOM     10  F   UNL     1       4.749   4.076  15.033  0.00  0.00    +0.000 F 
ATOM     11  C   UNL     1       5.775   5.858  16.152  0.00  0.00    +0.000 A 
BRANCH   8  12
ATOM     12  N   UNL     1       3.215   3.408  17.361  0.00  0.00    +0.000 N 
ATOM     13  C   UNL     1       3.567   2.010  17.645  0.00  0.00    +0.000 C 
ATOM     14  C   UNL     1       2.948   1.541  18.978  0.00  0.00    +0.000 C 
ATOM     15  N   UNL     1       1.487   1.753  19.041  0.00  0.00    +0.000 NA
ATOM     16  C   UNL     1       1.198   3.181  18.794  0.00  0.00    +0.000 C 
ATOM     17  C   UNL     1       1.777   3.713  17.461  0.00  0.00    +0.000 C 
ATOM     18  H   UNL     1       1.155   1.503  19.970  0.00  0.00    +0.000 HD
ENDBRANCH   8  12
ENDBRANCH   3   5
BRANCH   2  19
ATOM     19  C   UNL     1       8.556   9.282  17.877  0.00  0.00    +0.000 C 
ATOM     20  C   UNL     1       9.188   9.891  18.894  0.00  0.00    +0.000 C 
BRANCH  20  21
ATOM     21  C   UNL     1       9.797  11.224  18.805  0.00  0.00    +0.000 A 
ATOM     22  C   UNL     1       9.287  12.149  17.879  0.00  0.00    +0.000 A 
ATOM     23  C   UNL     1       9.833  13.434  17.779  0.00  0.00    +0.000 A 
ATOM     24  C   UNL     1      10.891  13.800  18.618  0.00  0.00    +0.000 A 
ATOM     25  C   UNL     1      11.397  12.896  19.558  0.00  0.00    +0.000 A 
ATOM     26  C   UNL     1      10.842  11.618  19.651  0.00  0.00    +0.000 A 
BRANCH  24  27
ATOM     27  N   UNL     1      11.476  15.144  18.521  0.00  0.00    +0.000 N 
ATOM     28  O   UNL     1      11.603  15.794  19.569  0.00  0.00    +0.000 OA
ATOM     29  O   UNL     1      11.805  15.550  17.399  0.00  0.00    +0.000 OA
ENDBRANCH  24  27
ENDBRANCH  20  21
ENDBRANCH   2  19
TORSDOF 5
ENDMDL
MODEL 2
REMARK VINA RESULT:      -8.5      1.438      1.671
REMARK  Name = 
REMARK  5 active torsions:
REMARK  status: ('A' for Active; 'I' for Inactive)
REMARK    1  A    between atoms: C_2  and  C_3
REMARK    2  A    between atoms: C_4  and  C_5
REMARK    3  A    between atoms: C_8  and  N_9
REMARK    4  A    between atoms: N_14  and  C_15
REMARK    5  A    between atoms: C_18  and  N_19
REMARK                            x       y       z     vdW  Elec       q    Type
REMARK                         _______ _______ _______ _____ _____    ______ ____
ROOT
ATOM      1  O   UNL     1       8.598   7.791  18.848  0.00  0.00    +0.000 OA
ATOM      2  C   UNL     1       8.006   8.362  17.940  0.00  0.00    +0.000 C 
ATOM      3  N   UNL     1       6.976   7.852  17.174  0.00  0.00    +0.000 N 
ATOM      4  H   UNL     1       6.685   8.372  16.357  0.00  0.00    +0.000 HD
ENDROOT
BRANCH   3   5
ATOM      5  C   UNL     1       6.283   6.643  17.415  0.00  0.00    +0.000 A 
ATOM      6  C   UNL     1       6.928   5.422  17.591  0.00  0.00    +0.000 A 
ATOM      7  C   UNL     1       6.198   4.262  17.879  0.00  0.00    +0.000 A 
ATOM      8  C   UNL     1       4.803   4.271  18.002  0.00  0.00    +0.000 A 
ATOM      9  C   UNL     1       4.176   5.513  17.807  0.00  0.00    +0.000 A 
ATOM     10  F   UNL     1       2.836   5.612  17.846  0.00  0.00    +0.000 F 
ATOM     11  C   UNL     1       4.894   6.682  17.526  0.00  0.00    +0.000 A 
BRANCH   8  12
ATOM     12  N   UNL     1       4.139   3.105  18.335  0.00  0.00    +0.000 N 
ATOM     13  C   UNL     1       4.081   2.589  19.710  0.00  0.00    +0.000 C 
ATOM     14  C   UNL     1       2.636   2.608  20.249  0.00  0.00    +0.000 C 
ATOM     15  N   UNL     1       1.682   1.904  19.366  0.00  0.00    +0.000 NA
ATOM     16  C   UNL     1       1.753   2.495  18.014  0.00  0.00    +0.000 C 
ATOM     17  C   UNL     1       3.176   2.491  17.405  0.00  0.00    +0.000 C 
ATOM     18  H   UNL     1       0.740   2.024  19.733  0.00  0.00    +0.000 HD
ENDBRANCH   8  12
ENDBRANCH   3   5
BRANCH   2  19
ATOM     19  C   UNL     1       8.386   9.743  17.537  0.00  0.00    +0.000 C 
ATOM     20  C   UNL     1       9.273  10.429  18.276  0.00  0.00    +0.000 C 
BRANCH  20  21
ATOM     21  C   UNL     1       9.696  11.805  17.986  0.00  0.00    +0.000 A 
ATOM     22  C   UNL     1       8.778  12.854  18.157  0.00  0.00    +0.000 A 
ATOM     23  C   UNL     1       9.151  14.179  17.906  0.00  0.00    +0.000 A 
ATOM     24  C   UNL     1      10.458  14.459  17.489  0.00  0.00    +0.000 A 
ATOM     25  C   UNL     1      11.389  13.427  17.332  0.00  0.00    +0.000 A 
ATOM     26  C   UNL     1      11.005  12.109  17.589  0.00  0.00    +0.000 A 
BRANCH  24  27
ATOM     27  N   UNL     1      10.863  15.845  17.218  0.00  0.00    +0.000 N 
ATOM     28  O   UNL     1      12.069  16.067  17.039  0.00  0.00    +0.000 OA
ATOM     29  O   UNL     1       9.977  16.709  17.189  0.00  0.00    +0.000 OA
ENDBRANCH  24  27
ENDBRANCH  20  21
ENDBRANCH   2  19
TORSDOF 5
ENDMDL
MODEL 3
REMARK VINA RESULT:      -8.4      1.283      1.575
REMARK  Name = 
REMARK  5 active torsions:
REMARK  status: ('A' for Active; 'I' for Inactive)
REMARK    1  A    between atoms: C_2  and  C_3
REMARK    2  A    between atoms: C_4  and  C_5
REMARK    3  A    between atoms: C_8  and  N_9
REMARK    4  A    between atoms: N_14  and  C_15
REMARK    5  A    between atoms: C_18  and  N_19
REMARK                            x       y       z     vdW  Elec       q    Type
REMARK                         _______ _______ _______ _____ _____    ______ ____
ROOT
ATOM      1  O   UNL     1       8.526   7.513  18.909  0.00  0.00    +0.000 OA
ATOM      2  C   UNL     1       8.022   8.184  18.016  0.00  0.00    +0.000 C 
ATOM      3  N   UNL     1       6.978   7.813  17.191  0.00  0.00    +0.000 N 
ATOM      4  H   UNL     1       6.764   8.401  16.396  0.00  0.00    +0.000 HD
ENDROOT
BRANCH   3   5
ATOM      5  C   UNL     1       6.171   6.661  17.341  0.00  0.00    +0.000 A 
ATOM      6  C   UNL     1       6.676   5.366  17.262  0.00  0.00    +0.000 A 
ATOM      7  C   UNL     1       5.844   4.259  17.469  0.00  0.00    +0.000 A 
ATOM      8  C   UNL     1       4.481   4.396  17.762  0.00  0.00    +0.000 A 
ATOM      9  C   UNL     1       3.994   5.713  17.824  0.00  0.00    +0.000 A 
ATOM     10  F   UNL     1       2.688   5.946  18.041  0.00  0.00    +0.000 F 
ATOM     11  C   UNL     1       4.817   6.829  17.626  0.00  0.00    +0.000 A 
BRANCH   8  12
ATOM     12  N   UNL     1       3.718   3.269  18.006  0.00  0.00    +0.000 N 
ATOM     13  C   UNL     1       3.926   2.406  19.176  0.00  0.00    +0.000 C 
ATOM     14  C   UNL     1       2.705   2.446  20.118  0.00  0.00    +0.000 C 
ATOM     15  N   UNL     1       1.436   2.127  19.431  0.00  0.00    +0.000 NA
ATOM     16  C   UNL     1       1.260   3.054  18.294  0.00  0.00    +0.000 C 
ATOM     17  C   UNL     1       2.444   3.052  17.298  0.00  0.00    +0.000 C 
ATOM     18  H   UNL     1       0.665   2.252  20.084  0.00  0.00    +0.000 HD
ENDBRANCH   8  12
ENDBRANCH   3   5
BRANCH   2  19
ATOM     19  C   UNL     1       8.538   9.544  17.704  0.00  0.00    +0.000 C 
ATOM     20  C   UNL     1       9.095  10.281  18.679  0.00  0.00    +0.000 C 
BRANCH  20  21
ATOM     21  C   UNL     1       9.610  11.643  18.489  0.00  0.00    +0.000 A 
ATOM     22  C   UNL     1      10.583  11.876  17.503  0.00  0.00    +0.000 A 
ATOM     23  C   UNL     1      11.083  13.164  17.283  0.00  0.00    +0.000 A 
ATOM     24  C   UNL     1      10.599  14.231  18.048  0.00  0.00    +0.000 A 
ATOM     25  C   UNL     1       9.617  14.018  19.021  0.00  0.00    +0.000 A 
ATOM     26  C   UNL     1       9.123  12.728  19.229  0.00  0.00    +0.000 A 
BRANCH  24  27
ATOM     27  N   UNL     1      11.118  15.588  17.831  0.00  0.00    +0.000 N 
ATOM     28  O   UNL     1      11.606  15.847  16.721  0.00  0.00    +0.000 OA
ATOM     29  O   UNL     1      11.040  16.392  18.769  0.00  0.00    +0.000 OA
ENDBRANCH  24  27
ENDBRANCH  20  21
ENDBRANCH   2  19
TORSDOF 5
ENDMDL
MODEL 4
REMARK VINA RESULT:      -7.9      7.878     10.356
REMARK  Name = 
REMARK  5 active torsions:
REMARK  status: ('A' for Active; 'I' for Inactive)
REMARK    1  A    between atoms: C_2  and  C_3
REMARK    2  A    between atoms: C_4  and  C_5
REMARK    3  A    between atoms: C_8  and  N_9
REMARK    4  A    between atoms: N_14  and  C_15
REMARK    5  A    between atoms: C_18  and  N_19
REMARK                            x       y       z     vdW  Elec       q    Type
REMARK                         _______ _______ _______ _____ _____    ______ ____
ROOT
ATOM      1  O   UNL     1       1.038   9.666  19.836  0.00  0.00    +0.000 OA
ATOM      2  C   UNL     1       1.067   9.353  18.651  0.00  0.00    +0.000 C 
ATOM      3  N   UNL     1       0.049   9.504  17.730  0.00  0.00    +0.000 N 
ATOM      4  H   UNL     1       0.152   9.062  16.827  0.00  0.00    +0.000 HD
ENDROOT
BRANCH   3   5
ATOM      5  C   UNL     1      -1.155  10.216  17.935  0.00  0.00    +0.000 A 
ATOM      6  C   UNL     1      -2.372   9.823  17.384  0.00  0.00    +0.000 A 
ATOM      7  C   UNL     1      -3.546  10.535  17.660  0.00  0.00    +0.000 A 
ATOM      8  C   UNL     1      -3.555  11.664  18.490  0.00  0.00    +0.000 A 
ATOM      9  C   UNL     1      -2.312  12.046  19.022  0.00  0.00    +0.000 A 
ATOM     10  F   UNL     1      -2.209  13.150  19.782  0.00  0.00    +0.000 F 
ATOM     11  C   UNL     1      -1.132  11.339  18.761  0.00  0.00    +0.000 A 
BRANCH   8  12
ATOM     12  N   UNL     1      -4.752  12.298  18.766  0.00  0.00    +0.000 N 
ATOM     13  C   UNL     1      -5.811  12.470  17.761  0.00  0.00    +0.000 C 
ATOM     14  C   UNL     1      -7.076  11.676  18.147  0.00  0.00    +0.000 C 
ATOM     15  N   UNL     1      -7.563  11.993  19.506  0.00  0.00    +0.000 NA
ATOM     16  C   UNL     1      -6.473  11.759  20.475  0.00  0.00    +0.000 C 
ATOM     17  C   UNL     1      -5.176  12.541  20.156  0.00  0.00    +0.000 C 
ATOM     18  H   UNL     1      -8.344  11.379  19.730  0.00  0.00    +0.000 HD
ENDBRANCH   8  12
ENDBRANCH   3   5
BRANCH   2  19
ATOM     19  C   UNL     1       2.278   8.720  18.063  0.00  0.00    +0.000 C 
ATOM     20  C   UNL     1       2.446   7.391  18.163  0.00  0.00    +0.000 C 
BRANCH  20  21
ATOM     21  C   UNL     1       3.614   6.668  17.644  0.00  0.00    +0.000 A 
ATOM     22  C   UNL     1       3.705   5.280  17.842  0.00  0.00    +0.000 A 
ATOM     23  C   UNL     1       4.796   4.557  17.347  0.00  0.00    +0.000 A 
ATOM     24  C   UNL     1       5.801   5.226  16.639  0.00  0.00    +0.000 A 
ATOM     25  C   UNL     1       5.716   6.604  16.417  0.00  0.00    +0.000 A 
ATOM     26  C   UNL     1       4.620   7.315  16.913  0.00  0.00    +0.000 A 
BRANCH  24  27
ATOM     27  N   UNL     1       6.954   4.481  16.117  0.00  0.00    +0.000 N 
ATOM     28  O   UNL     1       7.927   4.325  16.868  0.00  0.00    +0.000 OA
ATOM     29  O   UNL     1       6.886   4.054  14.956  0.00  0.00    +0.000 OA
ENDBRANCH  24  27
ENDBRANCH  20  21
ENDBRANCH   2  19
TORSDOF 5
ENDMDL
MODEL 5
REMARK VINA RESULT:      -7.8      8.158     10.451
REMARK  Name = 
REMARK  5 active torsions:
REMARK  status: ('A' for Active; 'I' for Inactive)
REMARK    1  A    between atoms: C_2  and  C_3
REMARK    2  A    between atoms: C_4  and  C_5
REMARK    3  A    between atoms: C_8  and  N_9
REMARK    4  A    between atoms: N_14  and  C_15
REMARK    5  A    between atoms: C_18  and  N_19
REMARK                            x       y       z     vdW  Elec       q    Type
REMARK                         _______ _______ _______ _____ _____    ______ ____
ROOT
ATOM      1  O   UNL     1      -0.186   9.440  17.710  0.00  0.00    +0.000 OA
ATOM      2  C   UNL     1       0.902   9.648  18.234  0.00  0.00    +0.000 C 
ATOM      3  N   UNL     1       1.178  10.561  19.234  0.00  0.00    +0.000 N 
ATOM      4  H   UNL     1       2.146  10.739  19.464  0.00  0.00    +0.000 HD
ENDROOT
BRANCH   3   5
ATOM      5  C   UNL     1       0.222  11.297  19.971  0.00  0.00    +0.000 A 
ATOM      6  C   UNL     1      -0.541  12.320  19.414  0.00  0.00    +0.000 A 
ATOM      7  C   UNL     1      -1.511  12.984  20.175  0.00  0.00    +0.000 A 
ATOM      8  C   UNL     1      -1.759  12.660  21.515  0.00  0.00    +0.000 A 
ATOM      9  C   UNL     1      -0.966  11.633  22.055  0.00  0.00    +0.000 A 
ATOM     10  F   UNL     1      -1.088  11.290  23.349  0.00  0.00    +0.000 F 
ATOM     11  C   UNL     1       0.002  10.955  21.304  0.00  0.00    +0.000 A 
BRANCH   8  12
ATOM     12  N   UNL     1      -2.763  13.316  22.203  0.00  0.00    +0.000 N 
ATOM     13  C   UNL     1      -4.009  12.655  22.613  0.00  0.00    +0.000 C 
ATOM     14  C   UNL     1      -4.117  12.580  24.150  0.00  0.00    +0.000 C 
ATOM     15  N   UNL     1      -3.963  13.897  24.803  0.00  0.00    +0.000 NA
ATOM     16  C   UNL     1      -2.676  14.492  24.389  0.00  0.00    +0.000 C 
ATOM     17  C   UNL     1      -2.508  14.612  22.855  0.00  0.00    +0.000 C 
ATOM     18  H   UNL     1      -3.961  13.768  25.813  0.00  0.00    +0.000 HD
ENDBRANCH   8  12
ENDBRANCH   3   5
BRANCH   2  19
ATOM     19  C   UNL     1       2.111   8.901  17.796  0.00  0.00    +0.000 C 
ATOM     20  C   UNL     1       2.450   7.762  18.422  0.00  0.00    +0.000 C 
BRANCH  20  21
ATOM     21  C   UNL     1       3.636   6.962  18.090  0.00  0.00    +0.000 A 
ATOM     22  C   UNL     1       4.444   7.351  17.009  0.00  0.00    +0.000 A 
ATOM     23  C   UNL     1       5.590   6.622  16.674  0.00  0.00    +0.000 A 
ATOM     24  C   UNL     1       5.938   5.499  17.434  0.00  0.00    +0.000 A 
ATOM     25  C   UNL     1       5.154   5.110  18.525  0.00  0.00    +0.000 A 
ATOM     26  C   UNL     1       4.014   5.847  18.851  0.00  0.00    +0.000 A 
BRANCH  24  27
ATOM     27  N   UNL     1       7.137   4.722  17.092  0.00  0.00    +0.000 N 
ATOM     28  O   UNL     1       7.824   4.284  18.026  0.00  0.00    +0.000 OA
ATOM     29  O   UNL     1       7.391   4.552  15.892  0.00  0.00    +0.000 OA
ENDBRANCH  24  27
ENDBRANCH  20  21
ENDBRANCH   2  19
TORSDOF 5
ENDMDL
MODEL 6
REMARK VINA RESULT:      -7.7      8.059     10.598
REMARK  Name = 
REMARK  5 active torsions:
REMARK  status: ('A' for Active; 'I' for Inactive)
REMARK    1  A    between atoms: C_2  and  C_3
REMARK    2  A    between atoms: C_4  and  C_5
REMARK    3  A    between atoms: C_8  and  N_9
REMARK    4  A    between atoms: N_14  and  C_15
REMARK    5  A    between atoms: C_18  and  N_19
REMARK                            x       y       z     vdW  Elec       q    Type
REMARK                         _______ _______ _______ _____ _____    ______ ____
ROOT
ATOM      1  O   UNL     1      -0.239   9.858  17.823  0.00  0.00    +0.000 OA
ATOM      2  C   UNL     1       0.836   9.606  18.354  0.00  0.00    +0.000 C 
ATOM      3  N   UNL     1       1.290  10.078  19.570  0.00  0.00    +0.000 N 
ATOM      4  H   UNL     1       2.258   9.916  19.815  0.00  0.00    +0.000 HD
ENDROOT
BRANCH   3   5
ATOM      5  C   UNL     1       0.525  10.795  20.519  0.00  0.00    +0.000 A 
ATOM      6  C   UNL     1       0.138  12.120  20.336  0.00  0.00    +0.000 A 
ATOM      7  C   UNL     1      -0.664  12.769  21.284  0.00  0.00    +0.000 A 
ATOM      8  C   UNL     1      -1.110  12.128  22.447  0.00  0.00    +0.000 A 
ATOM      9  C   UNL     1      -0.695  10.795  22.612  0.00  0.00    +0.000 A 
ATOM     10  F   UNL     1      -1.022  10.115  23.724  0.00  0.00    +0.000 F 
ATOM     11  C   UNL     1       0.101  10.133  21.669  0.00  0.00    +0.000 A 
BRANCH   8  12
ATOM     12  N   UNL     1      -1.939  12.802  23.323  0.00  0.00    +0.000 N 
ATOM     13  C   UNL     1      -1.653  14.162  23.801  0.00  0.00    +0.000 C 
ATOM     14  C   UNL     1      -2.715  15.161  23.300  0.00  0.00    +0.000 C 
ATOM     15  N   UNL     1      -4.095  14.751  23.632  0.00  0.00    +0.000 NA
ATOM     16  C   UNL     1      -4.339  13.399  23.088  0.00  0.00    +0.000 C 
ATOM     17  C   UNL     1      -3.317  12.340  23.566  0.00  0.00    +0.000 C 
ATOM     18  H   UNL     1      -4.748  15.405  23.203  0.00  0.00    +0.000 HD
ENDBRANCH   8  12
ENDBRANCH   3   5
BRANCH   2  19
ATOM     19  C   UNL     1       1.827   8.724  17.680  0.00  0.00    +0.000 C 
ATOM     20  C   UNL     1       2.434   7.752  18.381  0.00  0.00    +0.000 C 
BRANCH  20  21
ATOM     21  C   UNL     1       3.446   6.846  17.823  0.00  0.00    +0.000 A 
ATOM     22  C   UNL     1       4.485   7.377  17.042  0.00  0.00    +0.000 A 
ATOM     23  C   UNL     1       5.476   6.544  16.508  0.00  0.00    +0.000 A 
ATOM     24  C   UNL     1       5.433   5.170  16.767  0.00  0.00    +0.000 A 
ATOM     25  C   UNL     1       4.415   4.628  17.559  0.00  0.00    +0.000 A 
ATOM     26  C   UNL     1       3.434   5.469  18.088  0.00  0.00    +0.000 A 
BRANCH  24  27
ATOM     27  N   UNL     1       6.464   4.284  16.211  0.00  0.00    +0.000 N 
ATOM     28  O   UNL     1       7.592   4.320  16.723  0.00  0.00    +0.000 OA
ATOM     29  O   UNL     1       6.146   3.555  15.262  0.00  0.00    +0.000 OA
ENDBRANCH  24  27
ENDBRANCH  20  21
ENDBRANCH   2  19
TORSDOF 5
ENDMDL
MODEL 7
REMARK VINA RESULT:      -7.7      7.696     10.335
REMARK  Name = 
REMARK  5 active torsions:
REMARK  status: ('A' for Active; 'I' for Inactive)
REMARK    1  A    between atoms: C_2  and  C_3
REMARK    2  A    between atoms: C_4  and  C_5
REMARK    3  A    between atoms: C_8  and  N_9
REMARK    4  A    between atoms: N_14  and  C_15
REMARK    5  A    between atoms: C_18  and  N_19
REMARK                            x       y       z     vdW  Elec       q    Type
REMARK                         _______ _______ _______ _____ _____    ______ ____
ROOT
ATOM      1  O   UNL     1       1.216   9.719  20.837  0.00  0.00    +0.000 OA
ATOM      2  C   UNL     1       0.622   9.626  19.769  0.00  0.00    +0.000 C 
ATOM      3  N   UNL     1       1.016   8.897  18.664  0.00  0.00    +0.000 N 
ATOM      4  H   UNL     1       0.514   9.033  17.797  0.00  0.00    +0.000 HD
ENDROOT
BRANCH   3   5
ATOM      5  C   UNL     1       2.083   7.970  18.620  0.00  0.00    +0.000 A 
ATOM      6  C   UNL     1       2.269   6.980  19.581  0.00  0.00    +0.000 A 
ATOM      7  C   UNL     1       3.313   6.055  19.462  0.00  0.00    +0.000 A 
ATOM      8  C   UNL     1       4.211   6.078  18.388  0.00  0.00    +0.000 A 
ATOM      9  C   UNL     1       4.009   7.095  17.439  0.00  0.00    +0.000 A 
ATOM     10  F   UNL     1       4.854   7.236  16.403  0.00  0.00    +0.000 F 
ATOM     11  C   UNL     1       2.965   8.022  17.541  0.00  0.00    +0.000 A 
BRANCH   8  12
ATOM     12  N   UNL     1       5.193   5.109  18.297  0.00  0.00    +0.000 N 
ATOM     13  C   UNL     1       5.243   4.127  17.206  0.00  0.00    +0.000 C 
ATOM     14  C   UNL     1       6.499   4.329  16.334  0.00  0.00    +0.000 C 
ATOM     15  N   UNL     1       7.751   4.328  17.119  0.00  0.00    +0.000 NA
ATOM     16  C   UNL     1       7.661   5.364  18.169  0.00  0.00    +0.000 C 
ATOM     17  C   UNL     1       6.429   5.209  19.093  0.00  0.00    +0.000 C 
ATOM     18  H   UNL     1       8.530   4.549  16.501  0.00  0.00    +0.000 HD
ENDBRANCH   8  12
ENDBRANCH   3   5
BRANCH   2  19
ATOM     19  C   UNL     1      -0.652  10.359  19.543  0.00  0.00    +0.000 C 
ATOM     20  C   UNL     1      -1.432  10.027  18.501  0.00  0.00    +0.000 C 
BRANCH  20  21
ATOM     21  C   UNL     1      -2.694  10.702  18.169  0.00  0.00    +0.000 A 
ATOM     22  C   UNL     1      -3.279  11.561  19.113  0.00  0.00    +0.000 A 
ATOM     23  C   UNL     1      -4.472  12.234  18.824  0.00  0.00    +0.000 A 
ATOM     24  C   UNL     1      -5.080  12.053  17.577  0.00  0.00    +0.000 A 
ATOM     25  C   UNL     1      -4.499  11.215  16.619  0.00  0.00    +0.000 A 
ATOM     26  C   UNL     1      -3.306  10.552  16.918  0.00  0.00    +0.000 A 
BRANCH  24  27
ATOM     27  N   UNL     1      -6.334  12.750  17.261  0.00  0.00    +0.000 N 
ATOM     28  O   UNL     1      -7.381  12.302  17.750  0.00  0.00    +0.000 OA
ATOM     29  O   UNL     1      -6.271  13.742  16.522  0.00  0.00    +0.000 OA
ENDBRANCH  24  27
ENDBRANCH  20  21
ENDBRANCH   2  19
TORSDOF 5
ENDMDL
MODEL 8
REMARK VINA RESULT:      -7.7      8.068     10.611
REMARK  Name = 
REMARK  5 active torsions:
REMARK  status: ('A' for Active; 'I' for Inactive)
REMARK    1  A    between atoms: C_2  and  C_3
REMARK    2  A    between atoms: C_4  and  C_5
REMARK    3  A    between atoms: C_8  and  N_9
REMARK    4  A    between atoms: N_14  and  C_15
REMARK    5  A    between atoms: C_18  and  N_19
REMARK                            x       y       z     vdW  Elec       q    Type
REMARK                         _______ _______ _______ _____ _____    ______ ____
ROOT
ATOM      1  O   UNL     1       1.368   7.618  21.023  0.00  0.00    +0.000 OA
ATOM      2  C   UNL     1       1.462   8.301  20.010  0.00  0.00    +0.000 C 
ATOM      3  N   UNL     1       0.793   9.479  19.741  0.00  0.00    +0.000 N 
ATOM      4  H   UNL     1       0.846   9.855  18.804  0.00  0.00    +0.000 HD
ENDROOT
BRANCH   3   5
ATOM      5  C   UNL     1       0.015  10.219  20.660  0.00  0.00    +0.000 A 
ATOM      6  C   UNL     1       0.032   9.982  22.032  0.00  0.00    +0.000 A 
ATOM      7  C   UNL     1      -0.720  10.779  22.905  0.00  0.00    +0.000 A 
ATOM      8  C   UNL     1      -1.517  11.837  22.450  0.00  0.00    +0.000 A 
ATOM      9  C   UNL     1      -1.526  12.046  21.060  0.00  0.00    +0.000 A 
ATOM     10  F   UNL     1      -2.305  12.999  20.522  0.00  0.00    +0.000 F 
ATOM     11  C   UNL     1      -0.774  11.262  20.177  0.00  0.00    +0.000 A 
BRANCH   8  12
ATOM     12  N   UNL     1      -2.199  12.620  23.363  0.00  0.00    +0.000 N 
ATOM     13  C   UNL     1      -1.804  13.999  23.679  0.00  0.00    +0.000 C 
ATOM     14  C   UNL     1      -2.887  15.002  23.232  0.00  0.00    +0.000 C 
ATOM     15  N   UNL     1      -4.225  14.686  23.774  0.00  0.00    +0.000 NA
ATOM     16  C   UNL     1      -4.586  13.307  23.386  0.00  0.00    +0.000 C 
ATOM     17  C   UNL     1      -3.548  12.244  23.821  0.00  0.00    +0.000 C 
ATOM     18  H   UNL     1      -4.904  15.332  23.376  0.00  0.00    +0.000 HD
ENDBRANCH   8  12
ENDBRANCH   3   5
BRANCH   2  19
ATOM     19  C   UNL     1       2.348   7.881  18.891  0.00  0.00    +0.000 C 
ATOM     20  C   UNL     1       2.784   6.612  18.830  0.00  0.00    +0.000 C 
BRANCH  20  21
ATOM     21  C   UNL     1       3.683   6.100  17.789  0.00  0.00    +0.000 A 
ATOM     22  C   UNL     1       4.461   7.006  17.049  0.00  0.00    +0.000 A 
ATOM     23  C   UNL     1       5.340   6.551  16.060  0.00  0.00    +0.000 A 
ATOM     24  C   UNL     1       5.451   5.178  15.815  0.00  0.00    +0.000 A 
ATOM     25  C   UNL     1       4.697   4.262  16.556  0.00  0.00    +0.000 A 
ATOM     26  C   UNL     1       3.825   4.727  17.543  0.00  0.00    +0.000 A 
BRANCH  24  27
ATOM     27  N   UNL     1       6.367   4.686  14.778  0.00  0.00    +0.000 N 
ATOM     28  O   UNL     1       5.968   3.771  14.043  0.00  0.00    +0.000 OA
ATOM     29  O   UNL     1       7.485   5.213  14.700  0.00  0.00    +0.000 OA
ENDBRANCH  24  27
ENDBRANCH  20  21
ENDBRANCH   2  19
TORSDOF 5
ENDMDL
MODEL 9
REMARK VINA RESULT:      -7.6      8.621      9.874
REMARK  Name = 
REMARK  5 active torsions:
REMARK  status: ('A' for Active; 'I' for Inactive)
REMARK    1  A    between atoms: C_2  and  C_3
REMARK    2  A    between atoms: C_4  and  C_5
REMARK    3  A    between atoms: C_8  and  N_9
REMARK    4  A    between atoms: N_14  and  C_15
REMARK    5  A    between atoms: C_18  and  N_19
REMARK                            x       y       z     vdW  Elec       q    Type
REMARK                         _______ _______ _______ _____ _____    ______ ____
ROOT
ATOM      1  O   UNL     1       1.491   9.273  22.551  0.00  0.00    +0.000 OA
ATOM      2  C   UNL     1       0.903   9.796  21.611  0.00  0.00    +0.000 C 
ATOM      3  N   UNL     1       0.965   9.419  20.284  0.00  0.00    +0.000 N 
ATOM      4  H   UNL     1       0.554  10.033  19.593  0.00  0.00    +0.000 HD
ENDROOT
BRANCH   3   5
ATOM      5  C   UNL     1       1.573   8.245  19.783  0.00  0.00    +0.000 A 
ATOM      6  C   UNL     1       2.236   8.197  18.560  0.00  0.00    +0.000 A 
ATOM      7  C   UNL     1       2.866   7.021  18.133  0.00  0.00    +0.000 A 
ATOM      8  C   UNL     1       2.860   5.851  18.902  0.00  0.00    +0.000 A 
ATOM      9  C   UNL     1       2.173   5.923  20.126  0.00  0.00    +0.000 A 
ATOM     10  F   UNL     1       2.062   4.835  20.908  0.00  0.00    +0.000 F 
ATOM     11  C   UNL     1       1.545   7.094  20.569  0.00  0.00    +0.000 A 
BRANCH   8  12
ATOM     12  N   UNL     1       3.540   4.734  18.452  0.00  0.00    +0.000 N 
ATOM     13  C   UNL     1       4.713   4.185  19.146  0.00  0.00    +0.000 C 
ATOM     14  C   UNL     1       4.417   2.778  19.707  0.00  0.00    +0.000 C 
ATOM     15  N   UNL     1       3.909   1.844  18.682  0.00  0.00    +0.000 NA
ATOM     16  C   UNL     1       2.707   2.428  18.052  0.00  0.00    +0.000 C 
ATOM     17  C   UNL     1       2.938   3.836  17.452  0.00  0.00    +0.000 C 
ATOM     18  H   UNL     1       3.656   0.965  19.130  0.00  0.00    +0.000 HD
ENDBRANCH   8  12
ENDBRANCH   3   5
BRANCH   2  19
ATOM     19  C   UNL     1       0.027  10.978  21.827  0.00  0.00    +0.000 C 
ATOM     20  C   UNL     1      -0.760  11.031  22.915  0.00  0.00    +0.000 C 
BRANCH  20  21
ATOM     21  C   UNL     1      -1.682  12.135  23.211  0.00  0.00    +0.000 A 
ATOM     22  C   UNL     1      -3.017  11.844  23.535  0.00  0.00    +0.000 A 
ATOM     23  C   UNL     1      -3.919  12.870  23.838  0.00  0.00    +0.000 A 
ATOM     24  C   UNL     1      -3.480  14.199  23.827  0.00  0.00    +0.000 A 
ATOM     25  C   UNL     1      -2.148  14.503  23.525  0.00  0.00    +0.000 A 
ATOM     26  C   UNL     1      -1.257  13.470  23.227  0.00  0.00    +0.000 A 
BRANCH  24  27
ATOM     27  N   UNL     1      -4.416  15.286  24.140  0.00  0.00    +0.000 N 
ATOM     28  O   UNL     1      -5.604  15.133  23.822  0.00  0.00    +0.000 OA
ATOM     29  O   UNL     1      -3.963  16.293  24.701  0.00  0.00    +0.000 OA
ENDBRANCH  24  27
ENDBRANCH  20  21
ENDBRANCH   2  19
TORSDOF 5
ENDMDL
