MODEL 1
REMARK VINA RESULT:      -9.2      0.000      0.000
REMARK  Name = 
REMARK  11 active torsions:
REMARK  status: ('A' for Active; 'I' for Inactive)
REMARK    1  A    between atoms: C_1  and  C_2
REMARK    2  A    between atoms: C_2  and  O_3
REMARK    3  A    between atoms: O_3  and  C_4
REMARK    4  A    between atoms: C_4  and  C_6
REMARK    5  A    between atoms: C_6  and  O_7
REMARK    6  A    between atoms: C_6  and  C_8
REMARK    7  A    between atoms: C_10  and  C_11
REMARK    8  A    between atoms: C_14  and  S_15
REMARK    9  A    between atoms: S_15  and  C_16
REMARK   10  A    between atoms: N_21  and  C_22
REMARK   11  A    between atoms: C_29  and  C_30
REMARK                            x       y       z     vdW  Elec       q    Type
REMARK                         _______ _______ _______ _____ _____    ______ ____
ROOT
ATOM      1  C   UNL     1       4.754   5.574  16.630  0.00  0.00    +0.000 A 
ATOM      2  C   UNL     1       4.150   6.795  17.018  0.00  0.00    +0.000 A 
ATOM      3  C   UNL     1       3.223   6.553  18.020  0.00  0.00    +0.000 A 
ATOM      4  N   UNL     1       3.197   5.156  18.227  0.00  0.00    +0.000 N 
ATOM      5  C   UNL     1       4.139   4.572  17.373  0.00  0.00    +0.000 A 
ATOM      6  C   UNL     1       4.372   3.100  17.214  0.00  0.00    +0.000 C 
ENDROOT
BRANCH   4   7
ATOM      7  C   UNL     1       2.359   4.441  19.147  0.00  0.00    +0.000 A 
ATOM      8  C   UNL     1       1.208   3.782  18.686  0.00  0.00    +0.000 A 
ATOM      9  C   UNL     1       0.420   3.033  19.564  0.00  0.00    +0.000 A 
ATOM     10  C   UNL     1       0.814   2.877  20.890  0.00  0.00    +0.000 A 
ATOM     11  C   UNL     1       1.967   3.509  21.339  0.00  0.00    +0.000 A 
ATOM     12  F   UNL     1       2.384   3.304  22.595  0.00  0.00    +0.000 F 
ATOM     13  C   UNL     1       2.717   4.324  20.496  0.00  0.00    +0.000 A 
ENDBRANCH   4   7
BRANCH   3  14
ATOM     14  C   UNL     1       2.459   7.582  18.773  0.00  0.00    +0.000 A 
ATOM     15  C   UNL     1       1.997   8.747  18.129  0.00  0.00    +0.000 A 
ATOM     16  C   UNL     1       1.228   9.699  18.817  0.00  0.00    +0.000 A 
ATOM     17  C   UNL     1       0.878   9.468  20.148  0.00  0.00    +0.000 A 
ATOM     18  C   UNL     1       1.359   8.347  20.816  0.00  0.00    +0.000 A 
ATOM     19  C   UNL     1       2.187   7.446  20.141  0.00  0.00    +0.000 A 
BRANCH  17  20
ATOM     20  S   UNL     1      -0.112  10.648  21.038  0.00  0.00    +0.000 S 
ATOM     21  C   UNL     1      -0.645   9.755  22.476  0.00  0.00    +0.000 C 
ATOM     22  O   UNL     1       0.768  11.718  21.473  0.00  0.00    +0.000 OA
ATOM     23  O   UNL     1      -1.284  10.933  20.225  0.00  0.00    +0.000 OA
ENDBRANCH  17  20
ENDBRANCH   3  14
BRANCH   1  24
ATOM     24  C   UNL     1       5.817   5.397  15.575  0.00  0.00    +0.000 C 
BRANCH  24  25
ATOM     25  C   UNL     1       7.234   5.450  16.179  0.00  0.00    +0.000 C 
ATOM     26  O   UNL     1       7.899   4.459  16.457  0.00  0.00    +0.000 OA
BRANCH  25  27
ATOM     27  O   UNL     1       7.632   6.742  16.376  0.00  0.00    +0.000 OA
BRANCH  27  29
ATOM     28  C   UNL     1       8.030   8.660  17.795  0.00  0.00    +0.000 C 
ATOM     29  C   UNL     1       7.702   7.179  17.741  0.00  0.00    +0.000 C 
ENDBRANCH  27  29
ENDBRANCH  25  27
ENDBRANCH  24  25
BRANCH  24  30
ATOM     30  O   UNL     1       5.632   6.354  14.533  0.00  0.00    +0.000 OA
ATOM     31  H   UNL     1       6.454   6.348  14.014  0.00  0.00    +0.000 HD
ENDBRANCH  24  30
ENDBRANCH   1  24
TORSDOF 8
ENDMDL
MODEL 2
REMARK VINA RESULT:      -8.9      0.678      1.350
REMARK  Name = 
REMARK  11 active torsions:
REMARK  status: ('A' for Active; 'I' for Inactive)
REMARK    1  A    between atoms: C_1  and  C_2
REMARK    2  A    between atoms: C_2  and  O_3
REMARK    3  A    between atoms: O_3  and  C_4
REMARK    4  A    between atoms: C_4  and  C_6
REMARK    5  A    between atoms: C_6  and  O_7
REMARK    6  A    between atoms: C_6  and  C_8
REMARK    7  A    between atoms: C_10  and  C_11
REMARK    8  A    between atoms: C_14  and  S_15
REMARK    9  A    between atoms: S_15  and  C_16
REMARK   10  A    between atoms: N_21  and  C_22
REMARK   11  A    between atoms: C_29  and  C_30
REMARK                            x       y       z     vdW  Elec       q    Type
REMARK                         _______ _______ _______ _____ _____    ______ ____
ROOT
ATOM      1  C   UNL     1       4.791   5.529  16.628  0.00  0.00    +0.000 A 
ATOM      2  C   UNL     1       4.145   6.747  16.955  0.00  0.00    +0.000 A 
ATOM      3  C   UNL     1       3.202   6.518  17.946  0.00  0.00    +0.000 A 
ATOM      4  N   UNL     1       3.210   5.130  18.207  0.00  0.00    +0.000 N 
ATOM      5  C   UNL     1       4.187   4.539  17.397  0.00  0.00    +0.000 A 
ATOM      6  C   UNL     1       4.464   3.069  17.302  0.00  0.00    +0.000 C 
ENDROOT
BRANCH   4   7
ATOM      7  C   UNL     1       2.372   4.429  19.138  0.00  0.00    +0.000 A 
ATOM      8  C   UNL     1       1.230   3.749  18.683  0.00  0.00    +0.000 A 
ATOM      9  C   UNL     1       0.443   3.012  19.572  0.00  0.00    +0.000 A 
ATOM     10  C   UNL     1       0.828   2.890  20.904  0.00  0.00    +0.000 A 
ATOM     11  C   UNL     1       1.972   3.543  21.347  0.00  0.00    +0.000 A 
ATOM     12  F   UNL     1       2.381   3.371  22.610  0.00  0.00    +0.000 F 
ATOM     13  C   UNL     1       2.720   4.346  20.491  0.00  0.00    +0.000 A 
ENDBRANCH   4   7
BRANCH   3  14
ATOM     14  C   UNL     1       2.394   7.554  18.640  0.00  0.00    +0.000 A 
ATOM     15  C   UNL     1       2.137   7.457  20.023  0.00  0.00    +0.000 A 
ATOM     16  C   UNL     1       1.422   8.456  20.699  0.00  0.00    +0.000 A 
ATOM     17  C   UNL     1       0.995   9.588  20.002  0.00  0.00    +0.000 A 
ATOM     18  C   UNL     1       1.199   9.685  18.629  0.00  0.00    +0.000 A 
ATOM     19  C   UNL     1       1.846   8.646  17.955  0.00  0.00    +0.000 A 
BRANCH  17  20
ATOM     20  S   UNL     1       0.103  10.880  20.838  0.00  0.00    +0.000 S 
ATOM     21  C   UNL     1       1.078  12.332  20.535  0.00  0.00    +0.000 C 
ATOM     22  O   UNL     1      -1.170  11.043  20.158  0.00  0.00    +0.000 OA
ATOM     23  O   UNL     1       0.154  10.591  22.262  0.00  0.00    +0.000 OA
ENDBRANCH  17  20
ENDBRANCH   3  14
BRANCH   1  24
ATOM     24  C   UNL     1       5.882   5.340  15.604  0.00  0.00    +0.000 C 
BRANCH  24  25
ATOM     25  C   UNL     1       7.281   5.387  16.247  0.00  0.00    +0.000 C 
ATOM     26  O   UNL     1       7.876   4.402  16.670  0.00  0.00    +0.000 OA
BRANCH  25  27
ATOM     27  O   UNL     1       7.753   6.668  16.296  0.00  0.00    +0.000 OA
BRANCH  27  29
ATOM     28  C   UNL     1       7.955   6.574  18.705  0.00  0.00    +0.000 C 
ATOM     29  C   UNL     1       7.495   7.389  17.510  0.00  0.00    +0.000 C 
ENDBRANCH  27  29
ENDBRANCH  25  27
ENDBRANCH  24  25
BRANCH  24  30
ATOM     30  O   UNL     1       5.731   6.294  14.553  0.00  0.00    +0.000 OA
ATOM     31  H   UNL     1       5.955   5.824  13.731  0.00  0.00    +0.000 HD
ENDBRANCH  24  30
ENDBRANCH   1  24
TORSDOF 8
ENDMDL
MODEL 3
REMARK VINA RESULT:      -8.6      0.817      1.487
REMARK  Name = 
REMARK  11 active torsions:
REMARK  status: ('A' for Active; 'I' for Inactive)
REMARK    1  A    between atoms: C_1  and  C_2
REMARK    2  A    between atoms: C_2  and  O_3
REMARK    3  A    between atoms: O_3  and  C_4
REMARK    4  A    between atoms: C_4  and  C_6
REMARK    5  A    between atoms: C_6  and  O_7
REMARK    6  A    between atoms: C_6  and  C_8
REMARK    7  A    between atoms: C_10  and  C_11
REMARK    8  A    between atoms: C_14  and  S_15
REMARK    9  A    between atoms: S_15  and  C_16
REMARK   10  A    between atoms: N_21  and  C_22
REMARK   11  A    between atoms: C_29  and  C_30
REMARK                            x       y       z     vdW  Elec       q    Type
REMARK                         _______ _______ _______ _____ _____    ______ ____
ROOT
ATOM      1  C   UNL     1       4.793   5.656  16.679  0.00  0.00    +0.000 A 
ATOM      2  C   UNL     1       4.081   6.819  17.063  0.00  0.00    +0.000 A 
ATOM      3  C   UNL     1       3.217   6.510  18.102  0.00  0.00    +0.000 A 
ATOM      4  N   UNL     1       3.339   5.122  18.338  0.00  0.00    +0.000 N 
ATOM      5  C   UNL     1       4.307   4.615  17.463  0.00  0.00    +0.000 A 
ATOM      6  C   UNL     1       4.683   3.171  17.326  0.00  0.00    +0.000 C 
ENDROOT
BRANCH   4   7
ATOM      7  C   UNL     1       2.609   4.349  19.301  0.00  0.00    +0.000 A 
ATOM      8  C   UNL     1       2.979   4.379  20.656  0.00  0.00    +0.000 A 
ATOM      9  C   UNL     1       2.236   3.679  21.610  0.00  0.00    +0.000 A 
ATOM     10  C   UNL     1       1.080   3.004  21.231  0.00  0.00    +0.000 A 
ATOM     11  C   UNL     1       0.701   2.995  19.894  0.00  0.00    +0.000 A 
ATOM     12  F   UNL     1      -0.447   2.404  19.539  0.00  0.00    +0.000 F 
ATOM     13  C   UNL     1       1.475   3.621  18.921  0.00  0.00    +0.000 A 
ENDBRANCH   4   7
BRANCH   3  14
ATOM     14  C   UNL     1       2.378   7.474  18.860  0.00  0.00    +0.000 A 
ATOM     15  C   UNL     1       2.098   7.264  20.225  0.00  0.00    +0.000 A 
ATOM     16  C   UNL     1       1.353   8.195  20.963  0.00  0.00    +0.000 A 
ATOM     17  C   UNL     1       0.919   9.372  20.349  0.00  0.00    +0.000 A 
ATOM     18  C   UNL     1       1.147   9.580  18.993  0.00  0.00    +0.000 A 
ATOM     19  C   UNL     1       1.824   8.608  18.252  0.00  0.00    +0.000 A 
BRANCH  17  20
ATOM     20  S   UNL     1      -0.010  10.580  21.267  0.00  0.00    +0.000 S 
ATOM     21  C   UNL     1      -0.526   9.703  22.720  0.00  0.00    +0.000 C 
ATOM     22  O   UNL     1       0.915  11.624  21.675  0.00  0.00    +0.000 OA
ATOM     23  O   UNL     1      -1.195  10.899  20.487  0.00  0.00    +0.000 OA
ENDBRANCH  17  20
ENDBRANCH   3  14
BRANCH   1  24
ATOM     24  C   UNL     1       5.833   5.561  15.591  0.00  0.00    +0.000 C 
BRANCH  24  25
ATOM     25  C   UNL     1       7.261   5.537  16.168  0.00  0.00    +0.000 C 
ATOM     26  O   UNL     1       7.887   4.511  16.410  0.00  0.00    +0.000 OA
BRANCH  25  27
ATOM     27  O   UNL     1       7.720   6.805  16.390  0.00  0.00    +0.000 OA
BRANCH  27  29
ATOM     28  C   UNL     1       7.990   8.736  17.821  0.00  0.00    +0.000 C 
ATOM     29  C   UNL     1       7.732   7.242  17.757  0.00  0.00    +0.000 C 
ENDBRANCH  27  29
ENDBRANCH  25  27
ENDBRANCH  24  25
BRANCH  24  30
ATOM     30  O   UNL     1       5.645   6.614  14.645  0.00  0.00    +0.000 OA
ATOM     31  H   UNL     1       5.928   7.430  15.093  0.00  0.00    +0.000 HD
ENDBRANCH  24  30
ENDBRANCH   1  24
TORSDOF 8
ENDMDL
MODEL 4
REMARK VINA RESULT:      -8.4      1.425      2.538
REMARK  Name = 
REMARK  11 active torsions:
REMARK  status: ('A' for Active; 'I' for Inactive)
REMARK    1  A    between atoms: C_1  and  C_2
REMARK    2  A    between atoms: C_2  and  O_3
REMARK    3  A    between atoms: O_3  and  C_4
REMARK    4  A    between atoms: C_4  and  C_6
REMARK    5  A    between atoms: C_6  and  O_7
REMARK    6  A    between atoms: C_6  and  C_8
REMARK    7  A    between atoms: C_10  and  C_11
REMARK    8  A    between atoms: C_14  and  S_15
REMARK    9  A    between atoms: S_15  and  C_16
REMARK   10  A    between atoms: N_21  and  C_22
REMARK   11  A    between atoms: C_29  and  C_30
REMARK                            x       y       z     vdW  Elec       q    Type
REMARK                         _______ _______ _______ _____ _____    ______ ____
ROOT
ATOM      1  C   UNL     1       5.739   5.401  17.306  0.00  0.00    +0.000 A 
ATOM      2  C   UNL     1       5.024   6.620  17.407  0.00  0.00    +0.000 A 
ATOM      3  C   UNL     1       3.808   6.391  18.032  0.00  0.00    +0.000 A 
ATOM      4  N   UNL     1       3.727   5.002  18.276  0.00  0.00    +0.000 N 
ATOM      5  C   UNL     1       4.914   4.411  17.830  0.00  0.00    +0.000 A 
ATOM      6  C   UNL     1       5.205   2.940  17.825  0.00  0.00    +0.000 C 
ENDROOT
BRANCH   4   7
ATOM      7  C   UNL     1       2.628   4.300  18.877  0.00  0.00    +0.000 A 
ATOM      8  C   UNL     1       1.625   3.739  18.070  0.00  0.00    +0.000 A 
ATOM      9  C   UNL     1       0.585   3.001  18.641  0.00  0.00    +0.000 A 
ATOM     10  C   UNL     1       0.578   2.758  20.012  0.00  0.00    +0.000 A 
ATOM     11  C   UNL     1       1.584   3.293  20.806  0.00  0.00    +0.000 A 
ATOM     12  F   UNL     1       1.616   3.004  22.113  0.00  0.00    +0.000 F 
ATOM     13  C   UNL     1       2.582   4.097  20.261  0.00  0.00    +0.000 A 
ENDBRANCH   4   7
BRANCH   3  14
ATOM     14  C   UNL     1       2.819   7.427  18.427  0.00  0.00    +0.000 A 
ATOM     15  C   UNL     1       2.294   7.458  19.735  0.00  0.00    +0.000 A 
ATOM     16  C   UNL     1       1.401   8.464  20.134  0.00  0.00    +0.000 A 
ATOM     17  C   UNL     1       1.060   9.476  19.236  0.00  0.00    +0.000 A 
ATOM     18  C   UNL     1       1.530   9.442  17.927  0.00  0.00    +0.000 A 
ATOM     19  C   UNL     1       2.358   8.392  17.522  0.00  0.00    +0.000 A 
BRANCH  17  20
ATOM     20  S   UNL     1      -0.055  10.775  19.721  0.00  0.00    +0.000 S 
ATOM     21  C   UNL     1      -1.392  10.641  18.564  0.00  0.00    +0.000 C 
ATOM     22  O   UNL     1      -0.565  10.443  21.040  0.00  0.00    +0.000 OA
ATOM     23  O   UNL     1       0.623  12.040  19.483  0.00  0.00    +0.000 OA
ENDBRANCH  17  20
ENDBRANCH   3  14
BRANCH   1  24
ATOM     24  C   UNL     1       7.106   5.212  16.696  0.00  0.00    +0.000 C 
BRANCH  24  25
ATOM     25  C   UNL     1       7.023   4.953  15.180  0.00  0.00    +0.000 C 
ATOM     26  O   UNL     1       7.634   5.601  14.338  0.00  0.00    +0.000 OA
BRANCH  25  27
ATOM     27  O   UNL     1       6.166   3.924  14.907  0.00  0.00    +0.000 OA
BRANCH  27  29
ATOM     28  C   UNL     1       6.035   3.354  12.559  0.00  0.00    +0.000 C 
ATOM     29  C   UNL     1       5.368   4.066  13.722  0.00  0.00    +0.000 C 
ENDBRANCH  27  29
ENDBRANCH  25  27
ENDBRANCH  24  25
BRANCH  24  30
ATOM     30  O   UNL     1       7.809   4.180  17.389  0.00  0.00    +0.000 OA
ATOM     31  H   UNL     1       8.381   4.632  18.033  0.00  0.00    +0.000 HD
ENDBRANCH  24  30
ENDBRANCH   1  24
TORSDOF 8
ENDMDL
MODEL 5
REMARK VINA RESULT:      -8.4      1.218      1.781
REMARK  Name = 
REMARK  11 active torsions:
REMARK  status: ('A' for Active; 'I' for Inactive)
REMARK    1  A    between atoms: C_1  and  C_2
REMARK    2  A    between atoms: C_2  and  O_3
REMARK    3  A    between atoms: O_3  and  C_4
REMARK    4  A    between atoms: C_4  and  C_6
REMARK    5  A    between atoms: C_6  and  O_7
REMARK    6  A    between atoms: C_6  and  C_8
REMARK    7  A    between atoms: C_10  and  C_11
REMARK    8  A    between atoms: C_14  and  S_15
REMARK    9  A    between atoms: S_15  and  C_16
REMARK   10  A    between atoms: N_21  and  C_22
REMARK   11  A    between atoms: C_29  and  C_30
REMARK                            x       y       z     vdW  Elec       q    Type
REMARK                         _______ _______ _______ _____ _____    ______ ____
ROOT
ATOM      1  C   UNL     1       4.906   4.646  16.424  0.00  0.00    +0.000 A 
ATOM      2  C   UNL     1       4.328   5.921  16.644  0.00  0.00    +0.000 A 
ATOM      3  C   UNL     1       3.430   5.846  17.697  0.00  0.00    +0.000 A 
ATOM      4  N   UNL     1       3.394   4.495  18.110  0.00  0.00    +0.000 N 
ATOM      5  C   UNL     1       4.302   3.775  17.325  0.00  0.00    +0.000 A 
ATOM      6  C   UNL     1       4.513   2.292  17.380  0.00  0.00    +0.000 C 
ENDROOT
BRANCH   4   7
ATOM      7  C   UNL     1       2.576   3.939  19.150  0.00  0.00    +0.000 A 
ATOM      8  C   UNL     1       1.192   3.798  18.959  0.00  0.00    +0.000 A 
ATOM      9  C   UNL     1       0.398   3.200  19.942  0.00  0.00    +0.000 A 
ATOM     10  C   UNL     1       0.989   2.675  21.088  0.00  0.00    +0.000 A 
ATOM     11  C   UNL     1       2.362   2.794  21.264  0.00  0.00    +0.000 A 
ATOM     12  F   UNL     1       2.940   2.230  22.332  0.00  0.00    +0.000 F 
ATOM     13  C   UNL     1       3.153   3.458  20.331  0.00  0.00    +0.000 A 
ENDBRANCH   4   7
BRANCH   3  14
ATOM     14  C   UNL     1       2.702   6.987  18.310  0.00  0.00    +0.000 A 
ATOM     15  C   UNL     1       2.359   6.969  19.677  0.00  0.00    +0.000 A 
ATOM     16  C   UNL     1       1.720   8.064  20.278  0.00  0.00    +0.000 A 
ATOM     17  C   UNL     1       1.459   9.208  19.522  0.00  0.00    +0.000 A 
ATOM     18  C   UNL     1       1.748   9.231  18.162  0.00  0.00    +0.000 A 
ATOM     19  C   UNL     1       2.315   8.105  17.559  0.00  0.00    +0.000 A 
BRANCH  17  20
ATOM     20  S   UNL     1       0.668  10.619  20.263  0.00  0.00    +0.000 S 
ATOM     21  C   UNL     1       1.271  11.990  19.313  0.00  0.00    +0.000 C 
ATOM     22  O   UNL     1      -0.759  10.497  20.022  0.00  0.00    +0.000 OA
ATOM     23  O   UNL     1       1.186  10.745  21.616  0.00  0.00    +0.000 OA
ENDBRANCH  17  20
ENDBRANCH   3  14
BRANCH   1  24
ATOM     24  C   UNL     1       5.934   4.297  15.377  0.00  0.00    +0.000 C 
BRANCH  24  25
ATOM     25  C   UNL     1       7.262   5.043  15.611  0.00  0.00    +0.000 C 
ATOM     26  O   UNL     1       7.857   5.673  14.745  0.00  0.00    +0.000 OA
BRANCH  25  27
ATOM     27  O   UNL     1       7.688   4.888  16.900  0.00  0.00    +0.000 OA
BRANCH  27  29
ATOM     28  C   UNL     1       7.347   5.685  19.158  0.00  0.00    +0.000 C 
ATOM     29  C   UNL     1       7.653   6.065  17.721  0.00  0.00    +0.000 C 
ENDBRANCH  27  29
ENDBRANCH  25  27
ENDBRANCH  24  25
BRANCH  24  30
ATOM     30  O   UNL     1       5.399   4.530  14.074  0.00  0.00    +0.000 OA
ATOM     31  H   UNL     1       5.146   3.657  13.729  0.00  0.00    +0.000 HD
ENDBRANCH  24  30
ENDBRANCH   1  24
TORSDOF 8
ENDMDL
MODEL 6
REMARK VINA RESULT:      -8.4      0.905      1.285
REMARK  Name = 
REMARK  11 active torsions:
REMARK  status: ('A' for Active; 'I' for Inactive)
REMARK    1  A    between atoms: C_1  and  C_2
REMARK    2  A    between atoms: C_2  and  O_3
REMARK    3  A    between atoms: O_3  and  C_4
REMARK    4  A    between atoms: C_4  and  C_6
REMARK    5  A    between atoms: C_6  and  O_7
REMARK    6  A    between atoms: C_6  and  C_8
REMARK    7  A    between atoms: C_10  and  C_11
REMARK    8  A    between atoms: C_14  and  S_15
REMARK    9  A    between atoms: S_15  and  C_16
REMARK   10  A    between atoms: N_21  and  C_22
REMARK   11  A    between atoms: C_29  and  C_30
REMARK                            x       y       z     vdW  Elec       q    Type
REMARK                         _______ _______ _______ _____ _____    ______ ____
ROOT
ATOM      1  C   UNL     1       4.833   5.608  16.676  0.00  0.00    +0.000 A 
ATOM      2  C   UNL     1       4.218   6.827  17.055  0.00  0.00    +0.000 A 
ATOM      3  C   UNL     1       3.267   6.579  18.034  0.00  0.00    +0.000 A 
ATOM      4  N   UNL     1       3.238   5.181  18.233  0.00  0.00    +0.000 N 
ATOM      5  C   UNL     1       4.202   4.601  17.399  0.00  0.00    +0.000 A 
ATOM      6  C   UNL     1       4.442   3.130  17.239  0.00  0.00    +0.000 C 
ENDROOT
BRANCH   4   7
ATOM      7  C   UNL     1       2.380   4.460  19.129  0.00  0.00    +0.000 A 
ATOM      8  C   UNL     1       1.241   3.801  18.638  0.00  0.00    +0.000 A 
ATOM      9  C   UNL     1       0.434   3.046  19.493  0.00  0.00    +0.000 A 
ATOM     10  C   UNL     1       0.796   2.885  20.827  0.00  0.00    +0.000 A 
ATOM     11  C   UNL     1       1.936   3.518  21.307  0.00  0.00    +0.000 A 
ATOM     12  F   UNL     1       2.322   3.309  22.572  0.00  0.00    +0.000 F 
ATOM     13  C   UNL     1       2.705   4.338  20.486  0.00  0.00    +0.000 A 
ENDBRANCH   4   7
BRANCH   3  14
ATOM     14  C   UNL     1       2.484   7.602  18.772  0.00  0.00    +0.000 A 
ATOM     15  C   UNL     1       2.038   8.772  18.123  0.00  0.00    +0.000 A 
ATOM     16  C   UNL     1       1.252   9.719  18.796  0.00  0.00    +0.000 A 
ATOM     17  C   UNL     1       0.867   9.480  20.117  0.00  0.00    +0.000 A 
ATOM     18  C   UNL     1       1.331   8.355  20.791  0.00  0.00    +0.000 A 
ATOM     19  C   UNL     1       2.176   7.459  20.131  0.00  0.00    +0.000 A 
BRANCH  17  20
ATOM     20  S   UNL     1      -0.147  10.654  20.988  0.00  0.00    +0.000 S 
ATOM     21  C   UNL     1      -1.274  11.242  19.750  0.00  0.00    +0.000 C 
ATOM     22  O   UNL     1      -0.912   9.919  21.981  0.00  0.00    +0.000 OA
ATOM     23  O   UNL     1       0.711  11.761  21.380  0.00  0.00    +0.000 OA
ENDBRANCH  17  20
ENDBRANCH   3  14
BRANCH   1  24
ATOM     24  C   UNL     1       5.922   5.438  15.646  0.00  0.00    +0.000 C 
BRANCH  24  25
ATOM     25  C   UNL     1       7.313   5.752  16.230  0.00  0.00    +0.000 C 
ATOM     26  O   UNL     1       7.831   6.863  16.210  0.00  0.00    +0.000 OA
BRANCH  25  27
ATOM     27  O   UNL     1       7.890   4.628  16.749  0.00  0.00    +0.000 OA
BRANCH  27  29
ATOM     28  C   UNL     1       7.776   5.851  18.833  0.00  0.00    +0.000 C 
ATOM     29  C   UNL     1       7.818   4.484  18.176  0.00  0.00    +0.000 C 
ENDBRANCH  27  29
ENDBRANCH  25  27
ENDBRANCH  24  25
BRANCH  24  30
ATOM     30  O   UNL     1       5.625   6.221  14.491  0.00  0.00    +0.000 OA
ATOM     31  H   UNL     1       6.400   6.145  13.909  0.00  0.00    +0.000 HD
ENDBRANCH  24  30
ENDBRANCH   1  24
TORSDOF 8
ENDMDL
MODEL 7
REMARK VINA RESULT:      -8.3      1.040      1.467
REMARK  Name = 
REMARK  11 active torsions:
REMARK  status: ('A' for Active; 'I' for Inactive)
REMARK    1  A    between atoms: C_1  and  C_2
REMARK    2  A    between atoms: C_2  and  O_3
REMARK    3  A    between atoms: O_3  and  C_4
REMARK    4  A    between atoms: C_4  and  C_6
REMARK    5  A    between atoms: C_6  and  O_7
REMARK    6  A    between atoms: C_6  and  C_8
REMARK    7  A    between atoms: C_10  and  C_11
REMARK    8  A    between atoms: C_14  and  S_15
REMARK    9  A    between atoms: S_15  and  C_16
REMARK   10  A    between atoms: N_21  and  C_22
REMARK   11  A    between atoms: C_29  and  C_30
REMARK                            x       y       z     vdW  Elec       q    Type
REMARK                         _______ _______ _______ _____ _____    ______ ____
ROOT
ATOM      1  C   UNL     1       4.778   5.570  16.634  0.00  0.00    +0.000 A 
ATOM      2  C   UNL     1       4.120   6.758  17.037  0.00  0.00    +0.000 A 
ATOM      3  C   UNL     1       3.271   6.478  18.098  0.00  0.00    +0.000 A 
ATOM      4  N   UNL     1       3.348   5.087  18.329  0.00  0.00    +0.000 N 
ATOM      5  C   UNL     1       4.274   4.546  17.429  0.00  0.00    +0.000 A 
ATOM      6  C   UNL     1       4.593   3.089  17.281  0.00  0.00    +0.000 C 
ENDROOT
BRANCH   4   7
ATOM      7  C   UNL     1       2.614   4.339  19.310  0.00  0.00    +0.000 A 
ATOM      8  C   UNL     1       3.012   4.364  20.657  0.00  0.00    +0.000 A 
ATOM      9  C   UNL     1       2.268   3.690  21.629  0.00  0.00    +0.000 A 
ATOM     10  C   UNL     1       1.085   3.047  21.275  0.00  0.00    +0.000 A 
ATOM     11  C   UNL     1       0.680   3.044  19.946  0.00  0.00    +0.000 A 
ATOM     12  F   UNL     1      -0.492   2.485  19.616  0.00  0.00    +0.000 F 
ATOM     13  C   UNL     1       1.453   3.643  18.956  0.00  0.00    +0.000 A 
ENDBRANCH   4   7
BRANCH   3  14
ATOM     14  C   UNL     1       2.488   7.471  18.877  0.00  0.00    +0.000 A 
ATOM     15  C   UNL     1       2.018   8.653  18.269  0.00  0.00    +0.000 A 
ATOM     16  C   UNL     1       1.232   9.571  18.981  0.00  0.00    +0.000 A 
ATOM     17  C   UNL     1       0.872   9.291  20.300  0.00  0.00    +0.000 A 
ATOM     18  C   UNL     1       1.360   8.154  20.935  0.00  0.00    +0.000 A 
ATOM     19  C   UNL     1       2.205   7.286  20.237  0.00  0.00    +0.000 A 
BRANCH  17  20
ATOM     20  S   UNL     1      -0.141  10.428  21.221  0.00  0.00    +0.000 S 
ATOM     21  C   UNL     1      -1.284  11.050  20.015  0.00  0.00    +0.000 C 
ATOM     22  O   UNL     1      -0.891   9.654  22.195  0.00  0.00    +0.000 OA
ATOM     23  O   UNL     1       0.713  11.527  21.642  0.00  0.00    +0.000 OA
ENDBRANCH  17  20
ENDBRANCH   3  14
BRANCH   1  24
ATOM     24  C   UNL     1       5.786   5.439  15.520  0.00  0.00    +0.000 C 
BRANCH  24  25
ATOM     25  C   UNL     1       7.230   5.420  16.057  0.00  0.00    +0.000 C 
ATOM     26  O   UNL     1       7.878   4.398  16.248  0.00  0.00    +0.000 OA
BRANCH  25  27
ATOM     27  O   UNL     1       7.675   6.688  16.306  0.00  0.00    +0.000 OA
BRANCH  27  29
ATOM     28  C   UNL     1       7.919   8.583  17.789  0.00  0.00    +0.000 C 
ATOM     29  C   UNL     1       7.717   7.082  17.685  0.00  0.00    +0.000 C 
ENDBRANCH  27  29
ENDBRANCH  25  27
ENDBRANCH  24  25
BRANCH  24  30
ATOM     30  O   UNL     1       5.577   6.467  14.552  0.00  0.00    +0.000 OA
ATOM     31  H   UNL     1       6.254   7.142  14.728  0.00  0.00    +0.000 HD
ENDBRANCH  24  30
ENDBRANCH   1  24
TORSDOF 8
ENDMDL
MODEL 8
REMARK VINA RESULT:      -8.2      1.452      2.309
REMARK  Name = 
REMARK  11 active torsions:
REMARK  status: ('A' for Active; 'I' for Inactive)
REMARK    1  A    between atoms: C_1  and  C_2
REMARK    2  A    between atoms: C_2  and  O_3
REMARK    3  A    between atoms: O_3  and  C_4
REMARK    4  A    between atoms: C_4  and  C_6
REMARK    5  A    between atoms: C_6  and  O_7
REMARK    6  A    between atoms: C_6  and  C_8
REMARK    7  A    between atoms: C_10  and  C_11
REMARK    8  A    between atoms: C_14  and  S_15
REMARK    9  A    between atoms: S_15  and  C_16
REMARK   10  A    between atoms: N_21  and  C_22
REMARK   11  A    between atoms: C_29  and  C_30
REMARK                            x       y       z     vdW  Elec       q    Type
REMARK                         _______ _______ _______ _____ _____    ______ ____
ROOT
ATOM      1  C   UNL     1       5.516   5.720  17.022  0.00  0.00    +0.000 A 
ATOM      2  C   UNL     1       4.776   6.912  17.217  0.00  0.00    +0.000 A 
ATOM      3  C   UNL     1       3.636   6.632  17.954  0.00  0.00    +0.000 A 
ATOM      4  N   UNL     1       3.623   5.238  18.177  0.00  0.00    +0.000 N 
ATOM      5  C   UNL     1       4.779   4.694  17.605  0.00  0.00    +0.000 A 
ATOM      6  C   UNL     1       5.114   3.234  17.543  0.00  0.00    +0.000 C 
ENDROOT
BRANCH   4   7
ATOM      7  C   UNL     1       2.612   4.490  18.869  0.00  0.00    +0.000 A 
ATOM      8  C   UNL     1       1.575   3.874  18.149  0.00  0.00    +0.000 A 
ATOM      9  C   UNL     1       0.622   3.092  18.807  0.00  0.00    +0.000 A 
ATOM     10  C   UNL     1       0.737   2.862  20.175  0.00  0.00    +0.000 A 
ATOM     11  C   UNL     1       1.778   3.451  20.882  0.00  0.00    +0.000 A 
ATOM     12  F   UNL     1       1.930   3.176  22.183  0.00  0.00    +0.000 F 
ATOM     13  C   UNL     1       2.688   4.297  20.253  0.00  0.00    +0.000 A 
ENDBRANCH   4   7
BRANCH   3  14
ATOM     14  C   UNL     1       2.658   7.628  18.464  0.00  0.00    +0.000 A 
ATOM     15  C   UNL     1       2.190   7.559  19.792  0.00  0.00    +0.000 A 
ATOM     16  C   UNL     1       1.308   8.525  20.300  0.00  0.00    +0.000 A 
ATOM     17  C   UNL     1       0.922   9.597  19.493  0.00  0.00    +0.000 A 
ATOM     18  C   UNL     1       1.336   9.661  18.167  0.00  0.00    +0.000 A 
ATOM     19  C   UNL     1       2.153   8.651  17.651  0.00  0.00    +0.000 A 
BRANCH  17  20
ATOM     20  S   UNL     1      -0.178  10.847  20.118  0.00  0.00    +0.000 S 
ATOM     21  C   UNL     1      -1.555  10.797  19.000  0.00  0.00    +0.000 C 
ATOM     22  O   UNL     1      -0.641  10.409  21.423  0.00  0.00    +0.000 OA
ATOM     23  O   UNL     1       0.487  12.130  19.958  0.00  0.00    +0.000 OA
ENDBRANCH  17  20
ENDBRANCH   3  14
BRANCH   1  24
ATOM     24  C   UNL     1       6.822   5.587  16.278  0.00  0.00    +0.000 C 
BRANCH  24  25
ATOM     25  C   UNL     1       6.605   5.118  14.827  0.00  0.00    +0.000 C 
ATOM     26  O   UNL     1       5.552   4.654  14.405  0.00  0.00    +0.000 OA
BRANCH  25  27
ATOM     27  O   UNL     1       7.744   5.272  14.088  0.00  0.00    +0.000 OA
BRANCH  27  29
ATOM     28  C   UNL     1       8.020   6.093  11.829  0.00  0.00    +0.000 C 
ATOM     29  C   UNL     1       7.652   4.907  12.703  0.00  0.00    +0.000 C 
ENDBRANCH  27  29
ENDBRANCH  25  27
ENDBRANCH  24  25
BRANCH  24  30
ATOM     30  O   UNL     1       7.709   4.734  17.001  0.00  0.00    +0.000 OA
ATOM     31  H   UNL     1       8.486   4.611  16.429  0.00  0.00    +0.000 HD
ENDBRANCH  24  30
ENDBRANCH   1  24
TORSDOF 8
ENDMDL
MODEL 9
REMARK VINA RESULT:      -8.1      1.151      1.607
REMARK  Name = 
REMARK  11 active torsions:
REMARK  status: ('A' for Active; 'I' for Inactive)
REMARK    1  A    between atoms: C_1  and  C_2
REMARK    2  A    between atoms: C_2  and  O_3
REMARK    3  A    between atoms: O_3  and  C_4
REMARK    4  A    between atoms: C_4  and  C_6
REMARK    5  A    between atoms: C_6  and  O_7
REMARK    6  A    between atoms: C_6  and  C_8
REMARK    7  A    between atoms: C_10  and  C_11
REMARK    8  A    between atoms: C_14  and  S_15
REMARK    9  A    between atoms: S_15  and  C_16
REMARK   10  A    between atoms: N_21  and  C_22
REMARK   11  A    between atoms: C_29  and  C_30
REMARK                            x       y       z     vdW  Elec       q    Type
REMARK                         _______ _______ _______ _____ _____    ______ ____
ROOT
ATOM      1  C   UNL     1       4.977   4.615  16.482  0.00  0.00    +0.000 A 
ATOM      2  C   UNL     1       4.449   5.919  16.642  0.00  0.00    +0.000 A 
ATOM      3  C   UNL     1       3.485   5.907  17.639  0.00  0.00    +0.000 A 
ATOM      4  N   UNL     1       3.359   4.569  18.072  0.00  0.00    +0.000 N 
ATOM      5  C   UNL     1       4.279   3.791  17.358  0.00  0.00    +0.000 A 
ATOM      6  C   UNL     1       4.415   2.302  17.453  0.00  0.00    +0.000 C 
ENDROOT
BRANCH   4   7
ATOM      7  C   UNL     1       2.454   4.072  19.069  0.00  0.00    +0.000 A 
ATOM      8  C   UNL     1       1.211   3.540  18.690  0.00  0.00    +0.000 A 
ATOM      9  C   UNL     1       0.350   2.997  19.648  0.00  0.00    +0.000 A 
ATOM     10  C   UNL     1       0.753   2.918  20.978  0.00  0.00    +0.000 A 
ATOM     11  C   UNL     1       1.993   3.422  21.348  0.00  0.00    +0.000 A 
ATOM     12  F   UNL     1       2.409   3.285  22.613  0.00  0.00    +0.000 F 
ATOM     13  C   UNL     1       2.827   4.038  20.418  0.00  0.00    +0.000 A 
ENDBRANCH   4   7
BRANCH   3  14
ATOM     14  C   UNL     1       2.776   7.093  18.185  0.00  0.00    +0.000 A 
ATOM     15  C   UNL     1       2.276   7.087  19.503  0.00  0.00    +0.000 A 
ATOM     16  C   UNL     1       1.653   8.220  20.047  0.00  0.00    +0.000 A 
ATOM     17  C   UNL     1       1.566   9.389  19.288  0.00  0.00    +0.000 A 
ATOM     18  C   UNL     1       2.013   9.404  17.971  0.00  0.00    +0.000 A 
ATOM     19  C   UNL     1       2.562   8.245  17.417  0.00  0.00    +0.000 A 
BRANCH  17  20
ATOM     20  S   UNL     1       0.800  10.847  19.960  0.00  0.00    +0.000 S 
ATOM     21  C   UNL     1      -0.900  10.381  20.156  0.00  0.00    +0.000 C 
ATOM     22  O   UNL     1       1.362  11.066  21.281  0.00  0.00    +0.000 OA
ATOM     23  O   UNL     1       0.870  11.882  18.941  0.00  0.00    +0.000 OA
ENDBRANCH  17  20
ENDBRANCH   3  14
BRANCH   1  24
ATOM     24  C   UNL     1       6.050   4.197  15.507  0.00  0.00    +0.000 C 
BRANCH  24  25
ATOM     25  C   UNL     1       7.376   4.937  15.766  0.00  0.00    +0.000 C 
ATOM     26  O   UNL     1       7.767   5.896  15.110  0.00  0.00    +0.000 OA
BRANCH  25  27
ATOM     27  O   UNL     1       8.056   4.370  16.806  0.00  0.00    +0.000 OA
BRANCH  27  29
ATOM     28  C   UNL     1       7.748   6.207  18.349  0.00  0.00    +0.000 C 
ATOM     29  C   UNL     1       7.598   4.714  18.122  0.00  0.00    +0.000 C 
ENDBRANCH  27  29
ENDBRANCH  25  27
ENDBRANCH  24  25
BRANCH  24  30
ATOM     30  O   UNL     1       5.582   4.366  14.168  0.00  0.00    +0.000 OA
ATOM     31  H   UNL     1       5.224   3.503  13.899  0.00  0.00    +0.000 HD
ENDBRANCH  24  30
ENDBRANCH   1  24
TORSDOF 8
ENDMDL
