MODEL 1
REMARK VINA RESULT:      -6.7      0.000      0.000
REMARK  Name = 
REMARK  6 active torsions:
REMARK  status: ('A' for Active; 'I' for Inactive)
REMARK    1  A    between atoms: C_1  and  C_2
REMARK    2  A    between atoms: C_2  and  C_3
REMARK    3  A    between atoms: C_3  and  C_4
REMARK    4  A    between atoms: C_4  and  C_5
REMARK    5  A    between atoms: C_8  and  C_9
REMARK    6  A    between atoms: C_9  and  C_10
REMARK                            x       y       z     vdW  Elec       q    Type
REMARK                         _______ _______ _______ _____ _____    ______ ____
ROOT
ATOM      1  C   UNL     1       2.166   4.069  18.128  0.00  0.00    +0.000 A 
ATOM      2  C   UNL     1       2.505   5.426  18.197  0.00  0.00    +0.000 A 
ATOM      3  C   UNL     1       3.622   5.917  17.517  0.00  0.00    +0.000 A 
ATOM      4  C   UNL     1       4.436   5.060  16.766  0.00  0.00    +0.000 A 
ATOM      5  C   UNL     1       4.095   3.701  16.701  0.00  0.00    +0.000 A 
ATOM      6  C   UNL     1       2.963   3.216  17.358  0.00  0.00    +0.000 A 
ENDROOT
BRANCH   1   7
ATOM      7  C   UNL     1       0.992   3.513  18.896  0.00  0.00    +0.000 C 
BRANCH   7   8
ATOM      8  C   UNL     1       0.972   4.006  20.341  0.00  0.00    +0.000 C 
BRANCH   8  10
ATOM      9  C   UNL     1       2.707   2.661  21.544  0.00  0.00    +0.000 C 
ATOM     10  C   UNL     1       1.217   2.876  21.336  0.00  0.00    +0.000 C 
ENDBRANCH   8  10
ENDBRANCH   7   8
ENDBRANCH   1   7
BRANCH   4  11
ATOM     11  C   UNL     1       5.670   5.600  16.078  0.00  0.00    +0.000 C 
BRANCH  11  12
ATOM     12  C   UNL     1       6.715   6.160  17.018  0.00  0.00    +0.000 C 
ATOM     13  N   UNL     1       6.999   7.441  17.038  0.00  0.00    +0.000 NA
ATOM     14  C   UNL     1       8.022   7.564  18.123  0.00  0.00    +0.000 C 
ATOM     15  C   UNL     1       7.929   6.255  18.923  0.00  0.00    +0.000 C 
ATOM     16  N   UNL     1       7.410   5.372  17.908  0.00  0.00    +0.000 N 
ATOM     17  H   UNL     1       6.953   4.518  18.212  0.00  0.00    +0.000 HD
ENDBRANCH  11  12
ENDBRANCH   4  11
TORSDOF 5
ENDMDL
MODEL 2
REMARK VINA RESULT:      -6.5      0.412      1.261
REMARK  Name = 
REMARK  6 active torsions:
REMARK  status: ('A' for Active; 'I' for Inactive)
REMARK    1  A    between atoms: C_1  and  C_2
REMARK    2  A    between atoms: C_2  and  C_3
REMARK    3  A    between atoms: C_3  and  C_4
REMARK    4  A    between atoms: C_4  and  C_5
REMARK    5  A    between atoms: C_8  and  C_9
REMARK    6  A    between atoms: C_9  and  C_10
REMARK                            x       y       z     vdW  Elec       q    Type
REMARK                         _______ _______ _______ _____ _____    ______ ____
ROOT
ATOM      1  C   UNL     1       2.297   3.919  18.212  0.00  0.00    +0.000 A 
ATOM      2  C   UNL     1       3.270   3.112  17.609  0.00  0.00    +0.000 A 
ATOM      3  C   UNL     1       4.360   3.685  16.948  0.00  0.00    +0.000 A 
ATOM      4  C   UNL     1       4.493   5.075  16.861  0.00  0.00    +0.000 A 
ATOM      5  C   UNL     1       3.515   5.880  17.465  0.00  0.00    +0.000 A 
ATOM      6  C   UNL     1       2.442   5.308  18.149  0.00  0.00    +0.000 A 
ENDROOT
BRANCH   1   7
ATOM      7  C   UNL     1       1.088   3.318  18.887  0.00  0.00    +0.000 C 
BRANCH   7   8
ATOM      8  C   UNL     1       0.789   3.990  20.225  0.00  0.00    +0.000 C 
BRANCH   8  10
ATOM      9  C   UNL     1       1.981   2.362  21.707  0.00  0.00    +0.000 C 
ATOM     10  C   UNL     1       1.925   3.804  21.227  0.00  0.00    +0.000 C 
ENDBRANCH   8  10
ENDBRANCH   7   8
ENDBRANCH   1   7
BRANCH   4  11
ATOM     11  C   UNL     1       5.653   5.678  16.099  0.00  0.00    +0.000 C 
BRANCH  11  12
ATOM     12  C   UNL     1       6.726   6.286  16.974  0.00  0.00    +0.000 C 
ATOM     13  N   UNL     1       6.962   7.578  16.969  0.00  0.00    +0.000 NA
ATOM     14  C   UNL     1       8.039   7.750  17.993  0.00  0.00    +0.000 C 
ATOM     15  C   UNL     1       8.041   6.447  18.807  0.00  0.00    +0.000 C 
ATOM     16  N   UNL     1       7.500   5.535  17.830  0.00  0.00    +0.000 N 
ATOM     17  H   UNL     1       7.094   4.667  18.166  0.00  0.00    +0.000 HD
ENDBRANCH  11  12
ENDBRANCH   4  11
TORSDOF 5
ENDMDL
MODEL 3
REMARK VINA RESULT:      -6.3      1.117      1.227
REMARK  Name = 
REMARK  6 active torsions:
REMARK  status: ('A' for Active; 'I' for Inactive)
REMARK    1  A    between atoms: C_1  and  C_2
REMARK    2  A    between atoms: C_2  and  C_3
REMARK    3  A    between atoms: C_3  and  C_4
REMARK    4  A    between atoms: C_4  and  C_5
REMARK    5  A    between atoms: C_8  and  C_9
REMARK    6  A    between atoms: C_9  and  C_10
REMARK                            x       y       z     vdW  Elec       q    Type
REMARK                         _______ _______ _______ _____ _____    ______ ____
ROOT
ATOM      1  C   UNL     1       2.002   2.873  18.153  0.00  0.00    +0.000 A 
ATOM      2  C   UNL     1       2.174   4.188  17.703  0.00  0.00    +0.000 A 
ATOM      3  C   UNL     1       3.367   4.581  17.092  0.00  0.00    +0.000 A 
ATOM      4  C   UNL     1       4.420   3.674  16.929  0.00  0.00    +0.000 A 
ATOM      5  C   UNL     1       4.245   2.358  17.383  0.00  0.00    +0.000 A 
ATOM      6  C   UNL     1       3.043   1.959  17.969  0.00  0.00    +0.000 A 
ENDROOT
BRANCH   1   7
ATOM      7  C   UNL     1       0.739   2.444  18.861  0.00  0.00    +0.000 C 
BRANCH   7   8
ATOM      8  C   UNL     1       0.546   3.188  20.180  0.00  0.00    +0.000 C 
BRANCH   8  10
ATOM      9  C   UNL     1       2.426   4.151  21.524  0.00  0.00    +0.000 C 
ATOM     10  C   UNL     1       1.660   2.884  21.178  0.00  0.00    +0.000 C 
ENDBRANCH   8  10
ENDBRANCH   7   8
ENDBRANCH   1   7
BRANCH   4  11
ATOM     11  C   UNL     1       5.723   4.130  16.310  0.00  0.00    +0.000 C 
BRANCH  11  12
ATOM     12  C   UNL     1       6.590   4.966  17.226  0.00  0.00    +0.000 C 
ATOM     13  N   UNL     1       6.764   6.250  17.017  0.00  0.00    +0.000 NA
ATOM     14  C   UNL     1       7.627   6.685  18.159  0.00  0.00    +0.000 C 
ATOM     15  C   UNL     1       7.540   5.551  19.192  0.00  0.00    +0.000 C 
ATOM     16  N   UNL     1       7.228   4.441  18.327  0.00  0.00    +0.000 N 
ATOM     17  H   UNL     1       6.808   3.617  18.746  0.00  0.00    +0.000 HD
ENDBRANCH  11  12
ENDBRANCH   4  11
TORSDOF 5
ENDMDL
MODEL 4
REMARK VINA RESULT:      -6.3      2.008      2.755
REMARK  Name = 
REMARK  6 active torsions:
REMARK  status: ('A' for Active; 'I' for Inactive)
REMARK    1  A    between atoms: C_1  and  C_2
REMARK    2  A    between atoms: C_2  and  C_3
REMARK    3  A    between atoms: C_3  and  C_4
REMARK    4  A    between atoms: C_4  and  C_5
REMARK    5  A    between atoms: C_8  and  C_9
REMARK    6  A    between atoms: C_9  and  C_10
REMARK                            x       y       z     vdW  Elec       q    Type
REMARK                         _______ _______ _______ _____ _____    ______ ____
ROOT
ATOM      1  C   UNL     1       2.893   5.552  19.659  0.00  0.00    +0.000 A 
ATOM      2  C   UNL     1       2.581   6.490  18.666  0.00  0.00    +0.000 A 
ATOM      3  C   UNL     1       3.526   6.843  17.699  0.00  0.00    +0.000 A 
ATOM      4  C   UNL     1       4.807   6.279  17.711  0.00  0.00    +0.000 A 
ATOM      5  C   UNL     1       5.116   5.341  18.708  0.00  0.00    +0.000 A 
ATOM      6  C   UNL     1       4.163   4.969  19.657  0.00  0.00    +0.000 A 
ENDROOT
BRANCH   1   7
ATOM      7  C   UNL     1       1.902   5.196  20.741  0.00  0.00    +0.000 C 
BRANCH   7   8
ATOM      8  C   UNL     1       0.849   4.207  20.247  0.00  0.00    +0.000 C 
BRANCH   8  10
ATOM      9  C   UNL     1       2.024   2.625  21.791  0.00  0.00    +0.000 C 
ATOM     10  C   UNL     1       1.270   2.758  20.477  0.00  0.00    +0.000 C 
ENDBRANCH   8  10
ENDBRANCH   7   8
ENDBRANCH   1   7
BRANCH   4  11
ATOM     11  C   UNL     1       5.833   6.710  16.686  0.00  0.00    +0.000 C 
BRANCH  11  12
ATOM     12  C   UNL     1       6.157   5.659  15.648  0.00  0.00    +0.000 C 
ATOM     13  N   UNL     1       5.234   4.847  15.186  0.00  0.00    +0.000 NA
ATOM     14  C   UNL     1       5.957   4.025  14.166  0.00  0.00    +0.000 C 
ATOM     15  C   UNL     1       7.261   4.786  13.878  0.00  0.00    +0.000 C 
ATOM     16  N   UNL     1       7.418   5.502  15.119  0.00  0.00    +0.000 N 
ATOM     17  H   UNL     1       8.017   6.322  15.120  0.00  0.00    +0.000 HD
ENDBRANCH  11  12
ENDBRANCH   4  11
TORSDOF 5
ENDMDL
MODEL 5
REMARK VINA RESULT:      -6.3      3.323      6.306
REMARK  Name = 
REMARK  6 active torsions:
REMARK  status: ('A' for Active; 'I' for Inactive)
REMARK    1  A    between atoms: C_1  and  C_2
REMARK    2  A    between atoms: C_2  and  C_3
REMARK    3  A    between atoms: C_3  and  C_4
REMARK    4  A    between atoms: C_4  and  C_5
REMARK    5  A    between atoms: C_8  and  C_9
REMARK    6  A    between atoms: C_9  and  C_10
REMARK                            x       y       z     vdW  Elec       q    Type
REMARK                         _______ _______ _______ _____ _____    ______ ____
ROOT
ATOM      1  C   UNL     1       6.318   4.276  14.229  0.00  0.00    +0.000 A 
ATOM      2  C   UNL     1       5.041   4.107  14.780  0.00  0.00    +0.000 A 
ATOM      3  C   UNL     1       4.780   4.484  16.099  0.00  0.00    +0.000 A 
ATOM      4  C   UNL     1       5.791   5.024  16.903  0.00  0.00    +0.000 A 
ATOM      5  C   UNL     1       7.069   5.190  16.348  0.00  0.00    +0.000 A 
ATOM      6  C   UNL     1       7.322   4.839  15.022  0.00  0.00    +0.000 A 
ENDROOT
BRANCH   1   7
ATOM      7  C   UNL     1       6.631   3.829  12.822  0.00  0.00    +0.000 C 
BRANCH   7   8
ATOM      8  C   UNL     1       5.400   3.265  12.116  0.00  0.00    +0.000 C 
BRANCH   8  10
ATOM      9  C   UNL     1       7.154   1.790  11.109  0.00  0.00    +0.000 C 
ATOM     10  C   UNL     1       5.680   1.915  11.463  0.00  0.00    +0.000 C 
ENDBRANCH   8  10
ENDBRANCH   7   8
ENDBRANCH   1   7
BRANCH   4  11
ATOM     11  C   UNL     1       5.502   5.380  18.345  0.00  0.00    +0.000 C 
BRANCH  11  12
ATOM     12  C   UNL     1       4.742   4.319  19.110  0.00  0.00    +0.000 C 
ATOM     13  N   UNL     1       3.565   4.567  19.635  0.00  0.00    +0.000 NA
ATOM     14  C   UNL     1       3.161   3.259  20.240  0.00  0.00    +0.000 C 
ATOM     15  C   UNL     1       4.092   2.212  19.610  0.00  0.00    +0.000 C 
ATOM     16  N   UNL     1       5.225   3.042  19.284  0.00  0.00    +0.000 N 
ATOM     17  H   UNL     1       5.875   2.701  18.583  0.00  0.00    +0.000 HD
ENDBRANCH  11  12
ENDBRANCH   4  11
TORSDOF 5
ENDMDL
MODEL 6
REMARK VINA RESULT:      -6.2      2.010      2.910
REMARK  Name = 
REMARK  6 active torsions:
REMARK  status: ('A' for Active; 'I' for Inactive)
REMARK    1  A    between atoms: C_1  and  C_2
REMARK    2  A    between atoms: C_2  and  C_3
REMARK    3  A    between atoms: C_3  and  C_4
REMARK    4  A    between atoms: C_4  and  C_5
REMARK    5  A    between atoms: C_8  and  C_9
REMARK    6  A    between atoms: C_9  and  C_10
REMARK                            x       y       z     vdW  Elec       q    Type
REMARK                         _______ _______ _______ _____ _____    ______ ____
ROOT
ATOM      1  C   UNL     1       2.971   5.610  19.666  0.00  0.00    +0.000 A 
ATOM      2  C   UNL     1       4.265   5.078  19.725  0.00  0.00    +0.000 A 
ATOM      3  C   UNL     1       5.233   5.452  18.790  0.00  0.00    +0.000 A 
ATOM      4  C   UNL     1       4.926   6.355  17.765  0.00  0.00    +0.000 A 
ATOM      5  C   UNL     1       3.628   6.885  17.708  0.00  0.00    +0.000 A 
ATOM      6  C   UNL     1       2.670   6.531  18.658  0.00  0.00    +0.000 A 
ENDROOT
BRANCH   1   7
ATOM      7  C   UNL     1       1.900   5.179  20.638  0.00  0.00    +0.000 C 
BRANCH   7   8
ATOM      8  C   UNL     1       1.001   4.094  20.050  0.00  0.00    +0.000 C 
BRANCH   8  10
ATOM      9  C   UNL     1       2.238   2.838  21.829  0.00  0.00    +0.000 C 
ATOM     10  C   UNL     1       1.084   2.791  20.839  0.00  0.00    +0.000 C 
ENDBRANCH   8  10
ENDBRANCH   7   8
ENDBRANCH   1   7
BRANCH   4  11
ATOM     11  C   UNL     1       5.971   6.711  16.731  0.00  0.00    +0.000 C 
BRANCH  11  12
ATOM     12  C   UNL     1       6.228   5.629  15.705  0.00  0.00    +0.000 C 
ATOM     13  N   UNL     1       5.302   4.753  15.390  0.00  0.00    +0.000 NA
ATOM     14  C   UNL     1       5.945   3.920  14.326  0.00  0.00    +0.000 C 
ATOM     15  C   UNL     1       7.162   4.729  13.853  0.00  0.00    +0.000 C 
ATOM     16  N   UNL     1       7.425   5.510  15.037  0.00  0.00    +0.000 N 
ATOM     17  H   UNL     1       7.974   6.357  14.933  0.00  0.00    +0.000 HD
ENDBRANCH  11  12
ENDBRANCH   4  11
TORSDOF 5
ENDMDL
MODEL 7
REMARK VINA RESULT:      -6.2      2.047      2.749
REMARK  Name = 
REMARK  6 active torsions:
REMARK  status: ('A' for Active; 'I' for Inactive)
REMARK    1  A    between atoms: C_1  and  C_2
REMARK    2  A    between atoms: C_2  and  C_3
REMARK    3  A    between atoms: C_3  and  C_4
REMARK    4  A    between atoms: C_4  and  C_5
REMARK    5  A    between atoms: C_8  and  C_9
REMARK    6  A    between atoms: C_9  and  C_10
REMARK                            x       y       z     vdW  Elec       q    Type
REMARK                         _______ _______ _______ _____ _____    ______ ____
ROOT
ATOM      1  C   UNL     1       2.487   3.871  18.017  0.00  0.00    +0.000 A 
ATOM      2  C   UNL     1       2.998   5.153  17.780  0.00  0.00    +0.000 A 
ATOM      3  C   UNL     1       4.295   5.322  17.287  0.00  0.00    +0.000 A 
ATOM      4  C   UNL     1       5.115   4.216  17.034  0.00  0.00    +0.000 A 
ATOM      5  C   UNL     1       4.600   2.934  17.275  0.00  0.00    +0.000 A 
ATOM      6  C   UNL     1       3.296   2.764  17.742  0.00  0.00    +0.000 A 
ENDROOT
BRANCH   1   7
ATOM      7  C   UNL     1       1.108   3.670  18.596  0.00  0.00    +0.000 C 
BRANCH   7   8
ATOM      8  C   UNL     1       1.046   4.070  20.069  0.00  0.00    +0.000 C 
BRANCH   8  10
ATOM      9  C   UNL     1       2.587   2.752  21.537  0.00  0.00    +0.000 C 
ATOM     10  C   UNL     1       1.170   2.865  20.996  0.00  0.00    +0.000 C 
ENDBRANCH   8  10
ENDBRANCH   7   8
ENDBRANCH   1   7
BRANCH   4  11
ATOM     11  C   UNL     1       6.533   4.421  16.548  0.00  0.00    +0.000 C 
BRANCH  11  12
ATOM     12  C   UNL     1       6.671   4.501  15.043  0.00  0.00    +0.000 C 
ATOM     13  N   UNL     1       7.532   5.315  14.479  0.00  0.00    +0.000 NA
ATOM     14  C   UNL     1       7.378   5.041  13.016  0.00  0.00    +0.000 C 
ATOM     15  C   UNL     1       6.623   3.706  12.928  0.00  0.00    +0.000 C 
ATOM     16  N   UNL     1       5.922   3.724  14.188  0.00  0.00    +0.000 N 
ATOM     17  H   UNL     1       5.584   2.841  14.554  0.00  0.00    +0.000 HD
ENDBRANCH  11  12
ENDBRANCH   4  11
TORSDOF 5
ENDMDL
MODEL 8
REMARK VINA RESULT:      -6.2      2.962      6.164
REMARK  Name = 
REMARK  6 active torsions:
REMARK  status: ('A' for Active; 'I' for Inactive)
REMARK    1  A    between atoms: C_1  and  C_2
REMARK    2  A    between atoms: C_2  and  C_3
REMARK    3  A    between atoms: C_3  and  C_4
REMARK    4  A    between atoms: C_4  and  C_5
REMARK    5  A    between atoms: C_8  and  C_9
REMARK    6  A    between atoms: C_9  and  C_10
REMARK                            x       y       z     vdW  Elec       q    Type
REMARK                         _______ _______ _______ _____ _____    ______ ____
ROOT
ATOM      1  C   UNL     1       5.592   4.483  15.817  0.00  0.00    +0.000 A 
ATOM      2  C   UNL     1       5.350   5.862  15.842  0.00  0.00    +0.000 A 
ATOM      3  C   UNL     1       4.445   6.411  16.753  0.00  0.00    +0.000 A 
ATOM      4  C   UNL     1       3.749   5.593  17.651  0.00  0.00    +0.000 A 
ATOM      5  C   UNL     1       3.992   4.211  17.623  0.00  0.00    +0.000 A 
ATOM      6  C   UNL     1       4.916   3.667  16.730  0.00  0.00    +0.000 A 
ENDROOT
BRANCH   1   7
ATOM      7  C   UNL     1       6.528   3.867  14.806  0.00  0.00    +0.000 C 
BRANCH   7   8
ATOM      8  C   UNL     1       6.349   4.478  13.418  0.00  0.00    +0.000 C 
BRANCH   8  10
ATOM      9  C   UNL     1       4.793   3.253  11.887  0.00  0.00    +0.000 C 
ATOM     10  C   UNL     1       6.238   3.413  12.332  0.00  0.00    +0.000 C 
ENDBRANCH   8  10
ENDBRANCH   7   8
ENDBRANCH   1   7
BRANCH   4  11
ATOM     11  C   UNL     1       2.736   6.198  18.598  0.00  0.00    +0.000 C 
BRANCH  11  12
ATOM     12  C   UNL     1       2.165   5.226  19.606  0.00  0.00    +0.000 C 
ATOM     13  N   UNL     1       1.265   4.334  19.261  0.00  0.00    +0.000 NA
ATOM     14  C   UNL     1       1.022   3.565  20.520  0.00  0.00    +0.000 C 
ATOM     15  C   UNL     1       2.200   3.911  21.444  0.00  0.00    +0.000 C 
ATOM     16  N   UNL     1       2.561   5.206  20.924  0.00  0.00    +0.000 N 
ATOM     17  H   UNL     1       3.493   5.554  21.124  0.00  0.00    +0.000 HD
ENDBRANCH  11  12
ENDBRANCH   4  11
TORSDOF 5
ENDMDL
MODEL 9
REMARK VINA RESULT:      -6.1      1.004      1.566
REMARK  Name = 
REMARK  6 active torsions:
REMARK  status: ('A' for Active; 'I' for Inactive)
REMARK    1  A    between atoms: C_1  and  C_2
REMARK    2  A    between atoms: C_2  and  C_3
REMARK    3  A    between atoms: C_3  and  C_4
REMARK    4  A    between atoms: C_4  and  C_5
REMARK    5  A    between atoms: C_8  and  C_9
REMARK    6  A    between atoms: C_9  and  C_10
REMARK                            x       y       z     vdW  Elec       q    Type
REMARK                         _______ _______ _______ _____ _____    ______ ____
ROOT
ATOM      1  C   UNL     1       2.086   3.032  18.213  0.00  0.00    +0.000 A 
ATOM      2  C   UNL     1       3.150   2.131  18.082  0.00  0.00    +0.000 A 
ATOM      3  C   UNL     1       4.357   2.535  17.506  0.00  0.00    +0.000 A 
ATOM      4  C   UNL     1       4.523   3.842  17.034  0.00  0.00    +0.000 A 
ATOM      5  C   UNL     1       3.453   4.741  17.165  0.00  0.00    +0.000 A 
ATOM      6  C   UNL     1       2.258   4.345  17.766  0.00  0.00    +0.000 A 
ENDROOT
BRANCH   1   7
ATOM      7  C   UNL     1       0.758   2.599  18.788  0.00  0.00    +0.000 C 
BRANCH   7   8
ATOM      8  C   UNL     1       0.420   3.355  20.070  0.00  0.00    +0.000 C 
BRANCH   8  10
ATOM      9  C   UNL     1       2.017   2.533  21.814  0.00  0.00    +0.000 C 
ATOM     10  C   UNL     1       1.665   3.686  20.887  0.00  0.00    +0.000 C 
ENDBRANCH   8  10
ENDBRANCH   7   8
ENDBRANCH   1   7
BRANCH   4  11
ATOM     11  C   UNL     1       5.819   4.248  16.367  0.00  0.00    +0.000 C 
BRANCH  11  12
ATOM     12  C   UNL     1       6.738   5.072  17.241  0.00  0.00    +0.000 C 
ATOM     13  N   UNL     1       6.877   6.365  17.059  0.00  0.00    +0.000 NA
ATOM     14  C   UNL     1       7.815   6.782  18.146  0.00  0.00    +0.000 C 
ATOM     15  C   UNL     1       7.822   5.618  19.149  0.00  0.00    +0.000 C 
ATOM     16  N   UNL     1       7.464   4.527  18.277  0.00  0.00    +0.000 N 
ATOM     17  H   UNL     1       7.088   3.685  18.701  0.00  0.00    +0.000 HD
ENDBRANCH  11  12
ENDBRANCH   4  11
TORSDOF 5
ENDMDL
