MODEL 1
REMARK VINA RESULT:      -6.4      0.000      0.000
REMARK  Name = 
REMARK  5 active torsions:
REMARK  status: ('A' for Active; 'I' for Inactive)
REMARK    1  A    between atoms: C_1  and  C_2
REMARK    2  A    between atoms: C_4  and  C_5
REMARK    3  A    between atoms: N_6  and  C_7
REMARK    4  A    between atoms: C_9  and  O_10
REMARK    5  A    between atoms: C_15  and  C_16
REMARK                            x       y       z     vdW  Elec       q    Type
REMARK                         _______ _______ _______ _____ _____    ______ ____
ROOT
ATOM      1  C   UNL     1       0.307   2.480  18.600  0.00  0.00    +0.000 C 
ATOM      2  C   UNL     1       1.590   3.252  18.521  0.00  0.00    +0.000 A 
ATOM      3  C   UNL     1       2.607   2.880  17.660  0.00  0.00    +0.000 A 
ATOM      4  C   UNL     1       3.830   3.588  17.610  0.00  0.00    +0.000 A 
ATOM      5  C   UNL     1       4.860   3.021  16.660  0.00  0.00    +0.000 C 
ATOM      6  N   UNL     1       4.021   4.716  18.394  0.00  0.00    +0.000 N 
ATOM      7  C   UNL     1       2.982   5.134  19.207  0.00  0.00    +0.000 A 
ATOM      8  C   UNL     1       2.956   6.432  19.981  0.00  0.00    +0.000 C 
ATOM      9  C   UNL     1       1.799   4.372  19.299  0.00  0.00    +0.000 A 
ENDROOT
BRANCH   6  10
ATOM     10  C   UNL     1       5.288   5.457  18.332  0.00  0.00    +0.000 A 
ATOM     11  C   UNL     1       6.324   5.086  19.210  0.00  0.00    +0.000 A 
ATOM     12  C   UNL     1       7.523   5.796  19.202  0.00  0.00    +0.000 A 
ATOM     13  C   UNL     1       7.778   6.763  18.246  0.00  0.00    +0.000 A 
ATOM     14  C   UNL     1       6.770   7.121  17.350  0.00  0.00    +0.000 A 
ATOM     15  C   UNL     1       5.503   6.524  17.437  0.00  0.00    +0.000 A 
ATOM     16 CL   UNL     1       4.244   7.265  16.515  0.00  0.00    +0.000 Cl
BRANCH  12  17
ATOM     17  O   UNL     1       8.489   5.565  20.136  0.00  0.00    +0.000 OA
ATOM     18  H   UNL     1       9.242   5.087  19.746  0.00  0.00    +0.000 HD
ENDBRANCH  12  17
ENDBRANCH   6  10
TORSDOF 2
ENDMDL
MODEL 2
REMARK VINA RESULT:      -6.3      2.821      4.998
REMARK  Name = 
REMARK  5 active torsions:
REMARK  status: ('A' for Active; 'I' for Inactive)
REMARK    1  A    between atoms: C_1  and  C_2
REMARK    2  A    between atoms: C_4  and  C_5
REMARK    3  A    between atoms: N_6  and  C_7
REMARK    4  A    between atoms: C_9  and  O_10
REMARK    5  A    between atoms: C_15  and  C_16
REMARK                            x       y       z     vdW  Elec       q    Type
REMARK                         _______ _______ _______ _____ _____    ______ ____
ROOT
ATOM      1  C   UNL     1       7.279   4.704  14.568  0.00  0.00    +0.000 C 
ATOM      2  C   UNL     1       6.375   4.622  15.761  0.00  0.00    +0.000 A 
ATOM      3  C   UNL     1       5.123   4.041  15.682  0.00  0.00    +0.000 A 
ATOM      4  C   UNL     1       4.256   3.994  16.798  0.00  0.00    +0.000 A 
ATOM      5  C   UNL     1       2.902   3.379  16.533  0.00  0.00    +0.000 C 
ATOM      6  N   UNL     1       4.667   4.488  18.028  0.00  0.00    +0.000 N 
ATOM      7  C   UNL     1       5.946   5.009  18.131  0.00  0.00    +0.000 A 
ATOM      8  C   UNL     1       6.612   5.419  19.425  0.00  0.00    +0.000 C 
ATOM      9  C   UNL     1       6.766   5.115  16.988  0.00  0.00    +0.000 A 
ENDROOT
BRANCH   6  10
ATOM     10  C   UNL     1       3.771   4.428  19.189  0.00  0.00    +0.000 A 
ATOM     11  C   UNL     1       3.041   5.582  19.532  0.00  0.00    +0.000 A 
ATOM     12  C   UNL     1       2.213   5.568  20.652  0.00  0.00    +0.000 A 
ATOM     13  C   UNL     1       1.972   4.398  21.352  0.00  0.00    +0.000 A 
ATOM     14  C   UNL     1       2.667   3.239  21.005  0.00  0.00    +0.000 A 
ATOM     15  C   UNL     1       3.619   3.268  19.974  0.00  0.00    +0.000 A 
ATOM     16 CL   UNL     1       4.649   1.888  19.847  0.00  0.00    +0.000 Cl
BRANCH  12  17
ATOM     17  O   UNL     1       1.609   6.704  21.102  0.00  0.00    +0.000 OA
ATOM     18  H   UNL     1       0.744   6.831  20.674  0.00  0.00    +0.000 HD
ENDBRANCH  12  17
ENDBRANCH   6  10
TORSDOF 2
ENDMDL
MODEL 3
REMARK VINA RESULT:      -6.3      2.411      4.634
REMARK  Name = 
REMARK  5 active torsions:
REMARK  status: ('A' for Active; 'I' for Inactive)
REMARK    1  A    between atoms: C_1  and  C_2
REMARK    2  A    between atoms: C_4  and  C_5
REMARK    3  A    between atoms: N_6  and  C_7
REMARK    4  A    between atoms: C_9  and  O_10
REMARK    5  A    between atoms: C_15  and  C_16
REMARK                            x       y       z     vdW  Elec       q    Type
REMARK                         _______ _______ _______ _____ _____    ______ ____
ROOT
ATOM      1  C   UNL     1       7.095   4.672  14.475  0.00  0.00    +0.000 C 
ATOM      2  C   UNL     1       6.218   4.614  15.689  0.00  0.00    +0.000 A 
ATOM      3  C   UNL     1       4.976   4.007  15.657  0.00  0.00    +0.000 A 
ATOM      4  C   UNL     1       4.133   3.983  16.791  0.00  0.00    +0.000 A 
ATOM      5  C   UNL     1       2.786   3.332  16.577  0.00  0.00    +0.000 C 
ATOM      6  N   UNL     1       4.559   4.528  17.995  0.00  0.00    +0.000 N 
ATOM      7  C   UNL     1       5.829   5.077  18.053  0.00  0.00    +0.000 A 
ATOM      8  C   UNL     1       6.513   5.545  19.317  0.00  0.00    +0.000 C 
ATOM      9  C   UNL     1       6.623   5.158  16.890  0.00  0.00    +0.000 A 
ENDROOT
BRANCH   6  10
ATOM     10  C   UNL     1       3.688   4.492  19.176  0.00  0.00    +0.000 A 
ATOM     11  C   UNL     1       3.771   3.381  20.035  0.00  0.00    +0.000 A 
ATOM     12  C   UNL     1       2.928   3.298  21.142  0.00  0.00    +0.000 A 
ATOM     13  C   UNL     1       2.113   4.357  21.503  0.00  0.00    +0.000 A 
ATOM     14  C   UNL     1       2.042   5.478  20.676  0.00  0.00    +0.000 A 
ATOM     15  C   UNL     1       2.769   5.518  19.476  0.00  0.00    +0.000 A 
ATOM     16 CL   UNL     1       2.360   6.784  18.376  0.00  0.00    +0.000 Cl
BRANCH  12  17
ATOM     17  O   UNL     1       2.874   2.174  21.910  0.00  0.00    +0.000 OA
ATOM     18  H   UNL     1       2.640   1.396  21.372  0.00  0.00    +0.000 HD
ENDBRANCH  12  17
ENDBRANCH   6  10
TORSDOF 2
ENDMDL
MODEL 4
REMARK VINA RESULT:      -6.2      2.863      5.172
REMARK  Name = 
REMARK  5 active torsions:
REMARK  status: ('A' for Active; 'I' for Inactive)
REMARK    1  A    between atoms: C_1  and  C_2
REMARK    2  A    between atoms: C_4  and  C_5
REMARK    3  A    between atoms: N_6  and  C_7
REMARK    4  A    between atoms: C_9  and  O_10
REMARK    5  A    between atoms: C_15  and  C_16
REMARK                            x       y       z     vdW  Elec       q    Type
REMARK                         _______ _______ _______ _____ _____    ______ ____
ROOT
ATOM      1  C   UNL     1       7.174   4.612  14.555  0.00  0.00    +0.000 C 
ATOM      2  C   UNL     1       6.292   4.525  15.764  0.00  0.00    +0.000 A 
ATOM      3  C   UNL     1       6.703   5.001  16.996  0.00  0.00    +0.000 A 
ATOM      4  C   UNL     1       5.886   4.887  18.144  0.00  0.00    +0.000 A 
ATOM      5  C   UNL     1       6.503   5.403  19.424  0.00  0.00    +0.000 C 
ATOM      6  N   UNL     1       4.616   4.337  18.051  0.00  0.00    +0.000 N 
ATOM      7  C   UNL     1       4.171   3.921  16.807  0.00  0.00    +0.000 A 
ATOM      8  C   UNL     1       2.762   3.471  16.498  0.00  0.00    +0.000 C 
ATOM      9  C   UNL     1       5.030   3.974  15.690  0.00  0.00    +0.000 A 
ENDROOT
BRANCH   6  10
ATOM     10  C   UNL     1       3.764   4.230  19.242  0.00  0.00    +0.000 A 
ATOM     11  C   UNL     1       3.008   5.353  19.628  0.00  0.00    +0.000 A 
ATOM     12  C   UNL     1       2.222   5.296  20.776  0.00  0.00    +0.000 A 
ATOM     13  C   UNL     1       2.046   4.109  21.466  0.00  0.00    +0.000 A 
ATOM     14  C   UNL     1       2.767   2.979  21.078  0.00  0.00    +0.000 A 
ATOM     15  C   UNL     1       3.680   3.054  20.015  0.00  0.00    +0.000 A 
ATOM     16 CL   UNL     1       4.750   1.713  19.831  0.00  0.00    +0.000 Cl
BRANCH  12  17
ATOM     17  O   UNL     1       1.597   6.404  21.263  0.00  0.00    +0.000 OA
ATOM     18  H   UNL     1       1.534   6.369  22.234  0.00  0.00    +0.000 HD
ENDBRANCH  12  17
ENDBRANCH   6  10
TORSDOF 2
ENDMDL
MODEL 5
REMARK VINA RESULT:      -6.1      2.720      3.687
REMARK  Name = 
REMARK  5 active torsions:
REMARK  status: ('A' for Active; 'I' for Inactive)
REMARK    1  A    between atoms: C_1  and  C_2
REMARK    2  A    between atoms: C_4  and  C_5
REMARK    3  A    between atoms: N_6  and  C_7
REMARK    4  A    between atoms: C_9  and  O_10
REMARK    5  A    between atoms: C_15  and  C_16
REMARK                            x       y       z     vdW  Elec       q    Type
REMARK                         _______ _______ _______ _____ _____    ______ ____
ROOT
ATOM      1  C   UNL     1       0.697   4.114  20.464  0.00  0.00    +0.000 C 
ATOM      2  C   UNL     1       1.834   4.206  19.491  0.00  0.00    +0.000 A 
ATOM      3  C   UNL     1       2.318   5.426  19.057  0.00  0.00    +0.000 A 
ATOM      4  C   UNL     1       3.367   5.513  18.113  0.00  0.00    +0.000 A 
ATOM      5  C   UNL     1       3.742   6.917  17.698  0.00  0.00    +0.000 C 
ATOM      6  N   UNL     1       3.977   4.363  17.633  0.00  0.00    +0.000 N 
ATOM      7  C   UNL     1       3.543   3.140  18.115  0.00  0.00    +0.000 A 
ATOM      8  C   UNL     1       4.213   1.813  17.839  0.00  0.00    +0.000 C 
ATOM      9  C   UNL     1       2.446   3.072  18.999  0.00  0.00    +0.000 A 
ENDROOT
BRANCH   6  10
ATOM     10  C   UNL     1       5.074   4.455  16.661  0.00  0.00    +0.000 A 
ATOM     11  C   UNL     1       4.803   4.153  15.314  0.00  0.00    +0.000 A 
ATOM     12  C   UNL     1       5.832   4.192  14.376  0.00  0.00    +0.000 A 
ATOM     13  C   UNL     1       7.088   4.670  14.708  0.00  0.00    +0.000 A 
ATOM     14  C   UNL     1       7.363   5.002  16.035  0.00  0.00    +0.000 A 
ATOM     15  C   UNL     1       6.385   4.826  17.025  0.00  0.00    +0.000 A 
ATOM     16 CL   UNL     1       6.923   4.946  18.661  0.00  0.00    +0.000 Cl
BRANCH  12  17
ATOM     17  O   UNL     1       5.642   3.763  13.097  0.00  0.00    +0.000 OA
ATOM     18  H   UNL     1       6.494   3.585  12.659  0.00  0.00    +0.000 HD
ENDBRANCH  12  17
ENDBRANCH   6  10
TORSDOF 2
ENDMDL
MODEL 6
REMARK VINA RESULT:      -6.1      2.700      3.232
REMARK  Name = 
REMARK  5 active torsions:
REMARK  status: ('A' for Active; 'I' for Inactive)
REMARK    1  A    between atoms: C_1  and  C_2
REMARK    2  A    between atoms: C_4  and  C_5
REMARK    3  A    between atoms: N_6  and  C_7
REMARK    4  A    between atoms: C_9  and  O_10
REMARK    5  A    between atoms: C_15  and  C_16
REMARK                            x       y       z     vdW  Elec       q    Type
REMARK                         _______ _______ _______ _____ _____    ______ ____
ROOT
ATOM      1  C   UNL     1       0.708   4.305  20.457  0.00  0.00    +0.000 C 
ATOM      2  C   UNL     1       1.837   4.363  19.471  0.00  0.00    +0.000 A 
ATOM      3  C   UNL     1       2.416   3.214  18.965  0.00  0.00    +0.000 A 
ATOM      4  C   UNL     1       3.503   3.269  18.063  0.00  0.00    +0.000 A 
ATOM      5  C   UNL     1       4.061   1.927  17.648  0.00  0.00    +0.000 C 
ATOM      6  N   UNL     1       3.986   4.492  17.618  0.00  0.00    +0.000 N 
ATOM      7  C   UNL     1       3.366   5.645  18.068  0.00  0.00    +0.000 A 
ATOM      8  C   UNL     1       3.644   7.037  17.548  0.00  0.00    +0.000 C 
ATOM      9  C   UNL     1       2.333   5.570  19.025  0.00  0.00    +0.000 A 
ENDROOT
BRANCH   6  10
ATOM     10  C   UNL     1       5.108   4.547  16.672  0.00  0.00    +0.000 A 
ATOM     11  C   UNL     1       4.868   4.204  15.328  0.00  0.00    +0.000 A 
ATOM     12  C   UNL     1       5.920   4.208  14.415  0.00  0.00    +0.000 A 
ATOM     13  C   UNL     1       7.171   4.688  14.764  0.00  0.00    +0.000 A 
ATOM     14  C   UNL     1       7.416   5.058  16.087  0.00  0.00    +0.000 A 
ATOM     15  C   UNL     1       6.411   4.920  17.057  0.00  0.00    +0.000 A 
ATOM     16 CL   UNL     1       6.909   5.087  18.702  0.00  0.00    +0.000 Cl
BRANCH  12  17
ATOM     17  O   UNL     1       5.759   3.740  13.145  0.00  0.00    +0.000 OA
ATOM     18  H   UNL     1       6.226   4.305  12.504  0.00  0.00    +0.000 HD
ENDBRANCH  12  17
ENDBRANCH   6  10
TORSDOF 2
ENDMDL
MODEL 7
REMARK VINA RESULT:      -6.0      2.443      4.817
REMARK  Name = 
REMARK  5 active torsions:
REMARK  status: ('A' for Active; 'I' for Inactive)
REMARK    1  A    between atoms: C_1  and  C_2
REMARK    2  A    between atoms: C_4  and  C_5
REMARK    3  A    between atoms: N_6  and  C_7
REMARK    4  A    between atoms: C_9  and  O_10
REMARK    5  A    between atoms: C_15  and  C_16
REMARK                            x       y       z     vdW  Elec       q    Type
REMARK                         _______ _______ _______ _____ _____    ______ ____
ROOT
ATOM      1  C   UNL     1       7.063   4.483  14.509  0.00  0.00    +0.000 C 
ATOM      2  C   UNL     1       6.190   4.460  15.727  0.00  0.00    +0.000 A 
ATOM      3  C   UNL     1       6.605   5.009  16.926  0.00  0.00    +0.000 A 
ATOM      4  C   UNL     1       5.797   4.956  18.084  0.00  0.00    +0.000 A 
ATOM      5  C   UNL     1       6.417   5.550  19.328  0.00  0.00    +0.000 C 
ATOM      6  N   UNL     1       4.530   4.392  18.032  0.00  0.00    +0.000 N 
ATOM      7  C   UNL     1       4.081   3.902  16.818  0.00  0.00    +0.000 A 
ATOM      8  C   UNL     1       2.672   3.424  16.545  0.00  0.00    +0.000 C 
ATOM      9  C   UNL     1       4.932   3.896  15.693  0.00  0.00    +0.000 A 
ENDROOT
BRANCH   6  10
ATOM     10  C   UNL     1       3.686   4.349  19.233  0.00  0.00    +0.000 A 
ATOM     11  C   UNL     1       3.766   3.218  20.067  0.00  0.00    +0.000 A 
ATOM     12  C   UNL     1       2.949   3.130  21.192  0.00  0.00    +0.000 A 
ATOM     13  C   UNL     1       2.167   4.197  21.596  0.00  0.00    +0.000 A 
ATOM     14  C   UNL     1       2.100   5.338  20.794  0.00  0.00    +0.000 A 
ATOM     15  C   UNL     1       2.798   5.388  19.578  0.00  0.00    +0.000 A 
ATOM     16 CL   UNL     1       2.390   6.686  18.515  0.00  0.00    +0.000 Cl
BRANCH  12  17
ATOM     17  O   UNL     1       2.889   1.990  21.937  0.00  0.00    +0.000 OA
ATOM     18  H   UNL     1       2.001   1.593  21.894  0.00  0.00    +0.000 HD
ENDBRANCH  12  17
ENDBRANCH   6  10
TORSDOF 2
ENDMDL
MODEL 8
REMARK VINA RESULT:      -6.0      0.160      2.107
REMARK  Name = 
REMARK  5 active torsions:
REMARK  status: ('A' for Active; 'I' for Inactive)
REMARK    1  A    between atoms: C_1  and  C_2
REMARK    2  A    between atoms: C_4  and  C_5
REMARK    3  A    between atoms: N_6  and  C_7
REMARK    4  A    between atoms: C_9  and  O_10
REMARK    5  A    between atoms: C_15  and  C_16
REMARK                            x       y       z     vdW  Elec       q    Type
REMARK                         _______ _______ _______ _____ _____    ______ ____
ROOT
ATOM      1  C   UNL     1       0.369   2.304  18.600  0.00  0.00    +0.000 C 
ATOM      2  C   UNL     1       1.640   3.095  18.538  0.00  0.00    +0.000 A 
ATOM      3  C   UNL     1       1.847   4.198  19.347  0.00  0.00    +0.000 A 
ATOM      4  C   UNL     1       3.032   4.965  19.264  0.00  0.00    +0.000 A 
ATOM      5  C   UNL     1       3.080   6.171  20.174  0.00  0.00    +0.000 C 
ATOM      6  N   UNL     1       4.049   4.596  18.396  0.00  0.00    +0.000 N 
ATOM      7  C   UNL     1       3.877   3.454  17.632  0.00  0.00    +0.000 A 
ATOM      8  C   UNL     1       4.947   2.813  16.778  0.00  0.00    +0.000 C 
ATOM      9  C   UNL     1       2.658   2.746  17.675  0.00  0.00    +0.000 A 
ENDROOT
BRANCH   6  10
ATOM     10  C   UNL     1       5.283   5.387  18.319  0.00  0.00    +0.000 A 
ATOM     11  C   UNL     1       6.350   5.049  19.173  0.00  0.00    +0.000 A 
ATOM     12  C   UNL     1       7.519   5.806  19.152  0.00  0.00    +0.000 A 
ATOM     13  C   UNL     1       7.717   6.794  18.203  0.00  0.00    +0.000 A 
ATOM     14  C   UNL     1       6.678   7.121  17.330  0.00  0.00    +0.000 A 
ATOM     15  C   UNL     1       5.438   6.473  17.433  0.00  0.00    +0.000 A 
ATOM     16 CL   UNL     1       4.134   7.172  16.544  0.00  0.00    +0.000 Cl
BRANCH  12  17
ATOM     17  O   UNL     1       8.511   5.604  20.064  0.00  0.00    +0.000 OA
ATOM     18  H   UNL     1       9.223   6.259  19.954  0.00  0.00    +0.000 HD
ENDBRANCH  12  17
ENDBRANCH   6  10
TORSDOF 2
ENDMDL
MODEL 9
REMARK VINA RESULT:      -6.0      2.362      4.148
REMARK  Name = 
REMARK  5 active torsions:
REMARK  status: ('A' for Active; 'I' for Inactive)
REMARK    1  A    between atoms: C_1  and  C_2
REMARK    2  A    between atoms: C_4  and  C_5
REMARK    3  A    between atoms: N_6  and  C_7
REMARK    4  A    between atoms: C_9  and  O_10
REMARK    5  A    between atoms: C_15  and  C_16
REMARK                            x       y       z     vdW  Elec       q    Type
REMARK                         _______ _______ _______ _____ _____    ______ ____
ROOT
ATOM      1  C   UNL     1       0.139   9.082  21.787  0.00  0.00    +0.000 C 
ATOM      2  C   UNL     1       0.977   8.181  20.931  0.00  0.00    +0.000 A 
ATOM      3  C   UNL     1       1.221   6.866  21.285  0.00  0.00    +0.000 A 
ATOM      4  C   UNL     1       2.040   6.026  20.496  0.00  0.00    +0.000 A 
ATOM      5  C   UNL     1       2.255   4.637  21.049  0.00  0.00    +0.000 C 
ATOM      6  N   UNL     1       2.582   6.490  19.306  0.00  0.00    +0.000 N 
ATOM      7  C   UNL     1       2.286   7.784  18.911  0.00  0.00    +0.000 A 
ATOM      8  C   UNL     1       2.640   8.381  17.568  0.00  0.00    +0.000 C 
ATOM      9  C   UNL     1       1.529   8.629  19.749  0.00  0.00    +0.000 A 
ENDROOT
BRANCH   6  10
ATOM     10  C   UNL     1       3.422   5.613  18.481  0.00  0.00    +0.000 A 
ATOM     11  C   UNL     1       4.812   5.838  18.466  0.00  0.00    +0.000 A 
ATOM     12  C   UNL     1       5.630   5.048  17.662  0.00  0.00    +0.000 A 
ATOM     13  C   UNL     1       5.130   3.945  16.992  0.00  0.00    +0.000 A 
ATOM     14  C   UNL     1       3.757   3.692  17.022  0.00  0.00    +0.000 A 
ATOM     15  C   UNL     1       2.893   4.564  17.703  0.00  0.00    +0.000 A 
ATOM     16 CL   UNL     1       1.206   4.354  17.404  0.00  0.00    +0.000 Cl
BRANCH  12  17
ATOM     17  O   UNL     1       6.955   5.329  17.505  0.00  0.00    +0.000 OA
ATOM     18  H   UNL     1       7.487   4.514  17.511  0.00  0.00    +0.000 HD
ENDBRANCH  12  17
ENDBRANCH   6  10
TORSDOF 2
ENDMDL
