MODEL 1
REMARK VINA RESULT:      -8.5      0.000      0.000
REMARK  Name = 
REMARK  10 active torsions:
REMARK  status: ('A' for Active; 'I' for Inactive)
REMARK    1  A    between atoms: C_1  and  C_2
REMARK    2  A    between atoms: C_5  and  N_6
REMARK    3  A    between atoms: N_6  and  S_7
REMARK    4  A    between atoms: S_7  and  C_10
REMARK    5  A    between atoms: C_13  and  C_14
REMARK    6  A    between atoms: C_15  and  N_16
REMARK    7  A    between atoms: C_17  and  C_19
REMARK    8  A    between atoms: C_19  and  O_20
REMARK    9  A    between atoms: O_20  and  C_21
REMARK   10  A    between atoms: C_28  and  C_29
REMARK                            x       y       z     vdW  Elec       q    Type
REMARK                         _______ _______ _______ _____ _____    ______ ____
ROOT
ATOM      1  C   UNL     1       2.326   4.664  18.712  0.00  0.00    +0.000 A 
ATOM      2  C   UNL     1       1.837   4.525  20.015  0.00  0.00    +0.000 A 
ATOM      3  C   UNL     1       1.594   5.653  20.791  0.00  0.00    +0.000 A 
ATOM      4  C   UNL     1       1.851   6.933  20.284  0.00  0.00    +0.000 A 
ATOM      5  C   UNL     1       1.601   8.123  21.169  0.00  0.00    +0.000 C 
ATOM      6  C   UNL     1       2.352   7.062  18.974  0.00  0.00    +0.000 A 
ATOM      7  C   UNL     1       2.616   5.932  18.190  0.00  0.00    +0.000 A 
ENDROOT
BRANCH   6   8
ATOM      8  N   UNL     1       2.690   8.340  18.497  0.00  0.00    +0.000 N 
ATOM      9  C   UNL     1       1.842   9.212  17.863  0.00  0.00    +0.000 C 
ATOM     10  O   UNL     1       2.314  10.220  17.327  0.00  0.00    +0.000 OA
ATOM     11  H   UNL     1       3.653   8.487  18.206  0.00  0.00    +0.000 HD
BRANCH   9  12
ATOM     12  C   UNL     1       0.349   8.902  17.806  0.00  0.00    +0.000 C 
BRANCH  12  13
ATOM     13  O   UNL     1      -0.285  10.068  18.324  0.00  0.00    +0.000 OA
BRANCH  13  14
ATOM     14  C   UNL     1      -1.548  10.347  17.895  0.00  0.00    +0.000 A 
ATOM     15  C   UNL     1      -2.251  11.245  18.702  0.00  0.00    +0.000 A 
ATOM     16  C   UNL     1      -3.519  11.693  18.332  0.00  0.00    +0.000 A 
ATOM     17  C   UNL     1      -4.085  11.256  17.137  0.00  0.00    +0.000 A 
ATOM     18  C   UNL     1      -3.393  10.349  16.334  0.00  0.00    +0.000 A 
ATOM     19  C   UNL     1      -2.130   9.886  16.716  0.00  0.00    +0.000 A 
ENDBRANCH  13  14
ENDBRANCH  12  13
ENDBRANCH   9  12
ENDBRANCH   6   8
BRANCH   1  20
ATOM     20  S   UNL     1       2.654   3.174  17.793  0.00  0.00    +0.000 S 
ATOM     21  O   UNL     1       2.271   3.413  16.422  0.00  0.00    +0.000 OA
ATOM     22  O   UNL     1       2.079   2.070  18.538  0.00  0.00    +0.000 OA
BRANCH  20  23
ATOM     23  N   UNL     1       4.311   2.980  17.872  0.00  0.00    +0.000 N 
ATOM     24  H   UNL     1       4.667   2.032  17.991  0.00  0.00    +0.000 HD
BRANCH  23  29
ATOM     25  C   UNL     1       8.024   7.329  18.181  0.00  0.00    +0.000 C 
ATOM     26  C   UNL     1       7.038   6.202  18.094  0.00  0.00    +0.000 A 
ATOM     27  C   UNL     1       6.538   5.596  19.244  0.00  0.00    +0.000 A 
ATOM     28  C   UNL     1       5.636   4.534  19.144  0.00  0.00    +0.000 A 
ATOM     29  C   UNL     1       5.204   4.080  17.893  0.00  0.00    +0.000 A 
ATOM     30  C   UNL     1       5.701   4.667  16.728  0.00  0.00    +0.000 A 
ATOM     31  C   UNL     1       5.329   4.205  15.346  0.00  0.00    +0.000 C 
ATOM     32  C   UNL     1       6.614   5.730  16.841  0.00  0.00    +0.000 A 
ENDBRANCH  23  29
ENDBRANCH  20  23
ENDBRANCH   1  20
TORSDOF 7
ENDMDL
MODEL 2
REMARK VINA RESULT:      -8.2      3.749      5.863
REMARK  Name = 
REMARK  10 active torsions:
REMARK  status: ('A' for Active; 'I' for Inactive)
REMARK    1  A    between atoms: C_1  and  C_2
REMARK    2  A    between atoms: C_5  and  N_6
REMARK    3  A    between atoms: N_6  and  S_7
REMARK    4  A    between atoms: S_7  and  C_10
REMARK    5  A    between atoms: C_13  and  C_14
REMARK    6  A    between atoms: C_15  and  N_16
REMARK    7  A    between atoms: C_17  and  C_19
REMARK    8  A    between atoms: C_19  and  O_20
REMARK    9  A    between atoms: O_20  and  C_21
REMARK   10  A    between atoms: C_28  and  C_29
REMARK                            x       y       z     vdW  Elec       q    Type
REMARK                         _______ _______ _______ _____ _____    ______ ____
ROOT
ATOM      1  C   UNL     1       0.327  10.310  20.591  0.00  0.00    +0.000 A 
ATOM      2  C   UNL     1       1.007  11.492  20.903  0.00  0.00    +0.000 A 
ATOM      3  C   UNL     1       0.820  12.628  20.122  0.00  0.00    +0.000 A 
ATOM      4  C   UNL     1      -0.033  12.594  19.011  0.00  0.00    +0.000 A 
ATOM      5  C   UNL     1      -0.181  13.838  18.178  0.00  0.00    +0.000 C 
ATOM      6  C   UNL     1      -0.705  11.396  18.701  0.00  0.00    +0.000 A 
ATOM      7  C   UNL     1      -0.511  10.242  19.471  0.00  0.00    +0.000 A 
ENDROOT
BRANCH   6   8
ATOM      8  N   UNL     1      -1.493  11.338  17.539  0.00  0.00    +0.000 N 
ATOM      9  C   UNL     1      -2.859  11.455  17.487  0.00  0.00    +0.000 C 
ATOM     10  O   UNL     1      -3.439  11.196  16.428  0.00  0.00    +0.000 OA
ATOM     11  H   UNL     1      -1.142  10.776  16.768  0.00  0.00    +0.000 HD
BRANCH   9  12
ATOM     12  C   UNL     1      -3.627  11.867  18.738  0.00  0.00    +0.000 C 
BRANCH  12  13
ATOM     13  O   UNL     1      -4.980  11.994  18.310  0.00  0.00    +0.000 OA
BRANCH  13  14
ATOM     14  C   UNL     1      -5.955  11.536  19.145  0.00  0.00    +0.000 A 
ATOM     15  C   UNL     1      -6.418  10.252  18.848  0.00  0.00    +0.000 A 
ATOM     16  C   UNL     1      -7.346   9.620  19.676  0.00  0.00    +0.000 A 
ATOM     17  C   UNL     1      -7.805  10.268  20.819  0.00  0.00    +0.000 A 
ATOM     18  C   UNL     1      -7.357  11.555  21.113  0.00  0.00    +0.000 A 
ATOM     19  C   UNL     1      -6.440  12.195  20.272  0.00  0.00    +0.000 A 
ENDBRANCH  13  14
ENDBRANCH  12  13
ENDBRANCH   9  12
ENDBRANCH   6   8
BRANCH   1  20
ATOM     20  S   UNL     1       0.649   8.885  21.611  0.00  0.00    +0.000 S 
ATOM     21  O   UNL     1      -0.433   7.950  21.408  0.00  0.00    +0.000 OA
ATOM     22  O   UNL     1       0.968   9.365  22.941  0.00  0.00    +0.000 OA
BRANCH  20  23
ATOM     23  N   UNL     1       2.058   8.231  20.998  0.00  0.00    +0.000 N 
ATOM     24  H   UNL     1       2.925   8.735  21.177  0.00  0.00    +0.000 HD
BRANCH  23  29
ATOM     25  C   UNL     1       1.899   3.499  17.776  0.00  0.00    +0.000 C 
ATOM     26  C   UNL     1       1.960   4.739  18.616  0.00  0.00    +0.000 A 
ATOM     27  C   UNL     1       1.743   4.685  19.991  0.00  0.00    +0.000 A 
ATOM     28  C   UNL     1       1.783   5.853  20.757  0.00  0.00    +0.000 A 
ATOM     29  C   UNL     1       2.064   7.088  20.161  0.00  0.00    +0.000 A 
ATOM     30  C   UNL     1       2.273   7.166  18.782  0.00  0.00    +0.000 A 
ATOM     31  C   UNL     1       2.528   8.458  18.057  0.00  0.00    +0.000 C 
ATOM     32  C   UNL     1       2.223   5.984  18.022  0.00  0.00    +0.000 A 
ENDBRANCH  23  29
ENDBRANCH  20  23
ENDBRANCH   1  20
TORSDOF 7
ENDMDL
MODEL 3
REMARK VINA RESULT:      -8.0      2.901      4.382
REMARK  Name = 
REMARK  10 active torsions:
REMARK  status: ('A' for Active; 'I' for Inactive)
REMARK    1  A    between atoms: C_1  and  C_2
REMARK    2  A    between atoms: C_5  and  N_6
REMARK    3  A    between atoms: N_6  and  S_7
REMARK    4  A    between atoms: S_7  and  C_10
REMARK    5  A    between atoms: C_13  and  C_14
REMARK    6  A    between atoms: C_15  and  N_16
REMARK    7  A    between atoms: C_17  and  C_19
REMARK    8  A    between atoms: C_19  and  O_20
REMARK    9  A    between atoms: O_20  and  C_21
REMARK   10  A    between atoms: C_28  and  C_29
REMARK                            x       y       z     vdW  Elec       q    Type
REMARK                         _______ _______ _______ _____ _____    ______ ____
ROOT
ATOM      1  C   UNL     1       5.444   5.042  17.560  0.00  0.00    +0.000 A 
ATOM      2  C   UNL     1       4.881   3.812  17.203  0.00  0.00    +0.000 A 
ATOM      3  C   UNL     1       3.638   3.444  17.706  0.00  0.00    +0.000 A 
ATOM      4  C   UNL     1       2.948   4.289  18.584  0.00  0.00    +0.000 A 
ATOM      5  C   UNL     1       1.620   3.837  19.127  0.00  0.00    +0.000 C 
ATOM      6  C   UNL     1       3.527   5.522  18.944  0.00  0.00    +0.000 A 
ATOM      7  C   UNL     1       4.786   5.894  18.456  0.00  0.00    +0.000 A 
ENDROOT
BRANCH   6   8
ATOM      8  N   UNL     1       2.875   6.331  19.890  0.00  0.00    +0.000 N 
ATOM      9  C   UNL     1       2.209   7.501  19.625  0.00  0.00    +0.000 C 
ATOM     10  O   UNL     1       1.847   8.207  20.571  0.00  0.00    +0.000 OA
ATOM     11  H   UNL     1       3.241   6.321  20.838  0.00  0.00    +0.000 HD
BRANCH   9  12
ATOM     12  C   UNL     1       1.964   7.916  18.178  0.00  0.00    +0.000 C 
BRANCH  12  13
ATOM     13  O   UNL     1       2.081   9.336  18.183  0.00  0.00    +0.000 OA
BRANCH  13  14
ATOM     14  C   UNL     1       0.935  10.066  18.290  0.00  0.00    +0.000 A 
ATOM     15  C   UNL     1       1.112  11.352  18.807  0.00  0.00    +0.000 A 
ATOM     16  C   UNL     1       0.041  12.242  18.883  0.00  0.00    +0.000 A 
ATOM     17  C   UNL     1      -1.214  11.853  18.424  0.00  0.00    +0.000 A 
ATOM     18  C   UNL     1      -1.399  10.567  17.919  0.00  0.00    +0.000 A 
ATOM     19  C   UNL     1      -0.329   9.668  17.861  0.00  0.00    +0.000 A 
ENDBRANCH  13  14
ENDBRANCH  12  13
ENDBRANCH   9  12
ENDBRANCH   6   8
BRANCH   1  20
ATOM     20  S   UNL     1       7.057   5.427  16.910  0.00  0.00    +0.000 S 
ATOM     21  O   UNL     1       7.822   4.202  16.887  0.00  0.00    +0.000 OA
ATOM     22  O   UNL     1       7.548   6.589  17.625  0.00  0.00    +0.000 OA
BRANCH  20  23
ATOM     23  N   UNL     1       6.777   5.926  15.341  0.00  0.00    +0.000 N 
ATOM     24  H   UNL     1       6.674   6.927  15.179  0.00  0.00    +0.000 HD
BRANCH  23  29
ATOM     25  C   UNL     1       5.682   2.257  11.082  0.00  0.00    +0.000 C 
ATOM     26  C   UNL     1       5.984   3.206  12.203  0.00  0.00    +0.000 A 
ATOM     27  C   UNL     1       5.132   3.315  13.300  0.00  0.00    +0.000 A 
ATOM     28  C   UNL     1       5.418   4.220  14.326  0.00  0.00    +0.000 A 
ATOM     29  C   UNL     1       6.571   5.011  14.278  0.00  0.00    +0.000 A 
ATOM     30  C   UNL     1       7.432   4.925  13.183  0.00  0.00    +0.000 A 
ATOM     31  C   UNL     1       8.663   5.776  13.030  0.00  0.00    +0.000 C 
ATOM     32  C   UNL     1       7.130   4.016  12.154  0.00  0.00    +0.000 A 
ENDBRANCH  23  29
ENDBRANCH  20  23
ENDBRANCH   1  20
TORSDOF 7
ENDMDL
MODEL 4
REMARK VINA RESULT:      -8.0      2.917      8.859
REMARK  Name = 
REMARK  10 active torsions:
REMARK  status: ('A' for Active; 'I' for Inactive)
REMARK    1  A    between atoms: C_1  and  C_2
REMARK    2  A    between atoms: C_5  and  N_6
REMARK    3  A    between atoms: N_6  and  S_7
REMARK    4  A    between atoms: S_7  and  C_10
REMARK    5  A    between atoms: C_13  and  C_14
REMARK    6  A    between atoms: C_15  and  N_16
REMARK    7  A    between atoms: C_17  and  C_19
REMARK    8  A    between atoms: C_19  and  O_20
REMARK    9  A    between atoms: O_20  and  C_21
REMARK   10  A    between atoms: C_28  and  C_29
REMARK                            x       y       z     vdW  Elec       q    Type
REMARK                         _______ _______ _______ _____ _____    ______ ____
ROOT
ATOM      1  C   UNL     1       1.083   9.345  19.783  0.00  0.00    +0.000 A 
ATOM      2  C   UNL     1       1.482   9.511  18.452  0.00  0.00    +0.000 A 
ATOM      3  C   UNL     1       2.264   8.541  17.835  0.00  0.00    +0.000 A 
ATOM      4  C   UNL     1       2.673   7.402  18.541  0.00  0.00    +0.000 A 
ATOM      5  C   UNL     1       3.543   6.394  17.842  0.00  0.00    +0.000 C 
ATOM      6  C   UNL     1       2.273   7.249  19.883  0.00  0.00    +0.000 A 
ATOM      7  C   UNL     1       1.500   8.229  20.519  0.00  0.00    +0.000 A 
ENDROOT
BRANCH   6   8
ATOM      8  N   UNL     1       2.753   6.151  20.616  0.00  0.00    +0.000 N 
ATOM      9  C   UNL     1       2.048   5.011  20.911  0.00  0.00    +0.000 C 
ATOM     10  O   UNL     1       2.524   4.210  21.722  0.00  0.00    +0.000 OA
ATOM     11  H   UNL     1       3.463   6.337  21.319  0.00  0.00    +0.000 HD
BRANCH   9  12
ATOM     12  C   UNL     1       0.688   4.779  20.262  0.00  0.00    +0.000 C 
BRANCH  12  13
ATOM     13  O   UNL     1       0.646   3.379  19.996  0.00  0.00    +0.000 OA
BRANCH  13  14
ATOM     14  C   UNL     1       1.571   2.870  19.133  0.00  0.00    +0.000 A 
ATOM     15  C   UNL     1       1.647   3.534  17.906  0.00  0.00    +0.000 A 
ATOM     16  C   UNL     1       2.614   3.181  16.965  0.00  0.00    +0.000 A 
ATOM     17  C   UNL     1       3.525   2.169  17.256  0.00  0.00    +0.000 A 
ATOM     18  C   UNL     1       3.445   1.495  18.474  0.00  0.00    +0.000 A 
ATOM     19  C   UNL     1       2.463   1.836  19.410  0.00  0.00    +0.000 A 
ENDBRANCH  13  14
ENDBRANCH  12  13
ENDBRANCH   9  12
ENDBRANCH   6   8
BRANCH   1  20
ATOM     20  S   UNL     1       0.118  10.649  20.519  0.00  0.00    +0.000 S 
ATOM     21  O   UNL     1       1.031  11.540  21.196  0.00  0.00    +0.000 OA
ATOM     22  O   UNL     1      -0.974  10.026  21.241  0.00  0.00    +0.000 OA
BRANCH  20  23
ATOM     23  N   UNL     1      -0.571  11.452  19.227  0.00  0.00    +0.000 N 
ATOM     24  H   UNL     1       0.051  11.983  18.619  0.00  0.00    +0.000 HD
BRANCH  23  29
ATOM     25  C   UNL     1      -6.232  11.923  18.497  0.00  0.00    +0.000 C 
ATOM     26  C   UNL     1      -4.752  11.781  18.695  0.00  0.00    +0.000 A 
ATOM     27  C   UNL     1      -4.089  12.504  19.684  0.00  0.00    +0.000 A 
ATOM     28  C   UNL     1      -2.706  12.375  19.841  0.00  0.00    +0.000 A 
ATOM     29  C   UNL     1      -1.973  11.505  19.026  0.00  0.00    +0.000 A 
ATOM     30  C   UNL     1      -2.617  10.780  18.022  0.00  0.00    +0.000 A 
ATOM     31  C   UNL     1      -1.896   9.865  17.072  0.00  0.00    +0.000 C 
ATOM     32  C   UNL     1      -4.007  10.923  17.869  0.00  0.00    +0.000 A 
ENDBRANCH  23  29
ENDBRANCH  20  23
ENDBRANCH   1  20
TORSDOF 7
ENDMDL
MODEL 5
REMARK VINA RESULT:      -7.9      3.713      5.681
REMARK  Name = 
REMARK  10 active torsions:
REMARK  status: ('A' for Active; 'I' for Inactive)
REMARK    1  A    between atoms: C_1  and  C_2
REMARK    2  A    between atoms: C_5  and  N_6
REMARK    3  A    between atoms: N_6  and  S_7
REMARK    4  A    between atoms: S_7  and  C_10
REMARK    5  A    between atoms: C_13  and  C_14
REMARK    6  A    between atoms: C_15  and  N_16
REMARK    7  A    between atoms: C_17  and  C_19
REMARK    8  A    between atoms: C_19  and  O_20
REMARK    9  A    between atoms: O_20  and  C_21
REMARK   10  A    between atoms: C_28  and  C_29
REMARK                            x       y       z     vdW  Elec       q    Type
REMARK                         _______ _______ _______ _____ _____    ______ ____
ROOT
ATOM      1  C   UNL     1       0.228  10.191  20.661  0.00  0.00    +0.000 A 
ATOM      2  C   UNL     1       0.552  11.459  21.155  0.00  0.00    +0.000 A 
ATOM      3  C   UNL     1       0.295  12.590  20.388  0.00  0.00    +0.000 A 
ATOM      4  C   UNL     1      -0.272  12.471  19.113  0.00  0.00    +0.000 A 
ATOM      5  C   UNL     1      -0.505  13.719  18.307  0.00  0.00    +0.000 C 
ATOM      6  C   UNL     1      -0.587  11.189  18.621  0.00  0.00    +0.000 A 
ATOM      7  C   UNL     1      -0.316  10.042  19.378  0.00  0.00    +0.000 A 
ENDROOT
BRANCH   6   8
ATOM      8  N   UNL     1      -1.077  11.063  17.310  0.00  0.00    +0.000 N 
ATOM      9  C   UNL     1      -2.391  10.894  16.955  0.00  0.00    +0.000 C 
ATOM     10  O   UNL     1      -2.660  10.606  15.785  0.00  0.00    +0.000 OA
ATOM     11  H   UNL     1      -0.453  10.653  16.620  0.00  0.00    +0.000 HD
BRANCH   9  12
ATOM     12  C   UNL     1      -3.480  11.029  18.015  0.00  0.00    +0.000 C 
BRANCH  12  13
ATOM     13  O   UNL     1      -4.695  11.133  17.277  0.00  0.00    +0.000 OA
BRANCH  13  14
ATOM     14  C   UNL     1      -5.714  11.849  17.833  0.00  0.00    +0.000 A 
ATOM     15  C   UNL     1      -6.085  12.986  17.111  0.00  0.00    +0.000 A 
ATOM     16  C   UNL     1      -7.175  13.759  17.511  0.00  0.00    +0.000 A 
ATOM     17  C   UNL     1      -7.912  13.385  18.631  0.00  0.00    +0.000 A 
ATOM     18  C   UNL     1      -7.538  12.259  19.363  0.00  0.00    +0.000 A 
ATOM     19  C   UNL     1      -6.433  11.495  18.972  0.00  0.00    +0.000 A 
ENDBRANCH  13  14
ENDBRANCH  12  13
ENDBRANCH   9  12
ENDBRANCH   6   8
BRANCH   1  20
ATOM     20  S   UNL     1       0.625   8.786  21.681  0.00  0.00    +0.000 S 
ATOM     21  O   UNL     1      -0.442   7.825  21.536  0.00  0.00    +0.000 OA
ATOM     22  O   UNL     1       0.991   9.290  22.991  0.00  0.00    +0.000 OA
BRANCH  20  23
ATOM     23  N   UNL     1       2.022   8.157  21.015  0.00  0.00    +0.000 N 
ATOM     24  H   UNL     1       2.884   8.682  21.151  0.00  0.00    +0.000 HD
BRANCH  23  29
ATOM     25  C   UNL     1       1.814   3.393  17.843  0.00  0.00    +0.000 C 
ATOM     26  C   UNL     1       1.888   4.640  18.671  0.00  0.00    +0.000 A 
ATOM     27  C   UNL     1       1.626   4.610  20.040  0.00  0.00    +0.000 A 
ATOM     28  C   UNL     1       1.680   5.786  20.793  0.00  0.00    +0.000 A 
ATOM     29  C   UNL     1       2.017   7.003  20.192  0.00  0.00    +0.000 A 
ATOM     30  C   UNL     1       2.273   7.058  18.820  0.00  0.00    +0.000 A 
ATOM     31  C   UNL     1       2.591   8.332  18.088  0.00  0.00    +0.000 C 
ATOM     32  C   UNL     1       2.210   5.869  18.072  0.00  0.00    +0.000 A 
ENDBRANCH  23  29
ENDBRANCH  20  23
ENDBRANCH   1  20
TORSDOF 7
ENDMDL
MODEL 6
REMARK VINA RESULT:      -7.9      0.848      1.388
REMARK  Name = 
REMARK  10 active torsions:
REMARK  status: ('A' for Active; 'I' for Inactive)
REMARK    1  A    between atoms: C_1  and  C_2
REMARK    2  A    between atoms: C_5  and  N_6
REMARK    3  A    between atoms: N_6  and  S_7
REMARK    4  A    between atoms: S_7  and  C_10
REMARK    5  A    between atoms: C_13  and  C_14
REMARK    6  A    between atoms: C_15  and  N_16
REMARK    7  A    between atoms: C_17  and  C_19
REMARK    8  A    between atoms: C_19  and  O_20
REMARK    9  A    between atoms: O_20  and  C_21
REMARK   10  A    between atoms: C_28  and  C_29
REMARK                            x       y       z     vdW  Elec       q    Type
REMARK                         _______ _______ _______ _____ _____    ______ ____
ROOT
ATOM      1  C   UNL     1       2.302   4.676  18.706  0.00  0.00    +0.000 A 
ATOM      2  C   UNL     1       1.866   4.543  20.029  0.00  0.00    +0.000 A 
ATOM      3  C   UNL     1       1.650   5.676  20.806  0.00  0.00    +0.000 A 
ATOM      4  C   UNL     1       1.883   6.954  20.280  0.00  0.00    +0.000 A 
ATOM      5  C   UNL     1       1.664   8.149  21.167  0.00  0.00    +0.000 C 
ATOM      6  C   UNL     1       2.331   7.075  18.950  0.00  0.00    +0.000 A 
ATOM      7  C   UNL     1       2.567   5.940  18.165  0.00  0.00    +0.000 A 
ENDROOT
BRANCH   6   8
ATOM      8  N   UNL     1       2.645   8.351  18.451  0.00  0.00    +0.000 N 
ATOM      9  C   UNL     1       1.750   9.262  17.951  0.00  0.00    +0.000 C 
ATOM     10  O   UNL     1       2.181  10.264  17.372  0.00  0.00    +0.000 OA
ATOM     11  H   UNL     1       3.565   8.472  18.036  0.00  0.00    +0.000 HD
BRANCH   9  12
ATOM     12  C   UNL     1       0.254   9.000  18.090  0.00  0.00    +0.000 C 
BRANCH  12  13
ATOM     13  O   UNL     1      -0.366  10.234  17.735  0.00  0.00    +0.000 OA
BRANCH  13  14
ATOM     14  C   UNL     1      -1.085  10.881  18.695  0.00  0.00    +0.000 A 
ATOM     15  C   UNL     1      -0.455  10.959  19.939  0.00  0.00    +0.000 A 
ATOM     16  C   UNL     1      -1.033  11.675  20.987  0.00  0.00    +0.000 A 
ATOM     17  C   UNL     1      -2.243  12.334  20.788  0.00  0.00    +0.000 A 
ATOM     18  C   UNL     1      -2.883  12.248  19.552  0.00  0.00    +0.000 A 
ATOM     19  C   UNL     1      -2.312  11.514  18.508  0.00  0.00    +0.000 A 
ENDBRANCH  13  14
ENDBRANCH  12  13
ENDBRANCH   9  12
ENDBRANCH   6   8
BRANCH   1  20
ATOM     20  S   UNL     1       2.598   3.179  17.786  0.00  0.00    +0.000 S 
ATOM     21  O   UNL     1       2.192   3.419  16.421  0.00  0.00    +0.000 OA
ATOM     22  O   UNL     1       2.026   2.083  18.543  0.00  0.00    +0.000 OA
BRANCH  20  23
ATOM     23  N   UNL     1       4.254   2.969  17.834  0.00  0.00    +0.000 N 
ATOM     24  H   UNL     1       4.603   2.015  17.920  0.00  0.00    +0.000 HD
BRANCH  23  29
ATOM     25  C   UNL     1       8.004   7.279  18.225  0.00  0.00    +0.000 C 
ATOM     26  C   UNL     1       7.009   6.164  18.116  0.00  0.00    +0.000 A 
ATOM     27  C   UNL     1       6.486   5.555  19.255  0.00  0.00    +0.000 A 
ATOM     28  C   UNL     1       5.574   4.503  19.135  0.00  0.00    +0.000 A 
ATOM     29  C   UNL     1       5.157   4.060  17.875  0.00  0.00    +0.000 A 
ATOM     30  C   UNL     1       5.677   4.649  16.721  0.00  0.00    +0.000 A 
ATOM     31  C   UNL     1       5.322   4.198  15.331  0.00  0.00    +0.000 C 
ATOM     32  C   UNL     1       6.599   5.702  16.854  0.00  0.00    +0.000 A 
ENDBRANCH  23  29
ENDBRANCH  20  23
ENDBRANCH   1  20
TORSDOF 7
ENDMDL
MODEL 7
REMARK VINA RESULT:      -7.8      2.156      3.387
REMARK  Name = 
REMARK  10 active torsions:
REMARK  status: ('A' for Active; 'I' for Inactive)
REMARK    1  A    between atoms: C_1  and  C_2
REMARK    2  A    between atoms: C_5  and  N_6
REMARK    3  A    between atoms: N_6  and  S_7
REMARK    4  A    between atoms: S_7  and  C_10
REMARK    5  A    between atoms: C_13  and  C_14
REMARK    6  A    between atoms: C_15  and  N_16
REMARK    7  A    between atoms: C_17  and  C_19
REMARK    8  A    between atoms: C_19  and  O_20
REMARK    9  A    between atoms: O_20  and  C_21
REMARK   10  A    between atoms: C_28  and  C_29
REMARK                            x       y       z     vdW  Elec       q    Type
REMARK                         _______ _______ _______ _____ _____    ______ ____
ROOT
ATOM      1  C   UNL     1       2.065   7.615  19.263  0.00  0.00    +0.000 A 
ATOM      2  C   UNL     1       2.270   8.173  17.997  0.00  0.00    +0.000 A 
ATOM      3  C   UNL     1       2.061   9.533  17.795  0.00  0.00    +0.000 A 
ATOM      4  C   UNL     1       1.630  10.350  18.848  0.00  0.00    +0.000 A 
ATOM      5  C   UNL     1       1.388  11.810  18.577  0.00  0.00    +0.000 C 
ATOM      6  C   UNL     1       1.418   9.776  20.117  0.00  0.00    +0.000 A 
ATOM      7  C   UNL     1       1.609   8.404  20.327  0.00  0.00    +0.000 A 
ENDROOT
BRANCH   6   8
ATOM      8  N   UNL     1       0.904  10.577  21.151  0.00  0.00    +0.000 N 
ATOM      9  C   UNL     1      -0.396  10.999  21.270  0.00  0.00    +0.000 C 
ATOM     10  O   UNL     1      -0.670  11.853  22.119  0.00  0.00    +0.000 OA
ATOM     11  H   UNL     1       1.545  11.229  21.594  0.00  0.00    +0.000 HD
BRANCH   9  12
ATOM     12  C   UNL     1      -1.460  10.434  20.334  0.00  0.00    +0.000 C 
BRANCH  12  13
ATOM     13  O   UNL     1      -1.847  11.535  19.516  0.00  0.00    +0.000 OA
BRANCH  13  14
ATOM     14  C   UNL     1      -2.520  11.261  18.362  0.00  0.00    +0.000 A 
ATOM     15  C   UNL     1      -1.828  10.441  17.468  0.00  0.00    +0.000 A 
ATOM     16  C   UNL     1      -2.433  10.002  16.290  0.00  0.00    +0.000 A 
ATOM     17  C   UNL     1      -3.746  10.370  16.010  0.00  0.00    +0.000 A 
ATOM     18  C   UNL     1      -4.436  11.199  16.893  0.00  0.00    +0.000 A 
ATOM     19  C   UNL     1      -3.823  11.654  18.064  0.00  0.00    +0.000 A 
ENDBRANCH  13  14
ENDBRANCH  12  13
ENDBRANCH   9  12
ENDBRANCH   6   8
BRANCH   1  20
ATOM     20  S   UNL     1       2.312   5.859  19.436  0.00  0.00    +0.000 S 
ATOM     21  O   UNL     1       1.590   5.210  18.367  0.00  0.00    +0.000 OA
ATOM     22  O   UNL     1       2.046   5.517  20.819  0.00  0.00    +0.000 OA
BRANCH  20  23
ATOM     23  N   UNL     1       3.950   5.634  19.204  0.00  0.00    +0.000 N 
ATOM     24  H   UNL     1       4.568   5.851  19.985  0.00  0.00    +0.000 HD
BRANCH  23  29
ATOM     25  C   UNL     1       6.326   4.365  14.150  0.00  0.00    +0.000 C 
ATOM     26  C   UNL     1       5.686   4.692  15.466  0.00  0.00    +0.000 A 
ATOM     27  C   UNL     1       5.594   6.009  15.911  0.00  0.00    +0.000 A 
ATOM     28  C   UNL     1       5.014   6.295  17.150  0.00  0.00    +0.000 A 
ATOM     29  C   UNL     1       4.497   5.269  17.949  0.00  0.00    +0.000 A 
ATOM     30  C   UNL     1       4.588   3.941  17.526  0.00  0.00    +0.000 A 
ATOM     31  C   UNL     1       4.105   2.777  18.346  0.00  0.00    +0.000 C 
ATOM     32  C   UNL     1       5.181   3.666  16.281  0.00  0.00    +0.000 A 
ENDBRANCH  23  29
ENDBRANCH  20  23
ENDBRANCH   1  20
TORSDOF 7
ENDMDL
MODEL 8
REMARK VINA RESULT:      -7.7      3.005      9.022
REMARK  Name = 
REMARK  10 active torsions:
REMARK  status: ('A' for Active; 'I' for Inactive)
REMARK    1  A    between atoms: C_1  and  C_2
REMARK    2  A    between atoms: C_5  and  N_6
REMARK    3  A    between atoms: N_6  and  S_7
REMARK    4  A    between atoms: S_7  and  C_10
REMARK    5  A    between atoms: C_13  and  C_14
REMARK    6  A    between atoms: C_15  and  N_16
REMARK    7  A    between atoms: C_17  and  C_19
REMARK    8  A    between atoms: C_19  and  O_20
REMARK    9  A    between atoms: O_20  and  C_21
REMARK   10  A    between atoms: C_28  and  C_29
REMARK                            x       y       z     vdW  Elec       q    Type
REMARK                         _______ _______ _______ _____ _____    ______ ____
ROOT
ATOM      1  C   UNL     1       1.003   9.525  19.835  0.00  0.00    +0.000 A 
ATOM      2  C   UNL     1       1.346   9.683  18.488  0.00  0.00    +0.000 A 
ATOM      3  C   UNL     1       2.100   8.708  17.844  0.00  0.00    +0.000 A 
ATOM      4  C   UNL     1       2.535   7.572  18.539  0.00  0.00    +0.000 A 
ATOM      5  C   UNL     1       3.374   6.558  17.810  0.00  0.00    +0.000 C 
ATOM      6  C   UNL     1       2.191   7.427  19.897  0.00  0.00    +0.000 A 
ATOM      7  C   UNL     1       1.446   8.411  20.559  0.00  0.00    +0.000 A 
ENDROOT
BRANCH   6   8
ATOM      8  N   UNL     1       2.698   6.331  20.615  0.00  0.00    +0.000 N 
ATOM      9  C   UNL     1       2.029   5.162  20.878  0.00  0.00    +0.000 C 
ATOM     10  O   UNL     1       2.521   4.361  21.679  0.00  0.00    +0.000 OA
ATOM     11  H   UNL     1       3.392   6.527  21.331  0.00  0.00    +0.000 HD
BRANCH   9  12
ATOM     12  C   UNL     1       0.686   4.897  20.205  0.00  0.00    +0.000 C 
BRANCH  12  13
ATOM     13  O   UNL     1       0.658   3.488  19.992  0.00  0.00    +0.000 OA
BRANCH  13  14
ATOM     14  C   UNL     1       1.583   2.957  19.141  0.00  0.00    +0.000 A 
ATOM     15  C   UNL     1       1.675   3.605  17.907  0.00  0.00    +0.000 A 
ATOM     16  C   UNL     1       2.644   3.229  16.976  0.00  0.00    +0.000 A 
ATOM     17  C   UNL     1       3.540   2.210  17.286  0.00  0.00    +0.000 A 
ATOM     18  C   UNL     1       3.444   1.552  18.511  0.00  0.00    +0.000 A 
ATOM     19  C   UNL     1       2.460   1.916  19.436  0.00  0.00    +0.000 A 
ENDBRANCH  13  14
ENDBRANCH  12  13
ENDBRANCH   9  12
ENDBRANCH   6   8
BRANCH   1  20
ATOM     20  S   UNL     1       0.072  10.835  20.604  0.00  0.00    +0.000 S 
ATOM     21  O   UNL     1       1.009  11.691  21.291  0.00  0.00    +0.000 OA
ATOM     22  O   UNL     1      -1.030  10.222  21.321  0.00  0.00    +0.000 OA
BRANCH  20  23
ATOM     23  N   UNL     1      -0.608  11.678  19.333  0.00  0.00    +0.000 N 
ATOM     24  H   UNL     1      -0.007  12.325  18.824  0.00  0.00    +0.000 HD
BRANCH  23  29
ATOM     25  C   UNL     1      -6.160  11.119  18.044  0.00  0.00    +0.000 C 
ATOM     26  C   UNL     1      -4.706  11.283  18.372  0.00  0.00    +0.000 A 
ATOM     27  C   UNL     1      -3.741  10.474  17.776  0.00  0.00    +0.000 A 
ATOM     28  C   UNL     1      -2.393  10.626  18.109  0.00  0.00    +0.000 A 
ATOM     29  C   UNL     1      -1.989  11.605  19.024  0.00  0.00    +0.000 A 
ATOM     30  C   UNL     1      -2.942  12.419  19.641  0.00  0.00    +0.000 A 
ATOM     31  C   UNL     1      -2.598  13.457  20.672  0.00  0.00    +0.000 C 
ATOM     32  C   UNL     1      -4.296  12.251  19.303  0.00  0.00    +0.000 A 
ENDBRANCH  23  29
ENDBRANCH  20  23
ENDBRANCH   1  20
TORSDOF 7
ENDMDL
MODEL 9
REMARK VINA RESULT:      -7.7      2.673      8.405
REMARK  Name = 
REMARK  10 active torsions:
REMARK  status: ('A' for Active; 'I' for Inactive)
REMARK    1  A    between atoms: C_1  and  C_2
REMARK    2  A    between atoms: C_5  and  N_6
REMARK    3  A    between atoms: N_6  and  S_7
REMARK    4  A    between atoms: S_7  and  C_10
REMARK    5  A    between atoms: C_13  and  C_14
REMARK    6  A    between atoms: C_15  and  N_16
REMARK    7  A    between atoms: C_17  and  C_19
REMARK    8  A    between atoms: C_19  and  O_20
REMARK    9  A    between atoms: O_20  and  C_21
REMARK   10  A    between atoms: C_28  and  C_29
REMARK                            x       y       z     vdW  Elec       q    Type
REMARK                         _______ _______ _______ _____ _____    ______ ____
ROOT
ATOM      1  C   UNL     1       3.048   6.145  18.827  0.00  0.00    +0.000 A 
ATOM      2  C   UNL     1       2.194   5.116  19.236  0.00  0.00    +0.000 A 
ATOM      3  C   UNL     1       2.716   3.868  19.561  0.00  0.00    +0.000 A 
ATOM      4  C   UNL     1       4.092   3.627  19.466  0.00  0.00    +0.000 A 
ATOM      5  C   UNL     1       4.608   2.254  19.799  0.00  0.00    +0.000 C 
ATOM      6  C   UNL     1       4.942   4.668  19.045  0.00  0.00    +0.000 A 
ATOM      7  C   UNL     1       4.425   5.923  18.699  0.00  0.00    +0.000 A 
ENDROOT
BRANCH   6   8
ATOM      8  N   UNL     1       6.311   4.402  18.868  0.00  0.00    +0.000 N 
ATOM      9  C   UNL     1       7.027   4.603  17.715  0.00  0.00    +0.000 C 
ATOM     10  O   UNL     1       8.173   4.149  17.639  0.00  0.00    +0.000 OA
ATOM     11  H   UNL     1       6.713   3.653  19.425  0.00  0.00    +0.000 HD
BRANCH   9  12
ATOM     12  C   UNL     1       6.383   5.347  16.550  0.00  0.00    +0.000 C 
BRANCH  12  13
ATOM     13  O   UNL     1       7.406   5.431  15.562  0.00  0.00    +0.000 OA
BRANCH  13  14
ATOM     14  C   UNL     1       7.160   4.867  14.345  0.00  0.00    +0.000 A 
ATOM     15  C   UNL     1       6.064   4.001  14.318  0.00  0.00    +0.000 A 
ATOM     16  C   UNL     1       5.639   3.428  13.119  0.00  0.00    +0.000 A 
ATOM     17  C   UNL     1       6.303   3.734  11.934  0.00  0.00    +0.000 A 
ATOM     18  C   UNL     1       7.405   4.588  11.958  0.00  0.00    +0.000 A 
ATOM     19  C   UNL     1       7.842   5.147  13.163  0.00  0.00    +0.000 A 
ENDBRANCH  13  14
ENDBRANCH  12  13
ENDBRANCH   9  12
ENDBRANCH   6   8
BRANCH   1  20
ATOM     20  S   UNL     1       2.303   7.703  18.386  0.00  0.00    +0.000 S 
ATOM     21  O   UNL     1       1.163   7.420  17.547  0.00  0.00    +0.000 OA
ATOM     22  O   UNL     1       3.364   8.575  17.920  0.00  0.00    +0.000 OA
BRANCH  20  23
ATOM     23  N   UNL     1       1.770   8.345  19.833  0.00  0.00    +0.000 N 
ATOM     24  H   UNL     1       2.077   7.888  20.690  0.00  0.00    +0.000 HD
BRANCH  23  29
ATOM     25  C   UNL     1      -2.100  12.566  19.842  0.00  0.00    +0.000 C 
ATOM     26  C   UNL     1      -1.074  11.473  19.848  0.00  0.00    +0.000 A 
ATOM     27  C   UNL     1      -0.529  10.995  18.658  0.00  0.00    +0.000 A 
ATOM     28  C   UNL     1       0.411   9.961  18.680  0.00  0.00    +0.000 A 
ATOM     29  C   UNL     1       0.836   9.409  19.893  0.00  0.00    +0.000 A 
ATOM     30  C   UNL     1       0.296   9.867  21.096  0.00  0.00    +0.000 A 
ATOM     31  C   UNL     1       0.659   9.293  22.438  0.00  0.00    +0.000 C 
ATOM     32  C   UNL     1      -0.655  10.903  21.060  0.00  0.00    +0.000 A 
ENDBRANCH  23  29
ENDBRANCH  20  23
ENDBRANCH   1  20
TORSDOF 7
ENDMDL
