MODEL 1
REMARK VINA RESULT:      -8.4      0.000      0.000
REMARK  Name = 
REMARK  3 active torsions:
REMARK  status: ('A' for Active; 'I' for Inactive)
REMARK    1  A    between atoms: C_1  and  O_2
REMARK    2  A    between atoms: O_2  and  C_3
REMARK    3  A    between atoms: C_7  and  N_8
REMARK                            x       y       z     vdW  Elec       q    Type
REMARK                         _______ _______ _______ _____ _____    ______ ____
ROOT
ATOM      1  N   UNL     1       1.607   9.167  17.843  0.00  0.00    +0.000 N 
ATOM      2  C   UNL     1       2.482   8.107  18.085  0.00  0.00    +0.000 A 
ATOM      3  N   UNL     1       3.524   8.046  17.236  0.00  0.00    +0.000 NA
ATOM      4  C   UNL     1       4.217   6.900  17.201  0.00  0.00    +0.000 A 
ATOM      5  C   UNL     1       3.875   5.805  17.947  0.00  0.00    +0.000 A 
ATOM      6  C   UNL     1       2.878   5.993  18.891  0.00  0.00    +0.000 A 
ATOM      7  N   UNL     1       2.191   7.150  18.990  0.00  0.00    +0.000 NA
ATOM      8  C   UNL     1       2.373   4.811  19.619  0.00  0.00    +0.000 A 
ATOM      9  C   UNL     1       2.320   4.733  21.014  0.00  0.00    +0.000 A 
ATOM     10  C   UNL     1       1.898   3.551  21.637  0.00  0.00    +0.000 A 
ATOM     11  C   UNL     1       1.419   2.478  20.880  0.00  0.00    +0.000 A 
ATOM     12  C   UNL     1       1.499   2.521  19.493  0.00  0.00    +0.000 A 
ATOM     13  C   UNL     1       2.086   3.632  18.888  0.00  0.00    +0.000 A 
ATOM     14  S   UNL     1       2.866   3.397  17.270  0.00  0.00    +0.000 S 
ATOM     15  C   UNL     1       4.355   4.419  17.665  0.00  0.00    +0.000 C 
ATOM     16  H   UNL     1       1.933   9.704  17.052  0.00  0.00    +0.000 HD
ENDROOT
BRANCH   1  21
ATOM     17  C   UNL     1       0.099  10.611  20.911  0.00  0.00    +0.000 A 
ATOM     18  C   UNL     1      -1.104  11.079  20.402  0.00  0.00    +0.000 A 
ATOM     19  C   UNL     1      -1.411  10.947  19.054  0.00  0.00    +0.000 A 
ATOM     20  C   UNL     1      -0.503  10.330  18.198  0.00  0.00    +0.000 A 
ATOM     21  C   UNL     1       0.700   9.815  18.688  0.00  0.00    +0.000 A 
ATOM     22  C   UNL     1       1.001   9.971  20.052  0.00  0.00    +0.000 A 
BRANCH  17  24
ATOM     23  C   UNL     1      -0.474  10.027  23.158  0.00  0.00    +0.000 C 
ATOM     24  O   UNL     1       0.271  10.826  22.256  0.00  0.00    +0.000 OA
ENDBRANCH  17  24
ENDBRANCH   1  21
TORSDOF 2
ENDMDL
MODEL 2
REMARK VINA RESULT:      -8.2      1.222      1.961
REMARK  Name = 
REMARK  3 active torsions:
REMARK  status: ('A' for Active; 'I' for Inactive)
REMARK    1  A    between atoms: C_1  and  O_2
REMARK    2  A    between atoms: O_2  and  C_3
REMARK    3  A    between atoms: C_7  and  N_8
REMARK                            x       y       z     vdW  Elec       q    Type
REMARK                         _______ _______ _______ _____ _____    ______ ____
ROOT
ATOM      1  N   UNL     1       1.730   9.103  17.645  0.00  0.00    +0.000 N 
ATOM      2  C   UNL     1       2.588   8.047  17.953  0.00  0.00    +0.000 A 
ATOM      3  N   UNL     1       3.667   7.960  17.153  0.00  0.00    +0.000 NA
ATOM      4  C   UNL     1       4.355   6.810  17.180  0.00  0.00    +0.000 A 
ATOM      5  C   UNL     1       3.975   5.737  17.939  0.00  0.00    +0.000 A 
ATOM      6  C   UNL     1       2.937   5.953  18.831  0.00  0.00    +0.000 A 
ATOM      7  N   UNL     1       2.252   7.114  18.869  0.00  0.00    +0.000 NA
ATOM      8  C   UNL     1       2.395   4.792  19.566  0.00  0.00    +0.000 A 
ATOM      9  C   UNL     1       2.279   4.752  20.959  0.00  0.00    +0.000 A 
ATOM     10  C   UNL     1       1.824   3.587  21.594  0.00  0.00    +0.000 A 
ATOM     11  C   UNL     1       1.374   2.497  20.843  0.00  0.00    +0.000 A 
ATOM     12  C   UNL     1       1.517   2.503  19.461  0.00  0.00    +0.000 A 
ATOM     13  C   UNL     1       2.136   3.596  18.854  0.00  0.00    +0.000 A 
ATOM     14  S   UNL     1       2.986   3.315  17.280  0.00  0.00    +0.000 S 
ATOM     15  C   UNL     1       4.461   4.343  17.715  0.00  0.00    +0.000 C 
ATOM     16  H   UNL     1       2.093   9.618  16.854  0.00  0.00    +0.000 HD
ENDROOT
BRANCH   1  21
ATOM     17  C   UNL     1      -1.465  10.659  18.713  0.00  0.00    +0.000 A 
ATOM     18  C   UNL     1      -1.103  11.140  19.962  0.00  0.00    +0.000 A 
ATOM     19  C   UNL     1       0.174  10.934  20.467  0.00  0.00    +0.000 A 
ATOM     20  C   UNL     1       1.111  10.240  19.707  0.00  0.00    +0.000 A 
ATOM     21  C   UNL     1       0.789   9.776  18.430  0.00  0.00    +0.000 A 
ATOM     22  C   UNL     1      -0.514   9.980  17.941  0.00  0.00    +0.000 A 
BRANCH  17  24
ATOM     23  C   UNL     1      -3.446   9.958  17.574  0.00  0.00    +0.000 C 
ATOM     24  O   UNL     1      -2.763  10.923  18.354  0.00  0.00    +0.000 OA
ENDBRANCH  17  24
ENDBRANCH   1  21
TORSDOF 2
ENDMDL
MODEL 3
REMARK VINA RESULT:      -8.0      1.359      2.008
REMARK  Name = 
REMARK  3 active torsions:
REMARK  status: ('A' for Active; 'I' for Inactive)
REMARK    1  A    between atoms: C_1  and  O_2
REMARK    2  A    between atoms: O_2  and  C_3
REMARK    3  A    between atoms: C_7  and  N_8
REMARK                            x       y       z     vdW  Elec       q    Type
REMARK                         _______ _______ _______ _____ _____    ______ ____
ROOT
ATOM      1  N   UNL     1       0.896   9.529  19.547  0.00  0.00    +0.000 N 
ATOM      2  C   UNL     1       1.800   8.492  19.314  0.00  0.00    +0.000 A 
ATOM      3  N   UNL     1       2.577   8.671  18.229  0.00  0.00    +0.000 NA
ATOM      4  C   UNL     1       3.231   7.597  17.764  0.00  0.00    +0.000 A 
ATOM      5  C   UNL     1       3.097   6.352  18.314  0.00  0.00    +0.000 A 
ATOM      6  C   UNL     1       2.388   6.280  19.503  0.00  0.00    +0.000 A 
ATOM      7  N   UNL     1       1.758   7.349  20.030  0.00  0.00    +0.000 NA
ATOM      8  C   UNL     1       2.092   4.944  20.059  0.00  0.00    +0.000 A 
ATOM      9  C   UNL     1       2.413   4.569  21.368  0.00  0.00    +0.000 A 
ATOM     10  C   UNL     1       2.168   3.259  21.804  0.00  0.00    +0.000 A 
ATOM     11  C   UNL     1       1.500   2.348  20.982  0.00  0.00    +0.000 A 
ATOM     12  C   UNL     1       1.207   2.688  19.667  0.00  0.00    +0.000 A 
ATOM     13  C   UNL     1       1.615   3.933  19.189  0.00  0.00    +0.000 A 
ATOM     14  S   UNL     1       1.934   4.091  17.413  0.00  0.00    +0.000 S 
ATOM     15  C   UNL     1       3.479   5.087  17.619  0.00  0.00    +0.000 C 
ATOM     16  H   UNL     1       1.001  10.239  18.836  0.00  0.00    +0.000 HD
ENDROOT
BRANCH   1  21
ATOM     17  C   UNL     1      -1.303  11.428  21.856  0.00  0.00    +0.000 A 
ATOM     18  C   UNL     1      -1.034  10.775  23.050  0.00  0.00    +0.000 A 
ATOM     19  C   UNL     1      -0.155   9.701  23.098  0.00  0.00    +0.000 A 
ATOM     20  C   UNL     1       0.471   9.272  21.932  0.00  0.00    +0.000 A 
ATOM     21  C   UNL     1       0.250   9.932  20.720  0.00  0.00    +0.000 A 
ATOM     22  C   UNL     1      -0.654  11.008  20.688  0.00  0.00    +0.000 A 
BRANCH  17  24
ATOM     23  C   UNL     1      -2.982  12.545  23.139  0.00  0.00    +0.000 C 
ATOM     24  O   UNL     1      -2.203  12.459  21.959  0.00  0.00    +0.000 OA
ENDBRANCH  17  24
ENDBRANCH   1  21
TORSDOF 2
ENDMDL
MODEL 4
REMARK VINA RESULT:      -7.5      1.170      1.755
REMARK  Name = 
REMARK  3 active torsions:
REMARK  status: ('A' for Active; 'I' for Inactive)
REMARK    1  A    between atoms: C_1  and  O_2
REMARK    2  A    between atoms: O_2  and  C_3
REMARK    3  A    between atoms: C_7  and  N_8
REMARK                            x       y       z     vdW  Elec       q    Type
REMARK                         _______ _______ _______ _____ _____    ______ ____
ROOT
ATOM      1  N   UNL     1       1.680   9.301  18.161  0.00  0.00    +0.000 N 
ATOM      2  C   UNL     1       2.501   8.178  18.265  0.00  0.00    +0.000 A 
ATOM      3  N   UNL     1       3.433   8.084  17.298  0.00  0.00    +0.000 NA
ATOM      4  C   UNL     1       4.036   6.897  17.145  0.00  0.00    +0.000 A 
ATOM      5  C   UNL     1       3.707   5.798  17.890  0.00  0.00    +0.000 A 
ATOM      6  C   UNL     1       2.839   6.011  18.949  0.00  0.00    +0.000 A 
ATOM      7  N   UNL     1       2.250   7.205  19.166  0.00  0.00    +0.000 NA
ATOM      8  C   UNL     1       2.341   4.836  19.692  0.00  0.00    +0.000 A 
ATOM      9  C   UNL     1       2.442   4.706  21.081  0.00  0.00    +0.000 A 
ATOM     10  C   UNL     1       2.014   3.529  21.710  0.00  0.00    +0.000 A 
ATOM     11  C   UNL     1       1.378   2.521  20.979  0.00  0.00    +0.000 A 
ATOM     12  C   UNL     1       1.302   2.614  19.595  0.00  0.00    +0.000 A 
ATOM     13  C   UNL     1       1.891   3.709  18.962  0.00  0.00    +0.000 A 
ATOM     14  S   UNL     1       2.463   3.489  17.258  0.00  0.00    +0.000 S 
ATOM     15  C   UNL     1       4.055   4.396  17.509  0.00  0.00    +0.000 C 
ATOM     16  H   UNL     1       1.949   9.847  17.355  0.00  0.00    +0.000 HD
ENDROOT
BRANCH   1  21
ATOM     17  C   UNL     1      -0.178  12.007  19.892  0.00  0.00    +0.000 A 
ATOM     18  C   UNL     1      -0.566  11.344  21.047  0.00  0.00    +0.000 A 
ATOM     19  C   UNL     1      -0.244  10.009  21.250  0.00  0.00    +0.000 A 
ATOM     20  C   UNL     1       0.485   9.322  20.283  0.00  0.00    +0.000 A 
ATOM     21  C   UNL     1       0.922   9.972  19.126  0.00  0.00    +0.000 A 
ATOM     22  C   UNL     1       0.574  11.320  18.931  0.00  0.00    +0.000 A 
BRANCH  17  24
ATOM     23  C   UNL     1      -0.233  14.060  18.668  0.00  0.00    +0.000 C 
ATOM     24  O   UNL     1      -0.582  13.317  19.823  0.00  0.00    +0.000 OA
ENDBRANCH  17  24
ENDBRANCH   1  21
TORSDOF 2
ENDMDL
MODEL 5
REMARK VINA RESULT:      -7.4      1.282      1.362
REMARK  Name = 
REMARK  3 active torsions:
REMARK  status: ('A' for Active; 'I' for Inactive)
REMARK    1  A    between atoms: C_1  and  O_2
REMARK    2  A    between atoms: O_2  and  C_3
REMARK    3  A    between atoms: C_7  and  N_8
REMARK                            x       y       z     vdW  Elec       q    Type
REMARK                         _______ _______ _______ _____ _____    ______ ____
ROOT
ATOM      1  N   UNL     1       2.255   8.997  17.459  0.00  0.00    +0.000 N 
ATOM      2  C   UNL     1       2.981   7.862  17.822  0.00  0.00    +0.000 A 
ATOM      3  N   UNL     1       4.061   7.628  17.053  0.00  0.00    +0.000 NA
ATOM      4  C   UNL     1       4.614   6.410  17.132  0.00  0.00    +0.000 A 
ATOM      5  C   UNL     1       4.098   5.412  17.913  0.00  0.00    +0.000 A 
ATOM      6  C   UNL     1       3.072   5.773  18.771  0.00  0.00    +0.000 A 
ATOM      7  N   UNL     1       2.522   7.004  18.756  0.00  0.00    +0.000 NA
ATOM      8  C   UNL     1       2.386   4.705  19.527  0.00  0.00    +0.000 A 
ATOM      9  C   UNL     1       2.235   4.724  20.917  0.00  0.00    +0.000 A 
ATOM     10  C   UNL     1       1.637   3.640  21.575  0.00  0.00    +0.000 A 
ATOM     11  C   UNL     1       1.083   2.583  20.847  0.00  0.00    +0.000 A 
ATOM     12  C   UNL     1       1.257   2.526  19.470  0.00  0.00    +0.000 A 
ATOM     13  C   UNL     1       2.008   3.522  18.846  0.00  0.00    +0.000 A 
ATOM     14  S   UNL     1       2.857   3.096  17.303  0.00  0.00    +0.000 S 
ATOM     15  C   UNL     1       4.428   3.965  17.744  0.00  0.00    +0.000 C 
ATOM     16  H   UNL     1       2.692   9.441  16.663  0.00  0.00    +0.000 HD
ENDROOT
BRANCH   1  21
ATOM     17  C   UNL     1       0.950  11.845  19.448  0.00  0.00    +0.000 A 
ATOM     18  C   UNL     1      -0.339  11.403  19.701  0.00  0.00    +0.000 A 
ATOM     19  C   UNL     1      -0.792  10.188  19.203  0.00  0.00    +0.000 A 
ATOM     20  C   UNL     1       0.062   9.396  18.440  0.00  0.00    +0.000 A 
ATOM     21  C   UNL     1       1.378   9.797  18.198  0.00  0.00    +0.000 A 
ATOM     22  C   UNL     1       1.814  11.037  18.698  0.00  0.00    +0.000 A 
BRANCH  17  24
ATOM     23  C   UNL     1       0.675  13.402  21.241  0.00  0.00    +0.000 C 
ATOM     24  O   UNL     1       1.250  13.070  19.989  0.00  0.00    +0.000 OA
ENDBRANCH  17  24
ENDBRANCH   1  21
TORSDOF 2
ENDMDL
MODEL 6
REMARK VINA RESULT:      -7.4      5.691      8.390
REMARK  Name = 
REMARK  3 active torsions:
REMARK  status: ('A' for Active; 'I' for Inactive)
REMARK    1  A    between atoms: C_1  and  O_2
REMARK    2  A    between atoms: O_2  and  C_3
REMARK    3  A    between atoms: C_7  and  N_8
REMARK                            x       y       z     vdW  Elec       q    Type
REMARK                         _______ _______ _______ _____ _____    ______ ____
ROOT
ATOM      1  N   UNL     1       6.601   4.352  13.793  0.00  0.00    +0.000 N 
ATOM      2  C   UNL     1       5.968   4.886  14.915  0.00  0.00    +0.000 A 
ATOM      3  N   UNL     1       6.582   5.966  15.435  0.00  0.00    +0.000 NA
ATOM      4  C   UNL     1       6.225   6.334  16.673  0.00  0.00    +0.000 A 
ATOM      5  C   UNL     1       5.317   5.635  17.420  0.00  0.00    +0.000 A 
ATOM      6  C   UNL     1       4.635   4.621  16.767  0.00  0.00    +0.000 A 
ATOM      7  N   UNL     1       4.931   4.254  15.503  0.00  0.00    +0.000 NA
ATOM      8  C   UNL     1       3.753   3.746  17.565  0.00  0.00    +0.000 A 
ATOM      9  C   UNL     1       2.410   3.516  17.250  0.00  0.00    +0.000 A 
ATOM     10  C   UNL     1       1.613   2.732  18.095  0.00  0.00    +0.000 A 
ATOM     11  C   UNL     1       2.172   2.077  19.196  0.00  0.00    +0.000 A 
ATOM     12  C   UNL     1       3.494   2.323  19.549  0.00  0.00    +0.000 A 
ATOM     13  C   UNL     1       4.228   3.245  18.802  0.00  0.00    +0.000 A 
ATOM     14  S   UNL     1       5.582   4.115  19.633  0.00  0.00    +0.000 S 
ATOM     15  C   UNL     1       5.179   5.765  18.902  0.00  0.00    +0.000 C 
ATOM     16  H   UNL     1       7.426   4.895  13.576  0.00  0.00    +0.000 HD
ENDROOT
BRANCH   1  21
ATOM     17  C   UNL     1       4.304   2.999  11.211  0.00  0.00    +0.000 A 
ATOM     18  C   UNL     1       5.079   1.966  10.704  0.00  0.00    +0.000 A 
ATOM     19  C   UNL     1       6.359   1.727  11.186  0.00  0.00    +0.000 A 
ATOM     20  C   UNL     1       6.875   2.532  12.198  0.00  0.00    +0.000 A 
ATOM     21  C   UNL     1       6.106   3.556  12.755  0.00  0.00    +0.000 A 
ATOM     22  C   UNL     1       4.817   3.793  12.244  0.00  0.00    +0.000 A 
BRANCH  17  24
ATOM     23  C   UNL     1       2.921   4.070   9.582  0.00  0.00    +0.000 C 
ATOM     24  O   UNL     1       3.069   3.125  10.627  0.00  0.00    +0.000 OA
ENDBRANCH  17  24
ENDBRANCH   1  21
TORSDOF 2
ENDMDL
MODEL 7
REMARK VINA RESULT:      -7.3      5.904      8.600
REMARK  Name = 
REMARK  3 active torsions:
REMARK  status: ('A' for Active; 'I' for Inactive)
REMARK    1  A    between atoms: C_1  and  O_2
REMARK    2  A    between atoms: O_2  and  C_3
REMARK    3  A    between atoms: C_7  and  N_8
REMARK                            x       y       z     vdW  Elec       q    Type
REMARK                         _______ _______ _______ _____ _____    ______ ____
ROOT
ATOM      1  N   UNL     1       6.418   4.286  13.866  0.00  0.00    +0.000 N 
ATOM      2  C   UNL     1       5.853   4.863  15.004  0.00  0.00    +0.000 A 
ATOM      3  N   UNL     1       6.574   5.873  15.527  0.00  0.00    +0.000 NA
ATOM      4  C   UNL     1       6.270   6.257  16.774  0.00  0.00    +0.000 A 
ATOM      5  C   UNL     1       5.308   5.639  17.525  0.00  0.00    +0.000 A 
ATOM      6  C   UNL     1       4.524   4.703  16.870  0.00  0.00    +0.000 A 
ATOM      7  N   UNL     1       4.767   4.326  15.598  0.00  0.00    +0.000 NA
ATOM      8  C   UNL     1       3.571   3.907  17.669  0.00  0.00    +0.000 A 
ATOM      9  C   UNL     1       2.209   3.811  17.370  0.00  0.00    +0.000 A 
ATOM     10  C   UNL     1       1.351   3.096  18.216  0.00  0.00    +0.000 A 
ATOM     11  C   UNL     1       1.858   2.377  19.302  0.00  0.00    +0.000 A 
ATOM     12  C   UNL     1       3.201   2.490  19.640  0.00  0.00    +0.000 A 
ATOM     13  C   UNL     1       4.011   3.347  18.894  0.00  0.00    +0.000 A 
ATOM     14  S   UNL     1       5.452   4.072  19.716  0.00  0.00    +0.000 S 
ATOM     15  C   UNL     1       5.201   5.762  19.010  0.00  0.00    +0.000 C 
ATOM     16  H   UNL     1       7.288   4.749  13.644  0.00  0.00    +0.000 HD
ENDROOT
BRANCH   1  21
ATOM     17  C   UNL     1       5.896   1.651  11.305  0.00  0.00    +0.000 A 
ATOM     18  C   UNL     1       4.711   2.090  10.734  0.00  0.00    +0.000 A 
ATOM     19  C   UNL     1       4.069   3.230  11.200  0.00  0.00    +0.000 A 
ATOM     20  C   UNL     1       4.624   3.949  12.254  0.00  0.00    +0.000 A 
ATOM     21  C   UNL     1       5.835   3.554  12.826  0.00  0.00    +0.000 A 
ATOM     22  C   UNL     1       6.463   2.389  12.351  0.00  0.00    +0.000 A 
BRANCH  17  24
ATOM     23  C   UNL     1       6.020  -0.736  11.321  0.00  0.00    +0.000 C 
ATOM     24  O   UNL     1       6.405   0.503  10.753  0.00  0.00    +0.000 OA
ENDBRANCH  17  24
ENDBRANCH   1  21
TORSDOF 2
ENDMDL
MODEL 8
REMARK VINA RESULT:      -7.1      3.483      7.579
REMARK  Name = 
REMARK  3 active torsions:
REMARK  status: ('A' for Active; 'I' for Inactive)
REMARK    1  A    between atoms: C_1  and  O_2
REMARK    2  A    between atoms: O_2  and  C_3
REMARK    3  A    between atoms: C_7  and  N_8
REMARK                            x       y       z     vdW  Elec       q    Type
REMARK                         _______ _______ _______ _____ _____    ______ ____
ROOT
ATOM      1  N   UNL     1       1.381   8.996  20.926  0.00  0.00    +0.000 N 
ATOM      2  C   UNL     1       0.851  10.181  20.416  0.00  0.00    +0.000 A 
ATOM      3  N   UNL     1       1.147  11.276  21.142  0.00  0.00    +0.000 NA
ATOM      4  C   UNL     1       0.425  12.379  20.903  0.00  0.00    +0.000 A 
ATOM      5  C   UNL     1      -0.606  12.410  20.005  0.00  0.00    +0.000 A 
ATOM      6  C   UNL     1      -0.758  11.288  19.207  0.00  0.00    +0.000 A 
ATOM      7  N   UNL     1      -0.016  10.175  19.383  0.00  0.00    +0.000 NA
ATOM      8  C   UNL     1      -1.940  11.213  18.325  0.00  0.00    +0.000 A 
ATOM      9  C   UNL     1      -1.859  10.973  16.950  0.00  0.00    +0.000 A 
ATOM     10  C   UNL     1      -3.018  10.989  16.162  0.00  0.00    +0.000 A 
ATOM     11  C   UNL     1      -4.278  11.130  16.753  0.00  0.00    +0.000 A 
ATOM     12  C   UNL     1      -4.378  11.407  18.110  0.00  0.00    +0.000 A 
ATOM     13  C   UNL     1      -3.207  11.566  18.852  0.00  0.00    +0.000 A 
ATOM     14  S   UNL     1      -3.276  12.622  20.321  0.00  0.00    +0.000 S 
ATOM     15  C   UNL     1      -1.664  13.464  19.985  0.00  0.00    +0.000 C 
ATOM     16  H   UNL     1       1.903   9.190  21.769  0.00  0.00    +0.000 HD
ENDROOT
BRANCH   1  21
ATOM     17  C   UNL     1       1.638   5.341  20.334  0.00  0.00    +0.000 A 
ATOM     18  C   UNL     1       2.248   5.333  19.089  0.00  0.00    +0.000 A 
ATOM     19  C   UNL     1       2.553   6.517  18.431  0.00  0.00    +0.000 A 
ATOM     20  C   UNL     1       2.247   7.735  19.030  0.00  0.00    +0.000 A 
ATOM     21  C   UNL     1       1.666   7.778  20.300  0.00  0.00    +0.000 A 
ATOM     22  C   UNL     1       1.351   6.569  20.945  0.00  0.00    +0.000 A 
BRANCH  17  24
ATOM     23  C   UNL     1       0.968   3.077  19.962  0.00  0.00    +0.000 C 
ATOM     24  O   UNL     1       1.382   4.097  20.853  0.00  0.00    +0.000 OA
ENDBRANCH  17  24
ENDBRANCH   1  21
TORSDOF 2
ENDMDL
MODEL 9
REMARK VINA RESULT:      -6.8      3.446      7.569
REMARK  Name = 
REMARK  3 active torsions:
REMARK  status: ('A' for Active; 'I' for Inactive)
REMARK    1  A    between atoms: C_1  and  O_2
REMARK    2  A    between atoms: O_2  and  C_3
REMARK    3  A    between atoms: C_7  and  N_8
REMARK                            x       y       z     vdW  Elec       q    Type
REMARK                         _______ _______ _______ _____ _____    ______ ____
ROOT
ATOM      1  N   UNL     1       1.422   8.777  21.056  0.00  0.00    +0.000 N 
ATOM      2  C   UNL     1       0.931   9.956  20.495  0.00  0.00    +0.000 A 
ATOM      3  N   UNL     1       1.232  11.067  21.193  0.00  0.00    +0.000 NA
ATOM      4  C   UNL     1       0.541  12.177  20.901  0.00  0.00    +0.000 A 
ATOM      5  C   UNL     1      -0.466  12.200  19.975  0.00  0.00    +0.000 A 
ATOM      6  C   UNL     1      -0.621  11.056  19.209  0.00  0.00    +0.000 A 
ATOM      7  N   UNL     1       0.091   9.934  19.439  0.00  0.00    +0.000 NA
ATOM      8  C   UNL     1      -1.782  10.977  18.299  0.00  0.00    +0.000 A 
ATOM      9  C   UNL     1      -1.670  10.692  16.934  0.00  0.00    +0.000 A 
ATOM     10  C   UNL     1      -2.809  10.706  16.116  0.00  0.00    +0.000 A 
ATOM     11  C   UNL     1      -4.079  10.892  16.668  0.00  0.00    +0.000 A 
ATOM     12  C   UNL     1      -4.208  11.215  18.013  0.00  0.00    +0.000 A 
ATOM     13  C   UNL     1      -3.054  11.373  18.780  0.00  0.00    +0.000 A 
ATOM     14  S   UNL     1      -3.138  12.477  20.213  0.00  0.00    +0.000 S 
ATOM     15  C   UNL     1      -1.501  13.274  19.893  0.00  0.00    +0.000 C 
ATOM     16  H   UNL     1       1.926   8.987  21.906  0.00  0.00    +0.000 HD
ENDROOT
BRANCH   1  21
ATOM     17  C   UNL     1       2.724   6.227  18.695  0.00  0.00    +0.000 A 
ATOM     18  C   UNL     1       2.236   5.070  19.284  0.00  0.00    +0.000 A 
ATOM     19  C   UNL     1       1.505   5.118  20.463  0.00  0.00    +0.000 A 
ATOM     20  C   UNL     1       1.251   6.347  21.065  0.00  0.00    +0.000 A 
ATOM     21  C   UNL     1       1.697   7.534  20.477  0.00  0.00    +0.000 A 
ATOM     22  C   UNL     1       2.448   7.464  19.290  0.00  0.00    +0.000 A 
BRANCH  17  24
ATOM     23  C   UNL     1       3.957   4.725  17.303  0.00  0.00    +0.000 C 
ATOM     24  O   UNL     1       3.442   6.022  17.543  0.00  0.00    +0.000 OA
ENDBRANCH  17  24
ENDBRANCH   1  21
TORSDOF 2
ENDMDL
