MODEL 1
REMARK VINA RESULT:      -6.6      0.000      0.000
REMARK  Name = 
REMARK  11 active torsions:
REMARK  status: ('A' for Active; 'I' for Inactive)
REMARK    1  A    between atoms: C_1  and  C_2
REMARK    2  A    between atoms: C_2  and  C_3
REMARK    3  A    between atoms: C_2  and  N_4
REMARK    4  A    between atoms: N_4  and  C_5
REMARK    5  A    between atoms: C_5  and  C_6
REMARK    6  A    between atoms: C_6  and  O_7
REMARK    7  A    between atoms: C_6  and  C_8
REMARK    8  A    between atoms: C_8  and  O_9
REMARK    9  A    between atoms: O_9  and  C_10
REMARK   10  A    between atoms: C_13  and  C_14
REMARK   11  A    between atoms: C_14  and  N_15
REMARK                            x       y       z     vdW  Elec       q    Type
REMARK                         _______ _______ _______ _____ _____    ______ ____
ROOT
ATOM      1  C   UNL     1       3.011   5.841  19.684  0.00  0.00    +0.000 A 
ATOM      2  C   UNL     1       2.719   6.740  18.658  0.00  0.00    +0.000 A 
ATOM      3  C   UNL     1       3.644   6.994  17.648  0.00  0.00    +0.000 A 
ATOM      4  C   UNL     1       4.885   6.349  17.638  0.00  0.00    +0.000 A 
ATOM      5  C   UNL     1       5.190   5.458  18.673  0.00  0.00    +0.000 A 
ATOM      6  C   UNL     1       4.254   5.202  19.687  0.00  0.00    +0.000 A 
ENDROOT
BRANCH   1   7
ATOM      7  O   UNL     1       2.158   5.525  20.714  0.00  0.00    +0.000 OA
BRANCH   7   8
ATOM      8  C   UNL     1       1.100   4.618  20.360  0.00  0.00    +0.000 C 
BRANCH   8   9
ATOM      9  C   UNL     1       1.263   3.275  21.074  0.00  0.00    +0.000 C 
BRANCH   9  10
ATOM     10  O   UNL     1       2.225   3.385  22.135  0.00  0.00    +0.000 OA
ATOM     11  H   UNL     1       2.864   2.667  21.994  0.00  0.00    +0.000 HD
ENDBRANCH   9  10
BRANCH   9  12
ATOM     12  C   UNL     1       1.689   2.176  20.087  0.00  0.00    +0.000 C 
BRANCH  12  13
ATOM     13  N   UNL     1       1.368   2.585  18.714  0.00  0.00    +0.000 NA
ATOM     14  H   UNL     1       0.459   2.181  18.468  0.00  0.00    +0.000 HD
BRANCH  13  16
ATOM     15  C   UNL     1       2.752   3.410  16.901  0.00  0.00    +0.000 C 
ATOM     16  C   UNL     1       2.387   2.185  17.740  0.00  0.00    +0.000 C 
ATOM     17  C   UNL     1       3.643   1.636  18.423  0.00  0.00    +0.000 C 
ENDBRANCH  13  16
ENDBRANCH  12  13
ENDBRANCH   9  12
ENDBRANCH   8   9
ENDBRANCH   7   8
ENDBRANCH   1   7
BRANCH   4  18
ATOM     18  C   UNL     1       5.864   6.662  16.540  0.00  0.00    +0.000 C 
BRANCH  18  19
ATOM     19  N   UNL     1       5.789   5.684  15.480  0.00  0.00    +0.000 N 
ATOM     20  C   UNL     1       6.704   4.679  15.435  0.00  0.00    +0.000 C 
ATOM     21  N   UNL     1       6.409   3.749  14.489  0.00  0.00    +0.000 N 
ATOM     22  O   UNL     1       7.692   4.581  16.148  0.00  0.00    +0.000 OA
ATOM     23  H   UNL     1       4.875   5.470  15.110  0.00  0.00    +0.000 HD
ATOM     24  H   UNL     1       5.959   4.072  13.647  0.00  0.00    +0.000 HD
ATOM     25  H   UNL     1       7.142   3.065  14.354  0.00  0.00    +0.000 HD
ENDBRANCH  18  19
ENDBRANCH   4  18
TORSDOF 9
ENDMDL
MODEL 2
REMARK VINA RESULT:      -6.2      0.739      1.293
REMARK  Name = 
REMARK  11 active torsions:
REMARK  status: ('A' for Active; 'I' for Inactive)
REMARK    1  A    between atoms: C_1  and  C_2
REMARK    2  A    between atoms: C_2  and  C_3
REMARK    3  A    between atoms: C_2  and  N_4
REMARK    4  A    between atoms: N_4  and  C_5
REMARK    5  A    between atoms: C_5  and  C_6
REMARK    6  A    between atoms: C_6  and  O_7
REMARK    7  A    between atoms: C_6  and  C_8
REMARK    8  A    between atoms: C_8  and  O_9
REMARK    9  A    between atoms: O_9  and  C_10
REMARK   10  A    between atoms: C_13  and  C_14
REMARK   11  A    between atoms: C_14  and  N_15
REMARK                            x       y       z     vdW  Elec       q    Type
REMARK                         _______ _______ _______ _____ _____    ______ ____
ROOT
ATOM      1  C   UNL     1       3.440   5.451  19.723  0.00  0.00    +0.000 A 
ATOM      2  C   UNL     1       4.646   4.852  19.358  0.00  0.00    +0.000 A 
ATOM      3  C   UNL     1       5.280   5.195  18.166  0.00  0.00    +0.000 A 
ATOM      4  C   UNL     1       4.723   6.151  17.311  0.00  0.00    +0.000 A 
ATOM      5  C   UNL     1       3.506   6.744  17.664  0.00  0.00    +0.000 A 
ATOM      6  C   UNL     1       2.871   6.399  18.867  0.00  0.00    +0.000 A 
ENDROOT
BRANCH   1   7
ATOM      7  O   UNL     1       2.750   5.180  20.880  0.00  0.00    +0.000 OA
BRANCH   7   8
ATOM      8  C   UNL     1       1.349   4.913  20.695  0.00  0.00    +0.000 C 
BRANCH   8   9
ATOM      9  C   UNL     1       1.067   3.409  20.714  0.00  0.00    +0.000 C 
BRANCH   9  10
ATOM     10  O   UNL     1       2.163   2.702  21.318  0.00  0.00    +0.000 OA
ATOM     11  H   UNL     1       2.314   1.918  20.764  0.00  0.00    +0.000 HD
ENDBRANCH   9  10
BRANCH   9  12
ATOM     12  C   UNL     1       0.817   2.880  19.293  0.00  0.00    +0.000 C 
BRANCH  12  13
ATOM     13  N   UNL     1       1.668   1.711  19.037  0.00  0.00    +0.000 NA
ATOM     14  H   UNL     1       2.281   1.583  19.847  0.00  0.00    +0.000 HD
BRANCH  13  16
ATOM     15  C   UNL     1       2.250   3.236  17.244  0.00  0.00    +0.000 C 
ATOM     16  C   UNL     1       2.459   1.831  17.809  0.00  0.00    +0.000 C 
ATOM     17  C   UNL     1       3.950   1.597  18.067  0.00  0.00    +0.000 C 
ENDBRANCH  13  16
ENDBRANCH  12  13
ENDBRANCH   9  12
ENDBRANCH   8   9
ENDBRANCH   7   8
ENDBRANCH   1   7
BRANCH   4  18
ATOM     18  C   UNL     1       5.429   6.482  16.025  0.00  0.00    +0.000 C 
BRANCH  18  19
ATOM     19  N   UNL     1       5.412   5.359  15.117  0.00  0.00    +0.000 N 
ATOM     20  C   UNL     1       6.589   4.827  14.692  0.00  0.00    +0.000 C 
ATOM     21  N   UNL     1       6.416   3.681  13.983  0.00  0.00    +0.000 N 
ATOM     22  O   UNL     1       7.699   5.290  14.907  0.00  0.00    +0.000 OA
ATOM     23  H   UNL     1       4.634   4.720  15.184  0.00  0.00    +0.000 HD
ATOM     24  H   UNL     1       5.586   3.609  13.415  0.00  0.00    +0.000 HD
ATOM     25  H   UNL     1       7.267   3.342  13.552  0.00  0.00    +0.000 HD
ENDBRANCH  18  19
ENDBRANCH   4  18
TORSDOF 9
ENDMDL
MODEL 3
REMARK VINA RESULT:      -6.0      2.107      3.500
REMARK  Name = 
REMARK  11 active torsions:
REMARK  status: ('A' for Active; 'I' for Inactive)
REMARK    1  A    between atoms: C_1  and  C_2
REMARK    2  A    between atoms: C_2  and  C_3
REMARK    3  A    between atoms: C_2  and  N_4
REMARK    4  A    between atoms: N_4  and  C_5
REMARK    5  A    between atoms: C_5  and  C_6
REMARK    6  A    between atoms: C_6  and  O_7
REMARK    7  A    between atoms: C_6  and  C_8
REMARK    8  A    between atoms: C_8  and  O_9
REMARK    9  A    between atoms: O_9  and  C_10
REMARK   10  A    between atoms: C_13  and  C_14
REMARK   11  A    between atoms: C_14  and  N_15
REMARK                            x       y       z     vdW  Elec       q    Type
REMARK                         _______ _______ _______ _____ _____    ______ ____
ROOT
ATOM      1  C   UNL     1       4.854   3.977  18.557  0.00  0.00    +0.000 A 
ATOM      2  C   UNL     1       6.140   4.480  18.358  0.00  0.00    +0.000 A 
ATOM      3  C   UNL     1       6.625   4.708  17.072  0.00  0.00    +0.000 A 
ATOM      4  C   UNL     1       5.831   4.441  15.952  0.00  0.00    +0.000 A 
ATOM      5  C   UNL     1       4.546   3.921  16.145  0.00  0.00    +0.000 A 
ATOM      6  C   UNL     1       4.059   3.696  17.441  0.00  0.00    +0.000 A 
ENDROOT
BRANCH   1   7
ATOM      7  O   UNL     1       4.291   3.729  19.786  0.00  0.00    +0.000 OA
BRANCH   7   8
ATOM      8  C   UNL     1       3.128   2.885  19.754  0.00  0.00    +0.000 C 
BRANCH   8   9
ATOM      9  C   UNL     1       2.117   3.299  20.826  0.00  0.00    +0.000 C 
BRANCH   9  10
ATOM     10  O   UNL     1       0.790   2.906  20.441  0.00  0.00    +0.000 OA
ATOM     11  H   UNL     1       0.308   3.730  20.260  0.00  0.00    +0.000 HD
ENDBRANCH   9  10
BRANCH   9  12
ATOM     12  C   UNL     1       2.168   4.815  21.072  0.00  0.00    +0.000 C 
BRANCH  12  13
ATOM     13  N   UNL     1       1.817   5.534  19.840  0.00  0.00    +0.000 NA
ATOM     14  H   UNL     1       2.045   4.930  19.046  0.00  0.00    +0.000 HD
BRANCH  13  16
ATOM     15  C   UNL     1       2.724   7.102  18.228  0.00  0.00    +0.000 C 
ATOM     16  C   UNL     1       2.496   6.827  19.714  0.00  0.00    +0.000 C 
ATOM     17  C   UNL     1       1.676   7.963  20.329  0.00  0.00    +0.000 C 
ENDBRANCH  13  16
ENDBRANCH  12  13
ENDBRANCH   9  12
ENDBRANCH   8   9
ENDBRANCH   7   8
ENDBRANCH   1   7
BRANCH   4  18
ATOM     18  C   UNL     1       6.397   4.684  14.580  0.00  0.00    +0.000 C 
BRANCH  18  19
ATOM     19  N   UNL     1       6.119   3.574  13.698  0.00  0.00    +0.000 N 
ATOM     20  C   UNL     1       6.675   3.554  12.457  0.00  0.00    +0.000 C 
ATOM     21  N   UNL     1       6.463   2.378  11.811  0.00  0.00    +0.000 N 
ATOM     22  O   UNL     1       7.306   4.466  11.943  0.00  0.00    +0.000 OA
ATOM     23  H   UNL     1       5.950   2.674  14.123  0.00  0.00    +0.000 HD
ATOM     24  H   UNL     1       5.593   1.900  11.991  0.00  0.00    +0.000 HD
ATOM     25  H   UNL     1       6.756   2.391  10.842  0.00  0.00    +0.000 HD
ENDBRANCH  18  19
ENDBRANCH   4  18
TORSDOF 9
ENDMDL
MODEL 4
REMARK VINA RESULT:      -6.0      2.003      3.135
REMARK  Name = 
REMARK  11 active torsions:
REMARK  status: ('A' for Active; 'I' for Inactive)
REMARK    1  A    between atoms: C_1  and  C_2
REMARK    2  A    between atoms: C_2  and  C_3
REMARK    3  A    between atoms: C_2  and  N_4
REMARK    4  A    between atoms: N_4  and  C_5
REMARK    5  A    between atoms: C_5  and  C_6
REMARK    6  A    between atoms: C_6  and  O_7
REMARK    7  A    between atoms: C_6  and  C_8
REMARK    8  A    between atoms: C_8  and  O_9
REMARK    9  A    between atoms: O_9  and  C_10
REMARK   10  A    between atoms: C_13  and  C_14
REMARK   11  A    between atoms: C_14  and  N_15
REMARK                            x       y       z     vdW  Elec       q    Type
REMARK                         _______ _______ _______ _____ _____    ______ ____
ROOT
ATOM      1  C   UNL     1       4.649   5.971  17.891  0.00  0.00    +0.000 A 
ATOM      2  C   UNL     1       5.859   6.563  17.529  0.00  0.00    +0.000 A 
ATOM      3  C   UNL     1       6.587   6.091  16.439  0.00  0.00    +0.000 A 
ATOM      4  C   UNL     1       6.117   5.014  15.681  0.00  0.00    +0.000 A 
ATOM      5  C   UNL     1       4.911   4.405  16.048  0.00  0.00    +0.000 A 
ATOM      6  C   UNL     1       4.179   4.886  17.144  0.00  0.00    +0.000 A 
ENDROOT
BRANCH   1   7
ATOM      7  O   UNL     1       3.863   6.375  18.943  0.00  0.00    +0.000 OA
BRANCH   7   8
ATOM      8  C   UNL     1       2.475   6.020  18.826  0.00  0.00    +0.000 C 
BRANCH   8   9
ATOM      9  C   UNL     1       1.826   5.872  20.204  0.00  0.00    +0.000 C 
BRANCH   9  10
ATOM     10  O   UNL     1       1.919   7.105  20.937  0.00  0.00    +0.000 OA
ATOM     11  H   UNL     1       1.012   7.447  21.000  0.00  0.00    +0.000 HD
ENDBRANCH   9  10
BRANCH   9  12
ATOM     12  C   UNL     1       2.484   4.734  21.001  0.00  0.00    +0.000 C 
BRANCH  12  13
ATOM     13  N   UNL     1       2.845   3.634  20.098  0.00  0.00    +0.000 NA
ATOM     14  H   UNL     1       2.828   3.994  19.139  0.00  0.00    +0.000 HD
BRANCH  13  16
ATOM     15  C   UNL     1       1.299   2.525  21.601  0.00  0.00    +0.000 C 
ATOM     16  C   UNL     1       1.964   2.470  20.225  0.00  0.00    +0.000 C 
ATOM     17  C   UNL     1       0.891   2.447  19.134  0.00  0.00    +0.000 C 
ENDBRANCH  13  16
ENDBRANCH  12  13
ENDBRANCH   9  12
ENDBRANCH   8   9
ENDBRANCH   7   8
ENDBRANCH   1   7
BRANCH   4  18
ATOM     18  C   UNL     1       6.939   4.521  14.521  0.00  0.00    +0.000 C 
BRANCH  18  19
ATOM     19  N   UNL     1       6.213   3.541  13.747  0.00  0.00    +0.000 N 
ATOM     20  C   UNL     1       6.471   3.419  12.417  0.00  0.00    +0.000 C 
ATOM     21  N   UNL     1       5.839   2.353  11.861  0.00  0.00    +0.000 N 
ATOM     22  O   UNL     1       7.186   4.159  11.759  0.00  0.00    +0.000 OA
ATOM     23  H   UNL     1       5.918   2.701  14.221  0.00  0.00    +0.000 HD
ATOM     24  H   UNL     1       4.936   2.102  12.234  0.00  0.00    +0.000 HD
ATOM     25  H   UNL     1       5.915   2.321  10.852  0.00  0.00    +0.000 HD
ENDBRANCH  18  19
ENDBRANCH   4  18
TORSDOF 9
ENDMDL
MODEL 5
REMARK VINA RESULT:      -6.0      1.761      2.518
REMARK  Name = 
REMARK  11 active torsions:
REMARK  status: ('A' for Active; 'I' for Inactive)
REMARK    1  A    between atoms: C_1  and  C_2
REMARK    2  A    between atoms: C_2  and  C_3
REMARK    3  A    between atoms: C_2  and  N_4
REMARK    4  A    between atoms: N_4  and  C_5
REMARK    5  A    between atoms: C_5  and  C_6
REMARK    6  A    between atoms: C_6  and  O_7
REMARK    7  A    between atoms: C_6  and  C_8
REMARK    8  A    between atoms: C_8  and  O_9
REMARK    9  A    between atoms: O_9  and  C_10
REMARK   10  A    between atoms: C_13  and  C_14
REMARK   11  A    between atoms: C_14  and  N_15
REMARK                            x       y       z     vdW  Elec       q    Type
REMARK                         _______ _______ _______ _____ _____    ______ ____
ROOT
ATOM      1  C   UNL     1       4.829   5.669  18.259  0.00  0.00    +0.000 A 
ATOM      2  C   UNL     1       4.459   6.244  17.042  0.00  0.00    +0.000 A 
ATOM      3  C   UNL     1       5.155   5.948  15.873  0.00  0.00    +0.000 A 
ATOM      4  C   UNL     1       6.238   5.063  15.892  0.00  0.00    +0.000 A 
ATOM      5  C   UNL     1       6.624   4.495  17.111  0.00  0.00    +0.000 A 
ATOM      6  C   UNL     1       5.918   4.793  18.287  0.00  0.00    +0.000 A 
ENDROOT
BRANCH   1   7
ATOM      7  O   UNL     1       4.197   5.897  19.457  0.00  0.00    +0.000 OA
BRANCH   7   8
ATOM      8  C   UNL     1       2.821   6.301  19.343  0.00  0.00    +0.000 C 
BRANCH   8   9
ATOM      9  C   UNL     1       1.928   5.488  20.282  0.00  0.00    +0.000 C 
BRANCH   9  10
ATOM     10  O   UNL     1       2.629   5.183  21.500  0.00  0.00    +0.000 OA
ATOM     11  H   UNL     1       3.077   4.335  21.345  0.00  0.00    +0.000 HD
ENDBRANCH   9  10
BRANCH   9  12
ATOM     12  C   UNL     1       1.457   4.190  19.606  0.00  0.00    +0.000 C 
BRANCH  12  13
ATOM     13  N   UNL     1       2.529   3.648  18.762  0.00  0.00    +0.000 NA
ATOM     14  H   UNL     1       2.193   3.634  17.794  0.00  0.00    +0.000 HD
BRANCH  13  16
ATOM     15  C   UNL     1       3.491   1.580  17.937  0.00  0.00    +0.000 C 
ATOM     16  C   UNL     1       2.966   2.311  19.173  0.00  0.00    +0.000 C 
ATOM     17  C   UNL     1       4.062   2.374  20.239  0.00  0.00    +0.000 C 
ENDBRANCH  13  16
ENDBRANCH  12  13
ENDBRANCH   9  12
ENDBRANCH   8   9
ENDBRANCH   7   8
ENDBRANCH   1   7
BRANCH   4  18
ATOM     18  C   UNL     1       6.976   4.781  14.611  0.00  0.00    +0.000 C 
BRANCH  18  19
ATOM     19  N   UNL     1       6.338   3.722  13.865  0.00  0.00    +0.000 N 
ATOM     20  C   UNL     1       6.595   3.596  12.535  0.00  0.00    +0.000 C 
ATOM     21  N   UNL     1       6.061   2.463  12.008  0.00  0.00    +0.000 N 
ATOM     22  O   UNL     1       7.233   4.385  11.854  0.00  0.00    +0.000 OA
ATOM     23  H   UNL     1       6.127   2.868  14.359  0.00  0.00    +0.000 HD
ATOM     24  H   UNL     1       5.189   2.138  12.395  0.00  0.00    +0.000 HD
ATOM     25  H   UNL     1       6.132   2.416  10.999  0.00  0.00    +0.000 HD
ENDBRANCH  18  19
ENDBRANCH   4  18
TORSDOF 9
ENDMDL
MODEL 6
REMARK VINA RESULT:      -6.0      0.651      1.018
REMARK  Name = 
REMARK  11 active torsions:
REMARK  status: ('A' for Active; 'I' for Inactive)
REMARK    1  A    between atoms: C_1  and  C_2
REMARK    2  A    between atoms: C_2  and  C_3
REMARK    3  A    between atoms: C_2  and  N_4
REMARK    4  A    between atoms: N_4  and  C_5
REMARK    5  A    between atoms: C_5  and  C_6
REMARK    6  A    between atoms: C_6  and  O_7
REMARK    7  A    between atoms: C_6  and  C_8
REMARK    8  A    between atoms: C_8  and  O_9
REMARK    9  A    between atoms: O_9  and  C_10
REMARK   10  A    between atoms: C_13  and  C_14
REMARK   11  A    between atoms: C_14  and  N_15
REMARK                            x       y       z     vdW  Elec       q    Type
REMARK                         _______ _______ _______ _____ _____    ______ ____
ROOT
ATOM      1  C   UNL     1       3.437   5.436  19.671  0.00  0.00    +0.000 A 
ATOM      2  C   UNL     1       2.929   6.229  18.642  0.00  0.00    +0.000 A 
ATOM      3  C   UNL     1       3.732   6.601  17.566  0.00  0.00    +0.000 A 
ATOM      4  C   UNL     1       5.065   6.185  17.493  0.00  0.00    +0.000 A 
ATOM      5  C   UNL     1       5.585   5.403  18.531  0.00  0.00    +0.000 A 
ATOM      6  C   UNL     1       4.773   5.026  19.611  0.00  0.00    +0.000 A 
ENDROOT
BRANCH   1   7
ATOM      7  O   UNL     1       2.718   5.015  20.764  0.00  0.00    +0.000 OA
BRANCH   7   8
ATOM      8  C   UNL     1       1.307   4.865  20.532  0.00  0.00    +0.000 C 
BRANCH   8   9
ATOM      9  C   UNL     1       0.884   3.398  20.638  0.00  0.00    +0.000 C 
BRANCH   9  10
ATOM     10  O   UNL     1       1.834   2.659  21.424  0.00  0.00    +0.000 OA
ATOM     11  H   UNL     1       1.860   3.095  22.292  0.00  0.00    +0.000 HD
ENDBRANCH   9  10
BRANCH   9  12
ATOM     12  C   UNL     1       0.745   2.764  19.245  0.00  0.00    +0.000 C 
BRANCH  12  13
ATOM     13  N   UNL     1       1.784   1.744  19.053  0.00  0.00    +0.000 NA
ATOM     14  H   UNL     1       2.010   1.347  19.969  0.00  0.00    +0.000 HD
BRANCH  13  16
ATOM     15  C   UNL     1       3.970   1.107  18.220  0.00  0.00    +0.000 C 
ATOM     16  C   UNL     1       2.991   2.266  18.407  0.00  0.00    +0.000 C 
ATOM     17  C   UNL     1       2.681   2.902  17.050  0.00  0.00    +0.000 C 
ENDBRANCH  13  16
ENDBRANCH  12  13
ENDBRANCH   9  12
ENDBRANCH   8   9
ENDBRANCH   7   8
ENDBRANCH   1   7
BRANCH   4  18
ATOM     18  C   UNL     1       5.905   6.622  16.324  0.00  0.00    +0.000 C 
BRANCH  18  19
ATOM     19  N   UNL     1       5.823   5.672  15.239  0.00  0.00    +0.000 N 
ATOM     20  C   UNL     1       6.749   4.679  15.151  0.00  0.00    +0.000 C 
ATOM     21  N   UNL     1       6.448   3.772  14.186  0.00  0.00    +0.000 N 
ATOM     22  O   UNL     1       7.750   4.575  15.844  0.00  0.00    +0.000 OA
ATOM     23  H   UNL     1       4.906   5.456  14.879  0.00  0.00    +0.000 HD
ATOM     24  H   UNL     1       5.980   4.112  13.360  0.00  0.00    +0.000 HD
ATOM     25  H   UNL     1       7.187   3.101  14.020  0.00  0.00    +0.000 HD
ENDBRANCH  18  19
ENDBRANCH   4  18
TORSDOF 9
ENDMDL
MODEL 7
REMARK VINA RESULT:      -6.0      4.104      6.114
REMARK  Name = 
REMARK  11 active torsions:
REMARK  status: ('A' for Active; 'I' for Inactive)
REMARK    1  A    between atoms: C_1  and  C_2
REMARK    2  A    between atoms: C_2  and  C_3
REMARK    3  A    between atoms: C_2  and  N_4
REMARK    4  A    between atoms: N_4  and  C_5
REMARK    5  A    between atoms: C_5  and  C_6
REMARK    6  A    between atoms: C_6  and  O_7
REMARK    7  A    between atoms: C_6  and  C_8
REMARK    8  A    between atoms: C_8  and  O_9
REMARK    9  A    between atoms: O_9  and  C_10
REMARK   10  A    between atoms: C_13  and  C_14
REMARK   11  A    between atoms: C_14  and  N_15
REMARK                            x       y       z     vdW  Elec       q    Type
REMARK                         _______ _______ _______ _____ _____    ______ ____
ROOT
ATOM      1  C   UNL     1       2.821   6.842  18.665  0.00  0.00    +0.000 A 
ATOM      2  C   UNL     1       2.203   7.069  19.895  0.00  0.00    +0.000 A 
ATOM      3  C   UNL     1       1.499   8.248  20.133  0.00  0.00    +0.000 A 
ATOM      4  C   UNL     1       1.394   9.228  19.141  0.00  0.00    +0.000 A 
ATOM      5  C   UNL     1       2.025   9.013  17.910  0.00  0.00    +0.000 A 
ATOM      6  C   UNL     1       2.730   7.823  17.673  0.00  0.00    +0.000 A 
ENDROOT
BRANCH   1   7
ATOM      7  O   UNL     1       3.527   5.708  18.341  0.00  0.00    +0.000 OA
BRANCH   7   8
ATOM      8  C   UNL     1       4.712   5.494  19.128  0.00  0.00    +0.000 C 
BRANCH   8   9
ATOM      9  C   UNL     1       5.246   4.072  18.944  0.00  0.00    +0.000 C 
BRANCH   9  10
ATOM     10  O   UNL     1       5.788   3.908  17.623  0.00  0.00    +0.000 OA
ATOM     11  H   UNL     1       5.141   3.375  17.133  0.00  0.00    +0.000 HD
ENDBRANCH   9  10
BRANCH   9  12
ATOM     12  C   UNL     1       4.140   3.033  19.193  0.00  0.00    +0.000 C 
BRANCH  12  13
ATOM     13  N   UNL     1       3.252   3.496  20.267  0.00  0.00    +0.000 NA
ATOM     14  H   UNL     1       3.742   3.372  21.158  0.00  0.00    +0.000 HD
BRANCH  13  16
ATOM     15  C   UNL     1       1.575   2.560  21.749  0.00  0.00    +0.000 C 
ATOM     16  C   UNL     1       1.963   2.799  20.289  0.00  0.00    +0.000 C 
ATOM     17  C   UNL     1       0.867   3.608  19.591  0.00  0.00    +0.000 C 
ENDBRANCH  13  16
ENDBRANCH  12  13
ENDBRANCH   9  12
ENDBRANCH   8   9
ENDBRANCH   7   8
ENDBRANCH   1   7
BRANCH   4  18
ATOM     18  C   UNL     1       0.641  10.495  19.441  0.00  0.00    +0.000 C 
BRANCH  18  19
ATOM     19  N   UNL     1       0.003  11.015  18.254  0.00  0.00    +0.000 N 
ATOM     20  C   UNL     1      -1.211  11.619  18.361  0.00  0.00    +0.000 C 
ATOM     21  N   UNL     1      -1.606  12.202  17.199  0.00  0.00    +0.000 N 
ATOM     22  O   UNL     1      -1.900  11.661  19.369  0.00  0.00    +0.000 OA
ATOM     23  H   UNL     1       0.601  11.348  17.513  0.00  0.00    +0.000 HD
ATOM     24  H   UNL     1      -1.329  11.755  16.339  0.00  0.00    +0.000 HD
ATOM     25  H   UNL     1      -2.558  12.544  17.223  0.00  0.00    +0.000 HD
ENDBRANCH  18  19
ENDBRANCH   4  18
TORSDOF 9
ENDMDL
MODEL 8
REMARK VINA RESULT:      -5.9      4.229      6.338
REMARK  Name = 
REMARK  11 active torsions:
REMARK  status: ('A' for Active; 'I' for Inactive)
REMARK    1  A    between atoms: C_1  and  C_2
REMARK    2  A    between atoms: C_2  and  C_3
REMARK    3  A    between atoms: C_2  and  N_4
REMARK    4  A    between atoms: N_4  and  C_5
REMARK    5  A    between atoms: C_5  and  C_6
REMARK    6  A    between atoms: C_6  and  O_7
REMARK    7  A    between atoms: C_6  and  C_8
REMARK    8  A    between atoms: C_8  and  O_9
REMARK    9  A    between atoms: O_9  and  C_10
REMARK   10  A    between atoms: C_13  and  C_14
REMARK   11  A    between atoms: C_14  and  N_15
REMARK                            x       y       z     vdW  Elec       q    Type
REMARK                         _______ _______ _______ _____ _____    ______ ____
ROOT
ATOM      1  C   UNL     1       2.805   7.232  18.491  0.00  0.00    +0.000 A 
ATOM      2  C   UNL     1       2.246   7.321  19.766  0.00  0.00    +0.000 A 
ATOM      3  C   UNL     1       1.452   8.409  20.123  0.00  0.00    +0.000 A 
ATOM      4  C   UNL     1       1.196   9.435  19.208  0.00  0.00    +0.000 A 
ATOM      5  C   UNL     1       1.767   9.359  17.932  0.00  0.00    +0.000 A 
ATOM      6  C   UNL     1       2.563   8.260  17.575  0.00  0.00    +0.000 A 
ENDROOT
BRANCH   1   7
ATOM      7  O   UNL     1       3.591   6.194  18.052  0.00  0.00    +0.000 OA
BRANCH   7   8
ATOM      8  C   UNL     1       4.163   5.390  19.098  0.00  0.00    +0.000 C 
BRANCH   8   9
ATOM      9  C   UNL     1       4.447   3.968  18.607  0.00  0.00    +0.000 C 
BRANCH   9  10
ATOM     10  O   UNL     1       5.564   3.408  19.316  0.00  0.00    +0.000 OA
ATOM     11  H   UNL     1       6.339   3.548  18.748  0.00  0.00    +0.000 HD
ENDBRANCH   9  10
BRANCH   9  12
ATOM     12  C   UNL     1       4.720   3.953  17.095  0.00  0.00    +0.000 C 
BRANCH  12  13
ATOM     13  N   UNL     1       6.165   3.881  16.848  0.00  0.00    +0.000 NA
ATOM     14  H   UNL     1       6.637   3.792  17.752  0.00  0.00    +0.000 HD
BRANCH  13  16
ATOM     15  C   UNL     1       5.566   5.569  15.213  0.00  0.00    +0.000 C 
ATOM     16  C   UNL     1       6.683   5.037  16.111  0.00  0.00    +0.000 C 
ATOM     17  C   UNL     1       7.158   6.146  17.054  0.00  0.00    +0.000 C 
ENDBRANCH  13  16
ENDBRANCH  12  13
ENDBRANCH   9  12
ENDBRANCH   8   9
ENDBRANCH   7   8
ENDBRANCH   1   7
BRANCH   4  18
ATOM     18  C   UNL     1       0.349  10.602  19.635  0.00  0.00    +0.000 C 
BRANCH  18  19
ATOM     19  N   UNL     1      -0.063  11.391  18.497  0.00  0.00    +0.000 N 
ATOM     20  C   UNL     1      -1.353  11.321  18.071  0.00  0.00    +0.000 C 
ATOM     21  N   UNL     1      -1.632  12.237  17.106  0.00  0.00    +0.000 N 
ATOM     22  O   UNL     1      -2.199  10.543  18.483  0.00  0.00    +0.000 OA
ATOM     23  H   UNL     1       0.407  12.271  18.347  0.00  0.00    +0.000 HD
ATOM     24  H   UNL     1      -0.891  12.474  16.465  0.00  0.00    +0.000 HD
ATOM     25  H   UNL     1      -2.545  12.116  16.688  0.00  0.00    +0.000 HD
ENDBRANCH  18  19
ENDBRANCH   4  18
TORSDOF 9
ENDMDL
MODEL 9
REMARK VINA RESULT:      -5.9      4.113      6.002
REMARK  Name = 
REMARK  11 active torsions:
REMARK  status: ('A' for Active; 'I' for Inactive)
REMARK    1  A    between atoms: C_1  and  C_2
REMARK    2  A    between atoms: C_2  and  C_3
REMARK    3  A    between atoms: C_2  and  N_4
REMARK    4  A    between atoms: N_4  and  C_5
REMARK    5  A    between atoms: C_5  and  C_6
REMARK    6  A    between atoms: C_6  and  O_7
REMARK    7  A    between atoms: C_6  and  C_8
REMARK    8  A    between atoms: C_8  and  O_9
REMARK    9  A    between atoms: O_9  and  C_10
REMARK   10  A    between atoms: C_13  and  C_14
REMARK   11  A    between atoms: C_14  and  N_15
REMARK                            x       y       z     vdW  Elec       q    Type
REMARK                         _______ _______ _______ _____ _____    ______ ____
ROOT
ATOM      1  C   UNL     1       3.025   7.015  18.470  0.00  0.00    +0.000 A 
ATOM      2  C   UNL     1       2.759   8.066  17.591  0.00  0.00    +0.000 A 
ATOM      3  C   UNL     1       1.905   9.103  17.959  0.00  0.00    +0.000 A 
ATOM      4  C   UNL     1       1.297   9.115  19.218  0.00  0.00    +0.000 A 
ATOM      5  C   UNL     1       1.548   8.055  20.098  0.00  0.00    +0.000 A 
ATOM      6  C   UNL     1       2.412   7.014  19.726  0.00  0.00    +0.000 A 
ENDROOT
BRANCH   1   7
ATOM      7  O   UNL     1       3.859   5.957  18.195  0.00  0.00    +0.000 OA
BRANCH   7   8
ATOM      8  C   UNL     1       4.443   5.338  19.354  0.00  0.00    +0.000 C 
BRANCH   8   9
ATOM      9  C   UNL     1       5.005   3.955  19.014  0.00  0.00    +0.000 C 
BRANCH   9  10
ATOM     10  O   UNL     1       6.038   4.065  18.021  0.00  0.00    +0.000 OA
ATOM     11  H   UNL     1       5.828   3.403  17.342  0.00  0.00    +0.000 HD
ENDBRANCH   9  10
BRANCH   9  12
ATOM     12  C   UNL     1       3.894   3.017  18.519  0.00  0.00    +0.000 C 
BRANCH  12  13
ATOM     13  N   UNL     1       3.046   2.607  19.646  0.00  0.00    +0.000 NA
ATOM     14  H   UNL     1       3.217   1.614  19.826  0.00  0.00    +0.000 HD
BRANCH  13  16
ATOM     15  C   UNL     1       1.065   3.632  20.599  0.00  0.00    +0.000 C 
ATOM     16  C   UNL     1       1.619   2.848  19.410  0.00  0.00    +0.000 C 
ATOM     17  C   UNL     1       1.380   3.634  18.118  0.00  0.00    +0.000 C 
ENDBRANCH  13  16
ENDBRANCH  12  13
ENDBRANCH   9  12
ENDBRANCH   8   9
ENDBRANCH   7   8
ENDBRANCH   1   7
BRANCH   4  18
ATOM     18  C   UNL     1       0.367  10.242  19.572  0.00  0.00    +0.000 C 
BRANCH  18  19
ATOM     19  N   UNL     1      -0.010  10.995  18.398  0.00  0.00    +0.000 N 
ATOM     20  C   UNL     1      -1.166  11.712  18.409  0.00  0.00    +0.000 C 
ATOM     21  N   UNL     1      -1.301  12.496  17.307  0.00  0.00    +0.000 N 
ATOM     22  O   UNL     1      -2.011  11.689  19.290  0.00  0.00    +0.000 OA
ATOM     23  H   UNL     1       0.734  11.360  17.822  0.00  0.00    +0.000 HD
ATOM     24  H   UNL     1      -0.922  12.147  16.440  0.00  0.00    +0.000 HD
ATOM     25  H   UNL     1      -2.209  12.937  17.236  0.00  0.00    +0.000 HD
ENDBRANCH  18  19
ENDBRANCH   4  18
TORSDOF 9
ENDMDL
