MODEL 1
REMARK VINA RESULT:      -7.6      0.000      0.000
REMARK  Name = 
REMARK  7 active torsions:
REMARK  status: ('A' for Active; 'I' for Inactive)
REMARK    1  A    between atoms: C_1  and  C_2
REMARK    2  A    between atoms: C_5  and  C_6
REMARK    3  A    between atoms: C_7  and  S_8
REMARK    4  A    between atoms: S_8  and  N_11
REMARK    5  A    between atoms: C_14  and  O_15
REMARK    6  A    between atoms: O_15  and  C_16
REMARK    7  A    between atoms: C_22  and  C_23
REMARK                            x       y       z     vdW  Elec       q    Type
REMARK                         _______ _______ _______ _____ _____    ______ ____
ROOT
ATOM      1  N   UNL     1       3.964   5.095  18.614  0.00  0.00    +0.000 NA
ATOM      2  C   UNL     1       3.237   5.084  19.907  0.00  0.00    +0.000 C 
ATOM      3  C   UNL     1       1.765   5.387  19.717  0.00  0.00    +0.000 C 
ATOM      4  C   UNL     1       1.559   6.761  19.081  0.00  0.00    +0.000 C 
ATOM      5  C   UNL     1       2.235   6.716  17.707  0.00  0.00    +0.000 C 
ATOM      6  C   UNL     1       3.711   6.309  17.770  0.00  0.00    +0.000 C 
ENDROOT
BRANCH   1   7
ATOM      7  S   UNL     1       5.670   4.834  18.829  0.00  0.00    +0.000 S 
ATOM      8  O   UNL     1       5.889   3.403  18.900  0.00  0.00    +0.000 OA
ATOM      9  O   UNL     1       6.130   5.720  19.870  0.00  0.00    +0.000 OA
BRANCH   7  16
ATOM     10  C   UNL     1       5.602   3.549  15.762  0.00  0.00    +0.000 C 
ATOM     11  C   UNL     1       6.409   4.734  16.152  0.00  0.00    +0.000 A 
ATOM     12  N   UNL     1       7.175   5.347  15.244  0.00  0.00    +0.000 NA
ATOM     13  N   UNL     1       7.725   6.373  15.915  0.00  0.00    +0.000 N 
ATOM     14  C   UNL     1       7.381   6.416  17.240  0.00  0.00    +0.000 A 
ATOM     15  C   UNL     1       7.925   7.464  18.137  0.00  0.00    +0.000 C 
ATOM     16  C   UNL     1       6.509   5.352  17.417  0.00  0.00    +0.000 A 
ATOM     17  H   UNL     1       8.323   7.008  15.405  0.00  0.00    +0.000 HD
ENDBRANCH   7  16
ENDBRANCH   1   7
BRANCH   4  18
ATOM     18  O   UNL     1       2.149   7.832  19.839  0.00  0.00    +0.000 OA
BRANCH  18  19
ATOM     19  C   UNL     1       1.346   8.659  20.579  0.00  0.00    +0.000 A 
ATOM     20  C   UNL     1       1.012   8.416  21.919  0.00  0.00    +0.000 A 
ATOM     21  C   UNL     1       0.278   9.341  22.664  0.00  0.00    +0.000 A 
ATOM     22  C   UNL     1      -0.163  10.512  22.070  0.00  0.00    +0.000 A 
ATOM     23 CL   UNL     1      -1.063  11.654  22.986  0.00  0.00    +0.000 Cl
ATOM     24  C   UNL     1       0.127  10.762  20.732  0.00  0.00    +0.000 A 
ATOM     25  C   UNL     1       0.890   9.845  19.969  0.00  0.00    +0.000 A 
BRANCH  25  26
ATOM     26  C   UNL     1       1.151  10.207  18.527  0.00  0.00    +0.000 C 
ATOM     27  F   UNL     1       2.425  10.033  18.085  0.00  0.00    +0.000 F 
ATOM     28  F   UNL     1       0.368   9.474  17.682  0.00  0.00    +0.000 F 
ATOM     29  F   UNL     1       0.838  11.509  18.267  0.00  0.00    +0.000 F 
ENDBRANCH  25  26
ENDBRANCH  18  19
ENDBRANCH   4  18
TORSDOF 5
ENDMDL
MODEL 2
REMARK VINA RESULT:      -7.4      0.134      1.542
REMARK  Name = 
REMARK  7 active torsions:
REMARK  status: ('A' for Active; 'I' for Inactive)
REMARK    1  A    between atoms: C_1  and  C_2
REMARK    2  A    between atoms: C_5  and  C_6
REMARK    3  A    between atoms: C_7  and  S_8
REMARK    4  A    between atoms: S_8  and  N_11
REMARK    5  A    between atoms: C_14  and  O_15
REMARK    6  A    between atoms: O_15  and  C_16
REMARK    7  A    between atoms: C_22  and  C_23
REMARK                            x       y       z     vdW  Elec       q    Type
REMARK                         _______ _______ _______ _____ _____    ______ ____
ROOT
ATOM      1  N   UNL     1       3.928   5.006  18.677  0.00  0.00    +0.000 NA
ATOM      2  C   UNL     1       3.263   5.031  20.003  0.00  0.00    +0.000 C 
ATOM      3  C   UNL     1       1.779   5.308  19.874  0.00  0.00    +0.000 C 
ATOM      4  C   UNL     1       1.523   6.655  19.200  0.00  0.00    +0.000 C 
ATOM      5  C   UNL     1       2.133   6.571  17.798  0.00  0.00    +0.000 C 
ATOM      6  C   UNL     1       3.617   6.186  17.805  0.00  0.00    +0.000 C 
ENDROOT
BRANCH   1   7
ATOM      7  S   UNL     1       5.645   4.774  18.820  0.00  0.00    +0.000 S 
ATOM      8  O   UNL     1       5.886   3.352  18.958  0.00  0.00    +0.000 OA
ATOM      9  O   UNL     1       6.145   5.722  19.786  0.00  0.00    +0.000 OA
BRANCH   7  16
ATOM     10  C   UNL     1       7.785   7.251  18.230  0.00  0.00    +0.000 C 
ATOM     11  C   UNL     1       7.307   6.298  17.195  0.00  0.00    +0.000 A 
ATOM     12  N   UNL     1       7.736   6.414  15.934  0.00  0.00    +0.000 NA
ATOM     13  N   UNL     1       7.144   5.393  15.290  0.00  0.00    +0.000 N 
ATOM     14  C   UNL     1       6.307   4.650  16.081  0.00  0.00    +0.000 A 
ATOM     15  C   UNL     1       5.548   3.505  15.524  0.00  0.00    +0.000 C 
ATOM     16  C   UNL     1       6.405   5.222  17.341  0.00  0.00    +0.000 A 
ATOM     17  H   UNL     1       7.360   5.259  14.312  0.00  0.00    +0.000 HD
ENDBRANCH   7  16
ENDBRANCH   1   7
BRANCH   4  18
ATOM     18  O   UNL     1       2.132   7.760  19.892  0.00  0.00    +0.000 OA
BRANCH  18  19
ATOM     19  C   UNL     1       1.347   8.628  20.605  0.00  0.00    +0.000 A 
ATOM     20  C   UNL     1       1.006   8.433  21.951  0.00  0.00    +0.000 A 
ATOM     21  C   UNL     1       0.292   9.397  22.666  0.00  0.00    +0.000 A 
ATOM     22  C   UNL     1      -0.120  10.559  22.036  0.00  0.00    +0.000 A 
ATOM     23 CL   UNL     1      -0.995  11.748  22.915  0.00  0.00    +0.000 Cl
ATOM     24  C   UNL     1       0.177  10.762  20.692  0.00  0.00    +0.000 A 
ATOM     25  C   UNL     1       0.920   9.804  19.958  0.00  0.00    +0.000 A 
BRANCH  25  26
ATOM     26  C   UNL     1       1.191  10.117  18.507  0.00  0.00    +0.000 C 
ATOM     27  F   UNL     1       2.445   9.845  18.058  0.00  0.00    +0.000 F 
ATOM     28  F   UNL     1       0.351   9.422  17.685  0.00  0.00    +0.000 F 
ATOM     29  F   UNL     1       0.968  11.432  18.221  0.00  0.00    +0.000 F 
ENDBRANCH  25  26
ENDBRANCH  18  19
ENDBRANCH   4  18
TORSDOF 5
ENDMDL
MODEL 3
REMARK VINA RESULT:      -7.1      2.753      4.003
REMARK  Name = 
REMARK  7 active torsions:
REMARK  status: ('A' for Active; 'I' for Inactive)
REMARK    1  A    between atoms: C_1  and  C_2
REMARK    2  A    between atoms: C_5  and  C_6
REMARK    3  A    between atoms: C_7  and  S_8
REMARK    4  A    between atoms: S_8  and  N_11
REMARK    5  A    between atoms: C_14  and  O_15
REMARK    6  A    between atoms: O_15  and  C_16
REMARK    7  A    between atoms: C_22  and  C_23
REMARK                            x       y       z     vdW  Elec       q    Type
REMARK                         _______ _______ _______ _____ _____    ______ ____
ROOT
ATOM      1  N   UNL     1       2.425   7.183  19.116  0.00  0.00    +0.000 NA
ATOM      2  C   UNL     1       2.020   7.907  17.886  0.00  0.00    +0.000 C 
ATOM      3  C   UNL     1       2.161   9.406  18.054  0.00  0.00    +0.000 C 
ATOM      4  C   UNL     1       1.294   9.920  19.203  0.00  0.00    +0.000 C 
ATOM      5  C   UNL     1       1.796   9.231  20.476  0.00  0.00    +0.000 C 
ATOM      6  C   UNL     1       1.799   7.701  20.376  0.00  0.00    +0.000 C 
ENDROOT
BRANCH   1   7
ATOM      7  S   UNL     1       2.186   5.468  18.964  0.00  0.00    +0.000 S 
ATOM      8  O   UNL     1       1.665   5.213  17.636  0.00  0.00    +0.000 OA
ATOM      9  O   UNL     1       1.499   5.006  20.146  0.00  0.00    +0.000 OA
BRANCH   7  16
ATOM     10  C   UNL     1       5.052   6.348  17.525  0.00  0.00    +0.000 C 
ATOM     11  C   UNL     1       4.878   5.133  18.363  0.00  0.00    +0.000 A 
ATOM     12  N   UNL     1       5.914   4.313  18.570  0.00  0.00    +0.000 NA
ATOM     13  N   UNL     1       5.422   3.360  19.380  0.00  0.00    +0.000 N 
ATOM     14  C   UNL     1       4.090   3.507  19.663  0.00  0.00    +0.000 A 
ATOM     15  C   UNL     1       3.377   2.525  20.516  0.00  0.00    +0.000 C 
ATOM     16  C   UNL     1       3.713   4.672  19.012  0.00  0.00    +0.000 A 
ATOM     17  H   UNL     1       6.053   2.640  19.704  0.00  0.00    +0.000 HD
ENDBRANCH   7  16
ENDBRANCH   1   7
BRANCH   4  18
ATOM     18  O   UNL     1      -0.102   9.610  19.043  0.00  0.00    +0.000 OA
BRANCH  18  19
ATOM     19  C   UNL     1      -1.046  10.525  19.430  0.00  0.00    +0.000 A 
ATOM     20  C   UNL     1      -1.002  11.211  20.652  0.00  0.00    +0.000 A 
ATOM     21  C   UNL     1      -1.928  12.211  20.957  0.00  0.00    +0.000 A 
ATOM     22  C   UNL     1      -2.935  12.518  20.056  0.00  0.00    +0.000 A 
ATOM     23 CL   UNL     1      -4.072  13.751  20.428  0.00  0.00    +0.000 Cl
ATOM     24  C   UNL     1      -3.020  11.829  18.851  0.00  0.00    +0.000 A 
ATOM     25  C   UNL     1      -2.076  10.827  18.517  0.00  0.00    +0.000 A 
BRANCH  25  26
ATOM     26  C   UNL     1      -2.253  10.138  17.186  0.00  0.00    +0.000 C 
ATOM     27  F   UNL     1      -1.233   9.336  16.784  0.00  0.00    +0.000 F 
ATOM     28  F   UNL     1      -3.364   9.343  17.184  0.00  0.00    +0.000 F 
ATOM     29  F   UNL     1      -2.450  11.031  16.174  0.00  0.00    +0.000 F 
ENDBRANCH  25  26
ENDBRANCH  18  19
ENDBRANCH   4  18
TORSDOF 5
ENDMDL
MODEL 4
REMARK VINA RESULT:      -7.1      2.852      4.006
REMARK  Name = 
REMARK  7 active torsions:
REMARK  status: ('A' for Active; 'I' for Inactive)
REMARK    1  A    between atoms: C_1  and  C_2
REMARK    2  A    between atoms: C_5  and  C_6
REMARK    3  A    between atoms: C_7  and  S_8
REMARK    4  A    between atoms: S_8  and  N_11
REMARK    5  A    between atoms: C_14  and  O_15
REMARK    6  A    between atoms: O_15  and  C_16
REMARK    7  A    between atoms: C_22  and  C_23
REMARK                            x       y       z     vdW  Elec       q    Type
REMARK                         _______ _______ _______ _____ _____    ______ ____
ROOT
ATOM      1  N   UNL     1       2.316   6.763  19.291  0.00  0.00    +0.000 NA
ATOM      2  C   UNL     1       2.005   7.514  18.050  0.00  0.00    +0.000 C 
ATOM      3  C   UNL     1       2.272   8.996  18.217  0.00  0.00    +0.000 C 
ATOM      4  C   UNL     1       1.425   9.588  19.343  0.00  0.00    +0.000 C 
ATOM      5  C   UNL     1       1.834   8.865  20.629  0.00  0.00    +0.000 C 
ATOM      6  C   UNL     1       1.707   7.340  20.535  0.00  0.00    +0.000 C 
ENDROOT
BRANCH   1   7
ATOM      7  S   UNL     1       1.932   5.074  19.139  0.00  0.00    +0.000 S 
ATOM      8  O   UNL     1       1.474   4.849  17.783  0.00  0.00    +0.000 OA
ATOM      9  O   UNL     1       1.135   4.693  20.279  0.00  0.00    +0.000 OA
BRANCH   7  16
ATOM     10  C   UNL     1       2.576   2.518  21.167  0.00  0.00    +0.000 C 
ATOM     11  C   UNL     1       3.548   3.071  20.187  0.00  0.00    +0.000 A 
ATOM     12  N   UNL     1       4.771   2.540  20.090  0.00  0.00    +0.000 NA
ATOM     13  N   UNL     1       5.358   3.244  19.107  0.00  0.00    +0.000 N 
ATOM     14  C   UNL     1       4.575   4.247  18.600  0.00  0.00    +0.000 A 
ATOM     15  C   UNL     1       5.078   5.143  17.531  0.00  0.00    +0.000 C 
ATOM     16  C   UNL     1       3.375   4.146  19.290  0.00  0.00    +0.000 A 
ATOM     17  H   UNL     1       6.294   2.983  18.830  0.00  0.00    +0.000 HD
ENDBRANCH   7  16
ENDBRANCH   1   7
BRANCH   4  18
ATOM     18  O   UNL     1       0.012   9.401  19.150  0.00  0.00    +0.000 OA
BRANCH  18  19
ATOM     19  C   UNL     1      -0.861  10.379  19.546  0.00  0.00    +0.000 A 
ATOM     20  C   UNL     1      -0.775  11.038  20.781  0.00  0.00    +0.000 A 
ATOM     21  C   UNL     1      -1.622  12.102  21.098  0.00  0.00    +0.000 A 
ATOM     22  C   UNL     1      -2.593  12.504  20.195  0.00  0.00    +0.000 A 
ATOM     23 CL   UNL     1      -3.633  13.815  20.581  0.00  0.00    +0.000 Cl
ATOM     24  C   UNL     1      -2.722  11.845  18.976  0.00  0.00    +0.000 A 
ATOM     25  C   UNL     1      -1.855  10.778  18.631  0.00  0.00    +0.000 A 
BRANCH  25  26
ATOM     26  C   UNL     1      -2.075  10.129  17.286  0.00  0.00    +0.000 C 
ATOM     27  F   UNL     1      -1.055   9.363  16.815  0.00  0.00    +0.000 F 
ATOM     28  F   UNL     1      -3.168   9.311  17.304  0.00  0.00    +0.000 F 
ATOM     29  F   UNL     1      -2.331  11.051  16.314  0.00  0.00    +0.000 F 
ENDBRANCH  25  26
ENDBRANCH  18  19
ENDBRANCH   4  18
TORSDOF 5
ENDMDL
MODEL 5
REMARK VINA RESULT:      -6.9      1.823      2.393
REMARK  Name = 
REMARK  7 active torsions:
REMARK  status: ('A' for Active; 'I' for Inactive)
REMARK    1  A    between atoms: C_1  and  C_2
REMARK    2  A    between atoms: C_5  and  C_6
REMARK    3  A    between atoms: C_7  and  S_8
REMARK    4  A    between atoms: S_8  and  N_11
REMARK    5  A    between atoms: C_14  and  O_15
REMARK    6  A    between atoms: O_15  and  C_16
REMARK    7  A    between atoms: C_22  and  C_23
REMARK                            x       y       z     vdW  Elec       q    Type
REMARK                         _______ _______ _______ _____ _____    ______ ____
ROOT
ATOM      1  N   UNL     1       3.960   4.959  18.688  0.00  0.00    +0.000 NA
ATOM      2  C   UNL     1       3.272   5.039  20.000  0.00  0.00    +0.000 C 
ATOM      3  C   UNL     1       1.789   5.301  19.833  0.00  0.00    +0.000 C 
ATOM      4  C   UNL     1       1.537   6.615  19.095  0.00  0.00    +0.000 C 
ATOM      5  C   UNL     1       2.172   6.471  17.709  0.00  0.00    +0.000 C 
ATOM      6  C   UNL     1       3.658   6.097  17.758  0.00  0.00    +0.000 C 
ENDROOT
BRANCH   1   7
ATOM      7  S   UNL     1       5.675   4.745  18.870  0.00  0.00    +0.000 S 
ATOM      8  O   UNL     1       5.936   3.321  18.930  0.00  0.00    +0.000 OA
ATOM      9  O   UNL     1       6.130   5.640  19.906  0.00  0.00    +0.000 OA
BRANCH   7  16
ATOM     10  C   UNL     1       5.534   3.510  15.785  0.00  0.00    +0.000 C 
ATOM     11  C   UNL     1       6.343   4.694  16.173  0.00  0.00    +0.000 A 
ATOM     12  N   UNL     1       7.080   5.327  15.254  0.00  0.00    +0.000 NA
ATOM     13  N   UNL     1       7.641   6.346  15.927  0.00  0.00    +0.000 N 
ATOM     14  C   UNL     1       7.333   6.364  17.262  0.00  0.00    +0.000 A 
ATOM     15  C   UNL     1       7.894   7.402  18.161  0.00  0.00    +0.000 C 
ATOM     16  C   UNL     1       6.473   5.292  17.445  0.00  0.00    +0.000 A 
ATOM     17  H   UNL     1       8.221   6.993  15.412  0.00  0.00    +0.000 HD
ENDBRANCH   7  16
ENDBRANCH   1   7
BRANCH   4  18
ATOM     18  O   UNL     1       2.128   7.754  19.746  0.00  0.00    +0.000 OA
BRANCH  18  19
ATOM     19  C   UNL     1       1.642   9.009  19.489  0.00  0.00    +0.000 A 
ATOM     20  C   UNL     1       1.972   9.745  18.342  0.00  0.00    +0.000 A 
ATOM     21  C   UNL     1       1.369  10.975  18.070  0.00  0.00    +0.000 A 
ATOM     22  C   UNL     1       0.448  11.504  18.960  0.00  0.00    +0.000 A 
ATOM     23 CL   UNL     1      -0.298  13.015  18.626  0.00  0.00    +0.000 Cl
ATOM     24  C   UNL     1       0.128  10.809  20.122  0.00  0.00    +0.000 A 
ATOM     25  C   UNL     1       0.714   9.549  20.401  0.00  0.00    +0.000 A 
BRANCH  25  26
ATOM     26  C   UNL     1       0.301   8.874  21.686  0.00  0.00    +0.000 C 
ATOM     27  F   UNL     1      -0.446   7.746  21.559  0.00  0.00    +0.000 F 
ATOM     28  F   UNL     1       1.389   8.509  22.426  0.00  0.00    +0.000 F 
ATOM     29  F   UNL     1      -0.416   9.711  22.490  0.00  0.00    +0.000 F 
ENDBRANCH  25  26
ENDBRANCH  18  19
ENDBRANCH   4  18
TORSDOF 5
ENDMDL
MODEL 6
REMARK VINA RESULT:      -6.8      1.487      2.044
REMARK  Name = 
REMARK  7 active torsions:
REMARK  status: ('A' for Active; 'I' for Inactive)
REMARK    1  A    between atoms: C_1  and  C_2
REMARK    2  A    between atoms: C_5  and  C_6
REMARK    3  A    between atoms: C_7  and  S_8
REMARK    4  A    between atoms: S_8  and  N_11
REMARK    5  A    between atoms: C_14  and  O_15
REMARK    6  A    between atoms: O_15  and  C_16
REMARK    7  A    between atoms: C_22  and  C_23
REMARK                            x       y       z     vdW  Elec       q    Type
REMARK                         _______ _______ _______ _____ _____    ______ ____
ROOT
ATOM      1  N   UNL     1       4.211   4.169  18.336  0.00  0.00    +0.000 NA
ATOM      2  C   UNL     1       4.340   4.685  19.721  0.00  0.00    +0.000 C 
ATOM      3  C   UNL     1       3.002   4.709  20.430  0.00  0.00    +0.000 C 
ATOM      4  C   UNL     1       2.000   5.597  19.694  0.00  0.00    +0.000 C 
ATOM      5  C   UNL     1       1.810   4.989  18.302  0.00  0.00    +0.000 C 
ATOM      6  C   UNL     1       3.124   4.816  17.531  0.00  0.00    +0.000 C 
ENDROOT
BRANCH   1   7
ATOM      7  S   UNL     1       5.727   4.217  17.485  0.00  0.00    +0.000 S 
ATOM      8  O   UNL     1       5.471   3.834  16.111  0.00  0.00    +0.000 OA
ATOM      9  O   UNL     1       6.713   3.536  18.288  0.00  0.00    +0.000 OA
BRANCH   7  16
ATOM     10  C   UNL     1       7.990   5.753  19.378  0.00  0.00    +0.000 C 
ATOM     11  C   UNL     1       7.257   6.403  18.261  0.00  0.00    +0.000 A 
ATOM     12  N   UNL     1       7.489   7.688  17.971  0.00  0.00    +0.000 NA
ATOM     13  N   UNL     1       6.700   7.934  16.911  0.00  0.00    +0.000 N 
ATOM     14  C   UNL     1       5.927   6.867  16.537  0.00  0.00    +0.000 A 
ATOM     15  C   UNL     1       4.974   6.973  15.406  0.00  0.00    +0.000 C 
ATOM     16  C   UNL     1       6.283   5.845  17.405  0.00  0.00    +0.000 A 
ATOM     17  H   UNL     1       6.741   8.852  16.491  0.00  0.00    +0.000 HD
ENDBRANCH   7  16
ENDBRANCH   1   7
BRANCH   4  18
ATOM     18  O   UNL     1       2.454   6.954  19.535  0.00  0.00    +0.000 OA
BRANCH  18  19
ATOM     19  C   UNL     1       1.755   7.974  20.125  0.00  0.00    +0.000 A 
ATOM     20  C   UNL     1       1.387   7.978  21.478  0.00  0.00    +0.000 A 
ATOM     21  C   UNL     1       0.769   9.088  22.060  0.00  0.00    +0.000 A 
ATOM     22  C   UNL     1       0.480  10.200  21.287  0.00  0.00    +0.000 A 
ATOM     23 CL   UNL     1      -0.277  11.568  22.001  0.00  0.00    +0.000 Cl
ATOM     24  C   UNL     1       0.804  10.209  19.934  0.00  0.00    +0.000 A 
ATOM     25  C   UNL     1       1.452   9.100  19.334  0.00  0.00    +0.000 A 
BRANCH  25  26
ATOM     26  C   UNL     1       1.763   9.206  17.861  0.00  0.00    +0.000 C 
ATOM     27  F   UNL     1       2.753   8.400  17.397  0.00  0.00    +0.000 F 
ATOM     28  F   UNL     1       0.667   8.914  17.101  0.00  0.00    +0.000 F 
ATOM     29  F   UNL     1       2.116  10.476  17.508  0.00  0.00    +0.000 F 
ENDBRANCH  25  26
ENDBRANCH  18  19
ENDBRANCH   4  18
TORSDOF 5
ENDMDL
MODEL 7
REMARK VINA RESULT:      -6.8      6.070      9.930
REMARK  Name = 
REMARK  7 active torsions:
REMARK  status: ('A' for Active; 'I' for Inactive)
REMARK    1  A    between atoms: C_1  and  C_2
REMARK    2  A    between atoms: C_5  and  C_6
REMARK    3  A    between atoms: C_7  and  S_8
REMARK    4  A    between atoms: S_8  and  N_11
REMARK    5  A    between atoms: C_14  and  O_15
REMARK    6  A    between atoms: O_15  and  C_16
REMARK    7  A    between atoms: C_22  and  C_23
REMARK                            x       y       z     vdW  Elec       q    Type
REMARK                         _______ _______ _______ _____ _____    ______ ____
ROOT
ATOM      1  N   UNL     1      -2.112  12.765  20.254  0.00  0.00    +0.000 NA
ATOM      2  C   UNL     1      -0.860  13.454  19.856  0.00  0.00    +0.000 C 
ATOM      3  C   UNL     1      -0.443  13.078  18.449  0.00  0.00    +0.000 C 
ATOM      4  C   UNL     1      -0.206  11.574  18.324  0.00  0.00    +0.000 C 
ATOM      5  C   UNL     1      -1.537  10.889  18.644  0.00  0.00    +0.000 C 
ATOM      6  C   UNL     1      -2.110  11.285  20.010  0.00  0.00    +0.000 C 
ENDROOT
BRANCH   1   7
ATOM      7  S   UNL     1      -2.552  13.122  21.898  0.00  0.00    +0.000 S 
ATOM      8  O   UNL     1      -2.420  14.552  22.086  0.00  0.00    +0.000 OA
ATOM      9  O   UNL     1      -1.874  12.181  22.756  0.00  0.00    +0.000 OA
BRANCH   7  16
ATOM     10  C   UNL     1      -4.224  12.632  24.730  0.00  0.00    +0.000 C 
ATOM     11  C   UNL     1      -4.843  12.595  23.380  0.00  0.00    +0.000 A 
ATOM     12  N   UNL     1      -6.150  12.346  23.253  0.00  0.00    +0.000 NA
ATOM     13  N   UNL     1      -6.372  12.421  21.929  0.00  0.00    +0.000 N 
ATOM     14  C   UNL     1      -5.243  12.659  21.191  0.00  0.00    +0.000 A 
ATOM     15  C   UNL     1      -5.301  12.739  19.711  0.00  0.00    +0.000 C 
ATOM     16  C   UNL     1      -4.226  12.787  22.125  0.00  0.00    +0.000 A 
ATOM     17  H   UNL     1      -7.320  12.302  21.599  0.00  0.00    +0.000 HD
ENDBRANCH   7  16
ENDBRANCH   1   7
BRANCH   4  18
ATOM     18  O   UNL     1       0.788  11.078  19.238  0.00  0.00    +0.000 OA
BRANCH  18  19
ATOM     19  C   UNL     1       1.297   9.818  19.067  0.00  0.00    +0.000 A 
ATOM     20  C   UNL     1       1.871   9.373  17.867  0.00  0.00    +0.000 A 
ATOM     21  C   UNL     1       2.472   8.116  17.772  0.00  0.00    +0.000 A 
ATOM     22  C   UNL     1       2.480   7.269  18.869  0.00  0.00    +0.000 A 
ATOM     23 CL   UNL     1       3.222   5.724  18.756  0.00  0.00    +0.000 Cl
ATOM     24  C   UNL     1       1.887   7.674  20.061  0.00  0.00    +0.000 A 
ATOM     25  C   UNL     1       1.293   8.955  20.180  0.00  0.00    +0.000 A 
BRANCH  25  26
ATOM     26  C   UNL     1       0.678   9.300  21.514  0.00  0.00    +0.000 C 
ATOM     27  F   UNL     1      -0.604   8.893  21.709  0.00  0.00    +0.000 F 
ATOM     28  F   UNL     1       1.393   8.760  22.545  0.00  0.00    +0.000 F 
ATOM     29  F   UNL     1       0.683  10.646  21.741  0.00  0.00    +0.000 F 
ENDBRANCH  25  26
ENDBRANCH  18  19
ENDBRANCH   4  18
TORSDOF 5
ENDMDL
MODEL 8
REMARK VINA RESULT:      -6.8      1.832      2.853
REMARK  Name = 
REMARK  7 active torsions:
REMARK  status: ('A' for Active; 'I' for Inactive)
REMARK    1  A    between atoms: C_1  and  C_2
REMARK    2  A    between atoms: C_5  and  C_6
REMARK    3  A    between atoms: C_7  and  S_8
REMARK    4  A    between atoms: S_8  and  N_11
REMARK    5  A    between atoms: C_14  and  O_15
REMARK    6  A    between atoms: O_15  and  C_16
REMARK    7  A    between atoms: C_22  and  C_23
REMARK                            x       y       z     vdW  Elec       q    Type
REMARK                         _______ _______ _______ _____ _____    ______ ____
ROOT
ATOM      1  N   UNL     1       3.911   4.892  18.773  0.00  0.00    +0.000 NA
ATOM      2  C   UNL     1       3.277   5.040  20.106  0.00  0.00    +0.000 C 
ATOM      3  C   UNL     1       1.790   5.306  19.986  0.00  0.00    +0.000 C 
ATOM      4  C   UNL     1       1.518   6.585  19.196  0.00  0.00    +0.000 C 
ATOM      5  C   UNL     1       2.095   6.370  17.794  0.00  0.00    +0.000 C 
ATOM      6  C   UNL     1       3.579   5.986  17.802  0.00  0.00    +0.000 C 
ENDROOT
BRANCH   1   7
ATOM      7  S   UNL     1       5.631   4.672  18.896  0.00  0.00    +0.000 S 
ATOM      8  O   UNL     1       5.885   3.250  19.014  0.00  0.00    +0.000 OA
ATOM      9  O   UNL     1       6.133   5.612  19.869  0.00  0.00    +0.000 OA
BRANCH   7  16
ATOM     10  C   UNL     1       7.828   7.106  18.336  0.00  0.00    +0.000 C 
ATOM     11  C   UNL     1       7.303   6.198  17.283  0.00  0.00    +0.000 A 
ATOM     12  N   UNL     1       7.709   6.340  16.017  0.00  0.00    +0.000 NA
ATOM     13  N   UNL     1       7.076   5.356  15.356  0.00  0.00    +0.000 N 
ATOM     14  C   UNL     1       6.234   4.614  16.141  0.00  0.00    +0.000 A 
ATOM     15  C   UNL     1       5.431   3.508  15.566  0.00  0.00    +0.000 C 
ATOM     16  C   UNL     1       6.374   5.143  17.415  0.00  0.00    +0.000 A 
ATOM     17  H   UNL     1       7.268   5.247  14.370  0.00  0.00    +0.000 HD
ENDBRANCH   7  16
ENDBRANCH   1   7
BRANCH   4  18
ATOM     18  O   UNL     1       2.142   7.749  19.768  0.00  0.00    +0.000 OA
BRANCH  18  19
ATOM     19  C   UNL     1       1.639   8.993  19.488  0.00  0.00    +0.000 A 
ATOM     20  C   UNL     1       1.936   9.700  18.314  0.00  0.00    +0.000 A 
ATOM     21  C   UNL     1       1.317  10.918  18.024  0.00  0.00    +0.000 A 
ATOM     22  C   UNL     1       0.413  11.464  18.921  0.00  0.00    +0.000 A 
ATOM     23 CL   UNL     1      -0.352  12.960  18.563  0.00  0.00    +0.000 Cl
ATOM     24  C   UNL     1       0.127  10.798  20.108  0.00  0.00    +0.000 A 
ATOM     25  C   UNL     1       0.729   9.551  20.407  0.00  0.00    +0.000 A 
BRANCH  25  26
ATOM     26  C   UNL     1       0.352   8.908  21.719  0.00  0.00    +0.000 C 
ATOM     27  F   UNL     1       1.383   8.505  22.508  0.00  0.00    +0.000 F 
ATOM     28  F   UNL     1      -0.389   9.756  22.492  0.00  0.00    +0.000 F 
ATOM     29  F   UNL     1      -0.434   7.808  21.537  0.00  0.00    +0.000 F 
ENDBRANCH  25  26
ENDBRANCH  18  19
ENDBRANCH   4  18
TORSDOF 5
ENDMDL
MODEL 9
REMARK VINA RESULT:      -6.7      6.974     10.950
REMARK  Name = 
REMARK  7 active torsions:
REMARK  status: ('A' for Active; 'I' for Inactive)
REMARK    1  A    between atoms: C_1  and  C_2
REMARK    2  A    between atoms: C_5  and  C_6
REMARK    3  A    between atoms: C_7  and  S_8
REMARK    4  A    between atoms: S_8  and  N_11
REMARK    5  A    between atoms: C_14  and  O_15
REMARK    6  A    between atoms: O_15  and  C_16
REMARK    7  A    between atoms: C_22  and  C_23
REMARK                            x       y       z     vdW  Elec       q    Type
REMARK                         _______ _______ _______ _____ _____    ______ ____
ROOT
ATOM      1  N   UNL     1      -2.811  13.153  21.888  0.00  0.00    +0.000 NA
ATOM      2  C   UNL     1      -1.544  12.596  22.422  0.00  0.00    +0.000 C 
ATOM      3  C   UNL     1      -0.381  12.870  21.489  0.00  0.00    +0.000 C 
ATOM      4  C   UNL     1      -0.618  12.250  20.113  0.00  0.00    +0.000 C 
ATOM      5  C   UNL     1      -1.876  12.911  19.541  0.00  0.00    +0.000 C 
ATOM      6  C   UNL     1      -3.096  12.789  20.461  0.00  0.00    +0.000 C 
ENDROOT
BRANCH   1   7
ATOM      7  S   UNL     1      -4.165  12.771  22.909  0.00  0.00    +0.000 S 
ATOM      8  O   UNL     1      -3.669  11.984  24.020  0.00  0.00    +0.000 OA
ATOM      9  O   UNL     1      -5.239  12.299  22.068  0.00  0.00    +0.000 OA
BRANCH   7  16
ATOM     10  C   UNL     1      -2.510  15.197  24.469  0.00  0.00    +0.000 C 
ATOM     11  C   UNL     1      -3.980  15.194  24.257  0.00  0.00    +0.000 A 
ATOM     12  N   UNL     1      -4.721  16.209  24.713  0.00  0.00    +0.000 NA
ATOM     13  N   UNL     1      -5.972  15.904  24.327  0.00  0.00    +0.000 N 
ATOM     14  C   UNL     1      -6.073  14.701  23.680  0.00  0.00    +0.000 A 
ATOM     15  C   UNL     1      -7.386  14.192  23.213  0.00  0.00    +0.000 C 
ATOM     16  C   UNL     1      -4.774  14.220  23.614  0.00  0.00    +0.000 A 
ATOM     17  H   UNL     1      -6.708  16.564  24.535  0.00  0.00    +0.000 HD
ENDBRANCH   7  16
ENDBRANCH   1   7
BRANCH   4  18
ATOM     18  O   UNL     1      -0.837  10.828  20.160  0.00  0.00    +0.000 OA
BRANCH  18  19
ATOM     19  C   UNL     1       0.071   9.984  19.578  0.00  0.00    +0.000 A 
ATOM     20  C   UNL     1       0.395  10.019  18.214  0.00  0.00    +0.000 A 
ATOM     21  C   UNL     1       1.404   9.210  17.686  0.00  0.00    +0.000 A 
ATOM     22  C   UNL     1       2.084   8.328  18.511  0.00  0.00    +0.000 A 
ATOM     23 CL   UNL     1       3.328   7.335  17.864  0.00  0.00    +0.000 Cl
ATOM     24  C   UNL     1       1.758   8.250  19.861  0.00  0.00    +0.000 A 
ATOM     25  C   UNL     1       0.753   9.079  20.416  0.00  0.00    +0.000 A 
BRANCH  25  26
ATOM     26  C   UNL     1       0.474   8.920  21.891  0.00  0.00    +0.000 C 
ATOM     27  F   UNL     1      -0.743   8.414  22.221  0.00  0.00    +0.000 F 
ATOM     28  F   UNL     1       1.386   8.093  22.481  0.00  0.00    +0.000 F 
ATOM     29  F   UNL     1       0.581  10.106  22.557  0.00  0.00    +0.000 F 
ENDBRANCH  25  26
ENDBRANCH  18  19
ENDBRANCH   4  18
TORSDOF 5
ENDMDL
