MODEL 1
REMARK VINA RESULT:      -8.1      0.000      0.000
REMARK  Name = 
REMARK  4 active torsions:
REMARK  status: ('A' for Active; 'I' for Inactive)
REMARK    1  A    between atoms: N_3  and  C_4
REMARK    2  A    between atoms: C_4  and  C_5
REMARK    3  A    between atoms: N_15  and  C_16
REMARK    4  A    between atoms: C_16  and  C_17
REMARK                            x       y       z     vdW  Elec       q    Type
REMARK                         _______ _______ _______ _____ _____    ______ ____
ROOT
ATOM      1  O   UNL     1       8.309   6.967  18.655  0.00  0.00    +0.000 OA
ATOM      2  C   UNL     1       7.822   7.690  17.796  0.00  0.00    +0.000 C 
ATOM      3  N   UNL     1       7.105   7.245  16.718  0.00  0.00    +0.000 N 
ATOM      4  N   UNL     1       7.951   9.051  17.805  0.00  0.00    +0.000 N 
ATOM      5  H   UNL     1       6.439   7.894  16.326  0.00  0.00    +0.000 HD
ATOM      6  H   UNL     1       7.831   9.535  16.925  0.00  0.00    +0.000 HD
ENDROOT
BRANCH   3   7
ATOM      7  C   UNL     1       6.806   5.836  16.564  0.00  0.00    +0.000 C 
BRANCH   7   8
ATOM      8  C   UNL     1       5.451   5.481  17.125  0.00  0.00    +0.000 A 
ATOM      9  C   UNL     1       4.510   6.466  17.444  0.00  0.00    +0.000 A 
ATOM     10  C   UNL     1       3.257   6.111  17.956  0.00  0.00    +0.000 A 
ATOM     11  C   UNL     1       2.911   4.764  18.140  0.00  0.00    +0.000 A 
ATOM     12  C   UNL     1       3.853   3.767  17.840  0.00  0.00    +0.000 A 
ATOM     13  C   UNL     1       5.108   4.136  17.325  0.00  0.00    +0.000 A 
ATOM     14  C   UNL     1       3.522   2.300  17.978  0.00  0.00    +0.000 C 
ATOM     15  C   UNL     1       2.288   2.029  18.837  0.00  0.00    +0.000 C 
ATOM     16  C   UNL     1       1.152   2.965  18.449  0.00  0.00    +0.000 C 
ATOM     17  C   UNL     1       1.552   4.418  18.701  0.00  0.00    +0.000 C 
ENDBRANCH   7   8
ENDBRANCH   3   7
BRANCH   4  18
ATOM     18  C   UNL     1       8.785   9.696  18.797  0.00  0.00    +0.000 C 
BRANCH  18  19
ATOM     19  C   UNL     1       9.287  10.983  18.262  0.00  0.00    +0.000 A 
ATOM     20  N   UNL     1       8.596  12.003  17.800  0.00  0.00    +0.000 NA
ATOM     21  N   UNL     1       9.518  12.945  17.406  0.00  0.00    +0.000 NA
ATOM     22  N   UNL     1      10.754  12.510  17.612  0.00  0.00    +0.000 NA
ATOM     23  N   UNL     1      10.612  11.289  18.144  0.00  0.00    +0.000 N 
ATOM     24  H   UNL     1      11.437  10.751  18.378  0.00  0.00    +0.000 HD
ENDBRANCH  18  19
ENDBRANCH   4  18
TORSDOF 4
ENDMDL
MODEL 2
REMARK VINA RESULT:      -8.0      4.058      6.291
REMARK  Name = 
REMARK  4 active torsions:
REMARK  status: ('A' for Active; 'I' for Inactive)
REMARK    1  A    between atoms: N_3  and  C_4
REMARK    2  A    between atoms: C_4  and  C_5
REMARK    3  A    between atoms: N_15  and  C_16
REMARK    4  A    between atoms: C_16  and  C_17
REMARK                            x       y       z     vdW  Elec       q    Type
REMARK                         _______ _______ _______ _____ _____    ______ ____
ROOT
ATOM      1  O   UNL     1       7.608   4.380  16.081  0.00  0.00    +0.000 OA
ATOM      2  C   UNL     1       6.845   5.183  15.558  0.00  0.00    +0.000 C 
ATOM      3  N   UNL     1       6.045   6.056  16.245  0.00  0.00    +0.000 N 
ATOM      4  N   UNL     1       6.689   5.293  14.205  0.00  0.00    +0.000 N 
ATOM      5  H   UNL     1       5.784   6.901  15.757  0.00  0.00    +0.000 HD
ATOM      6  H   UNL     1       5.831   5.709  13.868  0.00  0.00    +0.000 HD
ENDROOT
BRANCH   3   7
ATOM      7  C   UNL     1       6.112   6.135  17.690  0.00  0.00    +0.000 C 
BRANCH   7   8
ATOM      8  C   UNL     1       4.819   5.709  18.340  0.00  0.00    +0.000 A 
ATOM      9  C   UNL     1       3.638   6.440  18.170  0.00  0.00    +0.000 A 
ATOM     10  C   UNL     1       2.450   6.020  18.778  0.00  0.00    +0.000 A 
ATOM     11  C   UNL     1       2.412   4.850  19.551  0.00  0.00    +0.000 A 
ATOM     12  C   UNL     1       3.594   4.117  19.743  0.00  0.00    +0.000 A 
ATOM     13  C   UNL     1       4.782   4.548  19.127  0.00  0.00    +0.000 A 
ATOM     14  C   UNL     1       3.606   2.829  20.531  0.00  0.00    +0.000 C 
ATOM     15  C   UNL     1       2.370   2.638  21.410  0.00  0.00    +0.000 C 
ATOM     16  C   UNL     1       1.105   2.966  20.630  0.00  0.00    +0.000 C 
ATOM     17  C   UNL     1       1.113   4.431  20.197  0.00  0.00    +0.000 C 
ENDBRANCH   7   8
ENDBRANCH   3   7
BRANCH   4  18
ATOM     18  C   UNL     1       7.356   4.363  13.317  0.00  0.00    +0.000 C 
BRANCH  18  19
ATOM     19  C   UNL     1       6.346   3.590  12.559  0.00  0.00    +0.000 A 
ATOM     20  N   UNL     1       5.077   3.873  12.361  0.00  0.00    +0.000 NA
ATOM     21  N   UNL     1       4.564   2.839  11.614  0.00  0.00    +0.000 NA
ATOM     22  N   UNL     1       5.496   1.929  11.365  0.00  0.00    +0.000 NA
ATOM     23  N   UNL     1       6.606   2.395  11.952  0.00  0.00    +0.000 N 
ATOM     24  H   UNL     1       7.459   1.852  11.903  0.00  0.00    +0.000 HD
ENDBRANCH  18  19
ENDBRANCH   4  18
TORSDOF 4
ENDMDL
MODEL 3
REMARK VINA RESULT:      -8.0      1.535      1.997
REMARK  Name = 
REMARK  4 active torsions:
REMARK  status: ('A' for Active; 'I' for Inactive)
REMARK    1  A    between atoms: N_3  and  C_4
REMARK    2  A    between atoms: C_4  and  C_5
REMARK    3  A    between atoms: N_15  and  C_16
REMARK    4  A    between atoms: C_16  and  C_17
REMARK                            x       y       z     vdW  Elec       q    Type
REMARK                         _______ _______ _______ _____ _____    ______ ____
ROOT
ATOM      1  O   UNL     1       7.696   7.229  16.648  0.00  0.00    +0.000 OA
ATOM      2  C   UNL     1       7.895   7.178  17.854  0.00  0.00    +0.000 C 
ATOM      3  N   UNL     1       7.745   6.054  18.621  0.00  0.00    +0.000 N 
ATOM      4  N   UNL     1       8.281   8.260  18.594  0.00  0.00    +0.000 N 
ATOM      5  H   UNL     1       8.296   6.013  19.466  0.00  0.00    +0.000 HD
ATOM      6  H   UNL     1       8.096   8.235  19.588  0.00  0.00    +0.000 HD
ENDROOT
BRANCH   3   7
ATOM      7  C   UNL     1       7.401   4.786  18.010  0.00  0.00    +0.000 C 
BRANCH   7   8
ATOM      8  C   UNL     1       5.910   4.553  17.993  0.00  0.00    +0.000 A 
ATOM      9  C   UNL     1       5.243   4.161  16.829  0.00  0.00    +0.000 A 
ATOM     10  C   UNL     1       3.861   3.944  16.841  0.00  0.00    +0.000 A 
ATOM     11  C   UNL     1       3.119   4.095  18.022  0.00  0.00    +0.000 A 
ATOM     12  C   UNL     1       3.774   4.507  19.194  0.00  0.00    +0.000 A 
ATOM     13  C   UNL     1       5.163   4.721  19.170  0.00  0.00    +0.000 A 
ATOM     14  C   UNL     1       3.036   4.647  20.504  0.00  0.00    +0.000 C 
ATOM     15  C   UNL     1       1.518   4.714  20.347  0.00  0.00    +0.000 C 
ATOM     16  C   UNL     1       1.033   3.638  19.386  0.00  0.00    +0.000 C 
ATOM     17  C   UNL     1       1.628   3.859  17.997  0.00  0.00    +0.000 C 
ENDBRANCH   7   8
ENDBRANCH   3   7
BRANCH   4  18
ATOM     18  C   UNL     1       8.364   9.569  17.980  0.00  0.00    +0.000 C 
BRANCH  18  19
ATOM     19  C   UNL     1       9.267  10.433  18.774  0.00  0.00    +0.000 A 
ATOM     20  N   UNL     1       9.306  10.598  20.079  0.00  0.00    +0.000 NA
ATOM     21  N   UNL     1      10.301  11.515  20.322  0.00  0.00    +0.000 NA
ATOM     22  N   UNL     1      10.859  11.916  19.188  0.00  0.00    +0.000 NA
ATOM     23  N   UNL     1      10.217  11.245  18.224  0.00  0.00    +0.000 N 
ATOM     24  H   UNL     1      10.471  11.401  17.256  0.00  0.00    +0.000 HD
ENDBRANCH  18  19
ENDBRANCH   4  18
TORSDOF 4
ENDMDL
MODEL 4
REMARK VINA RESULT:      -7.9      1.041      1.052
REMARK  Name = 
REMARK  4 active torsions:
REMARK  status: ('A' for Active; 'I' for Inactive)
REMARK    1  A    between atoms: N_3  and  C_4
REMARK    2  A    between atoms: C_4  and  C_5
REMARK    3  A    between atoms: N_15  and  C_16
REMARK    4  A    between atoms: C_16  and  C_17
REMARK                            x       y       z     vdW  Elec       q    Type
REMARK                         _______ _______ _______ _____ _____    ______ ____
ROOT
ATOM      1  O   UNL     1       8.201   6.944  18.664  0.00  0.00    +0.000 OA
ATOM      2  C   UNL     1       7.683   7.707  17.859  0.00  0.00    +0.000 C 
ATOM      3  N   UNL     1       6.791   7.329  16.892  0.00  0.00    +0.000 N 
ATOM      4  N   UNL     1       7.951   9.047  17.820  0.00  0.00    +0.000 N 
ATOM      5  H   UNL     1       6.149   8.041  16.574  0.00  0.00    +0.000 HD
ATOM      6  H   UNL     1       7.768   9.533  16.952  0.00  0.00    +0.000 HD
ENDROOT
BRANCH   3   7
ATOM      7  C   UNL     1       6.331   5.958  16.810  0.00  0.00    +0.000 C 
BRANCH   7   8
ATOM      8  C   UNL     1       5.108   5.719  17.660  0.00  0.00    +0.000 A 
ATOM      9  C   UNL     1       4.070   6.654  17.730  0.00  0.00    +0.000 A 
ATOM     10  C   UNL     1       2.943   6.406  18.521  0.00  0.00    +0.000 A 
ATOM     11  C   UNL     1       2.821   5.210  19.243  0.00  0.00    +0.000 A 
ATOM     12  C   UNL     1       3.864   4.272  19.197  0.00  0.00    +0.000 A 
ATOM     13  C   UNL     1       4.991   4.531  18.398  0.00  0.00    +0.000 A 
ATOM     14  C   UNL     1       3.770   2.949  19.921  0.00  0.00    +0.000 C 
ATOM     15  C   UNL     1       2.685   2.916  20.995  0.00  0.00    +0.000 C 
ATOM     16  C   UNL     1       1.389   3.512  20.464  0.00  0.00    +0.000 C 
ATOM     17  C   UNL     1       1.593   4.979  20.092  0.00  0.00    +0.000 C 
ENDBRANCH   7   8
ENDBRANCH   3   7
BRANCH   4  18
ATOM     18  C   UNL     1       8.969   9.610  18.682  0.00  0.00    +0.000 C 
BRANCH  18  19
ATOM     19  C   UNL     1       9.341  10.958  18.195  0.00  0.00    +0.000 A 
ATOM     20  N   UNL     1       8.550  11.947  17.838  0.00  0.00    +0.000 NA
ATOM     21  N   UNL     1       9.374  12.975  17.444  0.00  0.00    +0.000 NA
ATOM     22  N   UNL     1      10.649  12.624  17.547  0.00  0.00    +0.000 NA
ATOM     23  N   UNL     1      10.630  11.369  18.013  0.00  0.00    +0.000 N 
ATOM     24  H   UNL     1      11.505  10.882  18.163  0.00  0.00    +0.000 HD
ENDBRANCH  18  19
ENDBRANCH   4  18
TORSDOF 4
ENDMDL
MODEL 5
REMARK VINA RESULT:      -7.8      4.826      6.921
REMARK  Name = 
REMARK  4 active torsions:
REMARK  status: ('A' for Active; 'I' for Inactive)
REMARK    1  A    between atoms: N_3  and  C_4
REMARK    2  A    between atoms: C_4  and  C_5
REMARK    3  A    between atoms: N_15  and  C_16
REMARK    4  A    between atoms: C_16  and  C_17
REMARK                            x       y       z     vdW  Elec       q    Type
REMARK                         _______ _______ _______ _____ _____    ______ ____
ROOT
ATOM      1  O   UNL     1       6.428   5.772  14.914  0.00  0.00    +0.000 OA
ATOM      2  C   UNL     1       6.490   4.575  15.160  0.00  0.00    +0.000 C 
ATOM      3  N   UNL     1       6.633   4.045  16.414  0.00  0.00    +0.000 N 
ATOM      4  N   UNL     1       6.439   3.610  14.193  0.00  0.00    +0.000 N 
ATOM      5  H   UNL     1       6.279   3.108  16.546  0.00  0.00    +0.000 HD
ATOM      6  H   UNL     1       6.830   2.704  14.419  0.00  0.00    +0.000 HD
ENDROOT
BRANCH   3   7
ATOM      7  C   UNL     1       6.644   4.904  17.580  0.00  0.00    +0.000 C 
BRANCH   7   8
ATOM      8  C   UNL     1       5.312   4.915  18.287  0.00  0.00    +0.000 A 
ATOM      9  C   UNL     1       4.429   5.994  18.169  0.00  0.00    +0.000 A 
ATOM     10  C   UNL     1       3.196   5.978  18.829  0.00  0.00    +0.000 A 
ATOM     11  C   UNL     1       2.809   4.874  19.604  0.00  0.00    +0.000 A 
ATOM     12  C   UNL     1       3.694   3.793  19.745  0.00  0.00    +0.000 A 
ATOM     13  C   UNL     1       4.930   3.820  19.076  0.00  0.00    +0.000 A 
ATOM     14  C   UNL     1       3.317   2.560  20.533  0.00  0.00    +0.000 C 
ATOM     15  C   UNL     1       2.125   2.772  21.465  0.00  0.00    +0.000 C 
ATOM     16  C   UNL     1       1.005   3.506  20.742  0.00  0.00    +0.000 C 
ATOM     17  C   UNL     1       1.473   4.894  20.308  0.00  0.00    +0.000 C 
ENDBRANCH   7   8
ENDBRANCH   3   7
BRANCH   4  18
ATOM     18  C   UNL     1       6.421   3.982  12.794  0.00  0.00    +0.000 C 
BRANCH  18  19
ATOM     19  C   UNL     1       6.499   2.764  11.955  0.00  0.00    +0.000 A 
ATOM     20  N   UNL     1       7.523   2.311  11.263  0.00  0.00    +0.000 NA
ATOM     21  N   UNL     1       7.089   1.164  10.641  0.00  0.00    +0.000 NA
ATOM     22  N   UNL     1       5.820   0.919  10.936  0.00  0.00    +0.000 NA
ATOM     23  N   UNL     1       5.451   1.914  11.753  0.00  0.00    +0.000 N 
ATOM     24  H   UNL     1       4.502   1.942  12.104  0.00  0.00    +0.000 HD
ENDBRANCH  18  19
ENDBRANCH   4  18
TORSDOF 4
ENDMDL
MODEL 6
REMARK VINA RESULT:      -7.7      4.484      6.653
REMARK  Name = 
REMARK  4 active torsions:
REMARK  status: ('A' for Active; 'I' for Inactive)
REMARK    1  A    between atoms: N_3  and  C_4
REMARK    2  A    between atoms: C_4  and  C_5
REMARK    3  A    between atoms: N_15  and  C_16
REMARK    4  A    between atoms: C_16  and  C_17
REMARK                            x       y       z     vdW  Elec       q    Type
REMARK                         _______ _______ _______ _____ _____    ______ ____
ROOT
ATOM      1  O   UNL     1       4.657   3.986  18.397  0.00  0.00    +0.000 OA
ATOM      2  C   UNL     1       5.106   5.091  18.672  0.00  0.00    +0.000 C 
ATOM      3  N   UNL     1       4.371   6.122  19.193  0.00  0.00    +0.000 N 
ATOM      4  N   UNL     1       6.413   5.437  18.474  0.00  0.00    +0.000 N 
ATOM      5  H   UNL     1       4.880   6.804  19.736  0.00  0.00    +0.000 HD
ATOM      6  H   UNL     1       6.628   6.422  18.397  0.00  0.00    +0.000 HD
ENDROOT
BRANCH   3   7
ATOM      7  C   UNL     1       2.976   5.934  19.532  0.00  0.00    +0.000 C 
BRANCH   7   8
ATOM      8  C   UNL     1       2.229   7.243  19.602  0.00  0.00    +0.000 A 
ATOM      9  C   UNL     1       2.148   8.100  18.500  0.00  0.00    +0.000 A 
ATOM     10  C   UNL     1       1.443   9.306  18.589  0.00  0.00    +0.000 A 
ATOM     11  C   UNL     1       0.788   9.670  19.774  0.00  0.00    +0.000 A 
ATOM     12  C   UNL     1       0.876   8.827  20.893  0.00  0.00    +0.000 A 
ATOM     13  C   UNL     1       1.586   7.618  20.792  0.00  0.00    +0.000 A 
ATOM     14  C   UNL     1       0.157   9.147  22.182  0.00  0.00    +0.000 C 
ATOM     15  C   UNL     1      -0.292  10.603  22.287  0.00  0.00    +0.000 C 
ATOM     16  C   UNL     1      -0.954  11.051  20.991  0.00  0.00    +0.000 C 
ATOM     17  C   UNL     1       0.042  10.982  19.835  0.00  0.00    +0.000 C 
ENDBRANCH   7   8
ENDBRANCH   3   7
BRANCH   4  18
ATOM     18  C   UNL     1       7.316   4.520  17.810  0.00  0.00    +0.000 C 
BRANCH  18  19
ATOM     19  C   UNL     1       7.089   4.569  16.348  0.00  0.00    +0.000 A 
ATOM     20  N   UNL     1       7.503   5.472  15.485  0.00  0.00    +0.000 NA
ATOM     21  N   UNL     1       7.017   5.083  14.259  0.00  0.00    +0.000 NA
ATOM     22  N   UNL     1       6.308   3.968  14.365  0.00  0.00    +0.000 NA
ATOM     23  N   UNL     1       6.351   3.647  15.664  0.00  0.00    +0.000 N 
ATOM     24  H   UNL     1       5.861   2.822  15.989  0.00  0.00    +0.000 HD
ENDBRANCH  18  19
ENDBRANCH   4  18
TORSDOF 4
ENDMDL
MODEL 7
REMARK VINA RESULT:      -7.7      4.810      6.673
REMARK  Name = 
REMARK  4 active torsions:
REMARK  status: ('A' for Active; 'I' for Inactive)
REMARK    1  A    between atoms: N_3  and  C_4
REMARK    2  A    between atoms: C_4  and  C_5
REMARK    3  A    between atoms: N_15  and  C_16
REMARK    4  A    between atoms: C_16  and  C_17
REMARK                            x       y       z     vdW  Elec       q    Type
REMARK                         _______ _______ _______ _____ _____    ______ ____
ROOT
ATOM      1  O   UNL     1       3.759   3.757  17.405  0.00  0.00    +0.000 OA
ATOM      2  C   UNL     1       4.533   4.703  17.474  0.00  0.00    +0.000 C 
ATOM      3  N   UNL     1       4.383   5.771  18.316  0.00  0.00    +0.000 N 
ATOM      4  N   UNL     1       5.649   4.813  16.693  0.00  0.00    +0.000 N 
ATOM      5  H   UNL     1       5.229   6.256  18.578  0.00  0.00    +0.000 HD
ATOM      6  H   UNL     1       6.034   5.738  16.559  0.00  0.00    +0.000 HD
ENDROOT
BRANCH   3   7
ATOM      7  C   UNL     1       3.293   5.810  19.269  0.00  0.00    +0.000 C 
BRANCH   7   8
ATOM      8  C   UNL     1       2.523   7.106  19.194  0.00  0.00    +0.000 A 
ATOM      9  C   UNL     1       2.446   7.844  18.009  0.00  0.00    +0.000 A 
ATOM     10  C   UNL     1       1.719   9.040  17.963  0.00  0.00    +0.000 A 
ATOM     11  C   UNL     1       1.038   9.511  19.095  0.00  0.00    +0.000 A 
ATOM     12  C   UNL     1       1.122   8.788  20.296  0.00  0.00    +0.000 A 
ATOM     13  C   UNL     1       1.854   7.588  20.330  0.00  0.00    +0.000 A 
ATOM     14  C   UNL     1       0.377   9.224  21.535  0.00  0.00    +0.000 C 
ATOM     15  C   UNL     1      -0.099  10.675  21.484  0.00  0.00    +0.000 C 
ATOM     16  C   UNL     1      -0.747  10.976  20.139  0.00  0.00    +0.000 C 
ATOM     17  C   UNL     1       0.269  10.808  19.011  0.00  0.00    +0.000 C 
ENDBRANCH   7   8
ENDBRANCH   3   7
BRANCH   4  18
ATOM     18  C   UNL     1       5.906   3.843  15.649  0.00  0.00    +0.000 C 
BRANCH  18  19
ATOM     19  C   UNL     1       6.738   4.459  14.591  0.00  0.00    +0.000 A 
ATOM     20  N   UNL     1       7.641   5.410  14.710  0.00  0.00    +0.000 NA
ATOM     21  N   UNL     1       8.119   5.646  13.442  0.00  0.00    +0.000 NA
ATOM     22  N   UNL     1       7.516   4.862  12.557  0.00  0.00    +0.000 NA
ATOM     23  N   UNL     1       6.657   4.124  13.271  0.00  0.00    +0.000 N 
ATOM     24  H   UNL     1       6.069   3.450  12.797  0.00  0.00    +0.000 HD
ENDBRANCH  18  19
ENDBRANCH   4  18
TORSDOF 4
ENDMDL
MODEL 8
REMARK VINA RESULT:      -7.7      3.968      6.449
REMARK  Name = 
REMARK  4 active torsions:
REMARK  status: ('A' for Active; 'I' for Inactive)
REMARK    1  A    between atoms: N_3  and  C_4
REMARK    2  A    between atoms: C_4  and  C_5
REMARK    3  A    between atoms: N_15  and  C_16
REMARK    4  A    between atoms: C_16  and  C_17
REMARK                            x       y       z     vdW  Elec       q    Type
REMARK                         _______ _______ _______ _____ _____    ______ ____
ROOT
ATOM      1  O   UNL     1       7.451   4.671  15.886  0.00  0.00    +0.000 OA
ATOM      2  C   UNL     1       6.692   5.381  15.238  0.00  0.00    +0.000 C 
ATOM      3  N   UNL     1       5.851   6.316  15.777  0.00  0.00    +0.000 N 
ATOM      4  N   UNL     1       6.583   5.310  13.877  0.00  0.00    +0.000 N 
ATOM      5  H   UNL     1       5.591   7.083  15.174  0.00  0.00    +0.000 HD
ATOM      6  H   UNL     1       5.730   5.657  13.460  0.00  0.00    +0.000 HD
ENDROOT
BRANCH   3   7
ATOM      7  C   UNL     1       5.864   6.584  17.200  0.00  0.00    +0.000 C 
BRANCH   7   8
ATOM      8  C   UNL     1       5.061   5.568  17.975  0.00  0.00    +0.000 A 
ATOM      9  C   UNL     1       5.605   4.883  19.066  0.00  0.00    +0.000 A 
ATOM     10  C   UNL     1       4.839   3.950  19.772  0.00  0.00    +0.000 A 
ATOM     11  C   UNL     1       3.506   3.697  19.416  0.00  0.00    +0.000 A 
ATOM     12  C   UNL     1       2.953   4.365  18.311  0.00  0.00    +0.000 A 
ATOM     13  C   UNL     1       3.733   5.301  17.610  0.00  0.00    +0.000 A 
ATOM     14  C   UNL     1       1.512   4.164  17.906  0.00  0.00    +0.000 C 
ATOM     15  C   UNL     1       0.875   2.914  18.510  0.00  0.00    +0.000 C 
ATOM     16  C   UNL     1       1.202   2.812  19.994  0.00  0.00    +0.000 C 
ATOM     17  C   UNL     1       2.710   2.678  20.197  0.00  0.00    +0.000 C 
ENDBRANCH   7   8
ENDBRANCH   3   7
BRANCH   4  18
ATOM     18  C   UNL     1       7.299   4.289  13.142  0.00  0.00    +0.000 C 
BRANCH  18  19
ATOM     19  C   UNL     1       6.337   3.449  12.393  0.00  0.00    +0.000 A 
ATOM     20  N   UNL     1       5.070   3.690  12.131  0.00  0.00    +0.000 NA
ATOM     21  N   UNL     1       4.610   2.602  11.427  0.00  0.00    +0.000 NA
ATOM     22  N   UNL     1       5.571   1.703  11.266  0.00  0.00    +0.000 NA
ATOM     23  N   UNL     1       6.647   2.228  11.866  0.00  0.00    +0.000 N 
ATOM     24  H   UNL     1       7.513   1.704  11.880  0.00  0.00    +0.000 HD
ENDBRANCH  18  19
ENDBRANCH   4  18
TORSDOF 4
ENDMDL
MODEL 9
REMARK VINA RESULT:      -7.7      1.072      1.296
REMARK  Name = 
REMARK  4 active torsions:
REMARK  status: ('A' for Active; 'I' for Inactive)
REMARK    1  A    between atoms: N_3  and  C_4
REMARK    2  A    between atoms: C_4  and  C_5
REMARK    3  A    between atoms: N_15  and  C_16
REMARK    4  A    between atoms: C_16  and  C_17
REMARK                            x       y       z     vdW  Elec       q    Type
REMARK                         _______ _______ _______ _____ _____    ______ ____
ROOT
ATOM      1  O   UNL     1       7.634   6.133  17.867  0.00  0.00    +0.000 OA
ATOM      2  C   UNL     1       7.181   7.145  17.347  0.00  0.00    +0.000 C 
ATOM      3  N   UNL     1       6.212   7.155  16.380  0.00  0.00    +0.000 N 
ATOM      4  N   UNL     1       7.606   8.404  17.666  0.00  0.00    +0.000 N 
ATOM      5  H   UNL     1       5.649   7.990  16.320  0.00  0.00    +0.000 HD
ATOM      6  H   UNL     1       7.450   9.134  16.984  0.00  0.00    +0.000 HD
ENDROOT
BRANCH   3   7
ATOM      7  C   UNL     1       5.588   5.920  15.950  0.00  0.00    +0.000 C 
BRANCH   7   8
ATOM      8  C   UNL     1       4.483   5.491  16.883  0.00  0.00    +0.000 A 
ATOM      9  C   UNL     1       3.749   6.421  17.626  0.00  0.00    +0.000 A 
ATOM     10  C   UNL     1       2.724   5.998  18.480  0.00  0.00    +0.000 A 
ATOM     11  C   UNL     1       2.398   4.638  18.593  0.00  0.00    +0.000 A 
ATOM     12  C   UNL     1       3.139   3.693  17.866  0.00  0.00    +0.000 A 
ATOM     13  C   UNL     1       4.166   4.130  17.011  0.00  0.00    +0.000 A 
ATOM     14  C   UNL     1       2.807   2.220  17.917  0.00  0.00    +0.000 C 
ATOM     15  C   UNL     1       1.920   1.833  19.099  0.00  0.00    +0.000 C 
ATOM     16  C   UNL     1       0.763   2.813  19.241  0.00  0.00    +0.000 C 
ATOM     17  C   UNL     1       1.290   4.217  19.530  0.00  0.00    +0.000 C 
ENDBRANCH   7   8
ENDBRANCH   3   7
BRANCH   4  18
ATOM     18  C   UNL     1       8.718   8.588  18.575  0.00  0.00    +0.000 C 
BRANCH  18  19
ATOM     19  C   UNL     1       8.938  10.034  18.805  0.00  0.00    +0.000 A 
ATOM     20  N   UNL     1       9.316  10.639  19.910  0.00  0.00    +0.000 NA
ATOM     21  N   UNL     1       9.355  11.983  19.618  0.00  0.00    +0.000 NA
ATOM     22  N   UNL     1       8.998  12.203  18.360  0.00  0.00    +0.000 NA
ATOM     23  N   UNL     1       8.738  10.991  17.852  0.00  0.00    +0.000 N 
ATOM     24  H   UNL     1       8.431  10.911  16.891  0.00  0.00    +0.000 HD
ENDBRANCH  18  19
ENDBRANCH   4  18
TORSDOF 4
ENDMDL
