MODEL 1
REMARK VINA RESULT:      -7.1      0.000      0.000
REMARK  Name = 
REMARK  6 active torsions:
REMARK  status: ('A' for Active; 'I' for Inactive)
REMARK    1  A    between atoms: C_2  and  C_15
REMARK    2  A    between atoms: N_3  and  C_4
REMARK    3  A    between atoms: C_4  and  C_5
REMARK    4  A    between atoms: C_5  and  S_6
REMARK    5  A    between atoms: S_6  and  C_7
REMARK    6  A    between atoms: C_7  and  C_8
REMARK                            x       y       z     vdW  Elec       q    Type
REMARK                         _______ _______ _______ _____ _____    ______ ____
ROOT
ATOM      1  O   UNL     1       4.418   3.059  17.396  0.00  0.00    +0.000 OA
ATOM      2  C   UNL     1       4.456   3.522  18.529  0.00  0.00    +0.000 C 
ATOM      3  N   UNL     1       5.543   4.239  18.987  0.00  0.00    +0.000 N 
ATOM      4  H   UNL     1       5.491   4.718  19.877  0.00  0.00    +0.000 HD
ENDROOT
BRANCH   2   5
ATOM      5  C   UNL     1       3.310   3.333  19.470  0.00  0.00    +0.000 A 
ATOM      6  C   UNL     1       2.095   4.018  19.247  0.00  0.00    +0.000 A 
ATOM      7 CL   UNL     1       1.777   4.988  17.847  0.00  0.00    +0.000 Cl
ATOM      8  C   UNL     1       1.029   3.904  20.153  0.00  0.00    +0.000 A 
ATOM      9  C   UNL     1       1.142   3.097  21.280  0.00  0.00    +0.000 A 
ATOM     10  C   UNL     1       2.325   2.403  21.505  0.00  0.00    +0.000 A 
ATOM     11  C   UNL     1       3.406   2.522  20.617  0.00  0.00    +0.000 A 
ATOM     12 CL   UNL     1       4.832   1.645  21.062  0.00  0.00    +0.000 Cl
ENDBRANCH   2   5
BRANCH   3  13
ATOM     13  C   UNL     1       6.740   4.426  18.179  0.00  0.00    +0.000 C 
BRANCH  13  14
ATOM     14  C   UNL     1       7.274   5.864  18.194  0.00  0.00    +0.000 C 
BRANCH  14  15
ATOM     15  S   UNL     1       7.007   6.604  16.543  0.00  0.00    +0.000 S 
BRANCH  15  16
ATOM     16  C   UNL     1       5.876   5.371  15.829  0.00  0.00    +0.000 C 
BRANCH  16  17
ATOM     17  C   UNL     1       6.363   4.922  14.467  0.00  0.00    +0.000 A 
ATOM     18  C   UNL     1       7.509   5.492  13.893  0.00  0.00    +0.000 A 
ATOM     19  C   UNL     1       7.949   5.090  12.625  0.00  0.00    +0.000 A 
ATOM     20  C   UNL     1       7.243   4.115  11.920  0.00  0.00    +0.000 A 
ATOM     21  C   UNL     1       6.100   3.553  12.478  0.00  0.00    +0.000 A 
ATOM     22 CL   UNL     1       5.222   2.357  11.603  0.00  0.00    +0.000 Cl
ATOM     23  C   UNL     1       5.653   3.949  13.743  0.00  0.00    +0.000 A 
ENDBRANCH  16  17
ENDBRANCH  15  16
ENDBRANCH  14  15
ENDBRANCH  13  14
ENDBRANCH   3  13
TORSDOF 6
ENDMDL
MODEL 2
REMARK VINA RESULT:      -6.8      3.322      6.926
REMARK  Name = 
REMARK  6 active torsions:
REMARK  status: ('A' for Active; 'I' for Inactive)
REMARK    1  A    between atoms: C_2  and  C_15
REMARK    2  A    between atoms: N_3  and  C_4
REMARK    3  A    between atoms: C_4  and  C_5
REMARK    4  A    between atoms: C_5  and  S_6
REMARK    5  A    between atoms: S_6  and  C_7
REMARK    6  A    between atoms: C_7  and  C_8
REMARK                            x       y       z     vdW  Elec       q    Type
REMARK                         _______ _______ _______ _____ _____    ______ ____
ROOT
ATOM      1  O   UNL     1       5.331   4.961  19.798  0.00  0.00    +0.000 OA
ATOM      2  C   UNL     1       5.020   4.188  18.901  0.00  0.00    +0.000 C 
ATOM      3  N   UNL     1       4.157   3.131  19.116  0.00  0.00    +0.000 N 
ATOM      4  H   UNL     1       3.817   2.591  18.330  0.00  0.00    +0.000 HD
ENDROOT
BRANCH   2   5
ATOM      5  C   UNL     1       5.561   4.363  17.519  0.00  0.00    +0.000 A 
ATOM      6  C   UNL     1       4.738   4.100  16.402  0.00  0.00    +0.000 A 
ATOM      7 CL   UNL     1       3.054   3.706  16.514  0.00  0.00    +0.000 Cl
ATOM      8  C   UNL     1       5.244   4.197  15.096  0.00  0.00    +0.000 A 
ATOM      9  C   UNL     1       6.566   4.575  14.877  0.00  0.00    +0.000 A 
ATOM     10  C   UNL     1       7.384   4.853  15.965  0.00  0.00    +0.000 A 
ATOM     11  C   UNL     1       6.895   4.742  17.277  0.00  0.00    +0.000 A 
ATOM     12 CL   UNL     1       8.049   5.063  18.529  0.00  0.00    +0.000 Cl
ENDBRANCH   2   5
BRANCH   3  13
ATOM     13  C   UNL     1       3.624   2.826  20.436  0.00  0.00    +0.000 C 
BRANCH  13  14
ATOM     14  C   UNL     1       2.168   2.347  20.416  0.00  0.00    +0.000 C 
BRANCH  14  15
ATOM     15  S   UNL     1       1.085   3.781  20.077  0.00  0.00    +0.000 S 
BRANCH  15  16
ATOM     16  C   UNL     1       2.036   5.092  20.903  0.00  0.00    +0.000 C 
BRANCH  16  17
ATOM     17  C   UNL     1       1.955   6.388  20.123  0.00  0.00    +0.000 A 
ATOM     18  C   UNL     1       2.407   6.453  18.797  0.00  0.00    +0.000 A 
ATOM     19  C   UNL     1       2.349   7.656  18.081  0.00  0.00    +0.000 A 
ATOM     20  C   UNL     1       1.842   8.805  18.689  0.00  0.00    +0.000 A 
ATOM     21  C   UNL     1       1.402   8.750  20.007  0.00  0.00    +0.000 A 
ATOM     22 CL   UNL     1       0.785  10.170  20.761  0.00  0.00    +0.000 Cl
ATOM     23  C   UNL     1       1.456   7.553  20.729  0.00  0.00    +0.000 A 
ENDBRANCH  16  17
ENDBRANCH  15  16
ENDBRANCH  14  15
ENDBRANCH  13  14
ENDBRANCH   3  13
TORSDOF 6
ENDMDL
MODEL 3
REMARK VINA RESULT:      -6.8      4.408      6.567
REMARK  Name = 
REMARK  6 active torsions:
REMARK  status: ('A' for Active; 'I' for Inactive)
REMARK    1  A    between atoms: C_2  and  C_15
REMARK    2  A    between atoms: N_3  and  C_4
REMARK    3  A    between atoms: C_4  and  C_5
REMARK    4  A    between atoms: C_5  and  S_6
REMARK    5  A    between atoms: S_6  and  C_7
REMARK    6  A    between atoms: C_7  and  C_8
REMARK                            x       y       z     vdW  Elec       q    Type
REMARK                         _______ _______ _______ _____ _____    ______ ____
ROOT
ATOM      1  O   UNL     1       4.871   4.014  17.314  0.00  0.00    +0.000 OA
ATOM      2  C   UNL     1       4.844   4.560  18.410  0.00  0.00    +0.000 C 
ATOM      3  N   UNL     1       5.866   5.383  18.838  0.00  0.00    +0.000 N 
ATOM      4  H   UNL     1       5.756   5.922  19.689  0.00  0.00    +0.000 HD
ENDROOT
BRANCH   2   5
ATOM      5  C   UNL     1       3.687   4.361  19.335  0.00  0.00    +0.000 A 
ATOM      6  C   UNL     1       3.520   3.123  19.995  0.00  0.00    +0.000 A 
ATOM      7 CL   UNL     1       4.662   1.823  19.915  0.00  0.00    +0.000 Cl
ATOM      8  C   UNL     1       2.406   2.892  20.819  0.00  0.00    +0.000 A 
ATOM      9  C   UNL     1       1.455   3.888  21.015  0.00  0.00    +0.000 A 
ATOM     10  C   UNL     1       1.614   5.117  20.386  0.00  0.00    +0.000 A 
ATOM     11  C   UNL     1       2.714   5.354  19.546  0.00  0.00    +0.000 A 
ATOM     12 CL   UNL     1       2.744   6.911  18.786  0.00  0.00    +0.000 Cl
ENDBRANCH   2   5
BRANCH   3  13
ATOM     13  C   UNL     1       7.071   5.595  18.048  0.00  0.00    +0.000 C 
BRANCH  13  14
ATOM     14  C   UNL     1       7.215   7.025  17.516  0.00  0.00    +0.000 C 
BRANCH  14  15
ATOM     15  S   UNL     1       8.406   7.925  18.573  0.00  0.00    +0.000 S 
BRANCH  15  16
ATOM     16  C   UNL     1       8.282   9.584  17.839  0.00  0.00    +0.000 C 
BRANCH  16  17
ATOM     17  C   UNL     1       9.232  10.546  18.522  0.00  0.00    +0.000 A 
ATOM     18  C   UNL     1      10.373  11.018  17.857  0.00  0.00    +0.000 A 
ATOM     19  C   UNL     1      11.262  11.893  18.495  0.00  0.00    +0.000 A 
ATOM     20  C   UNL     1      11.018  12.298  19.807  0.00  0.00    +0.000 A 
ATOM     21  C   UNL     1       9.894  11.826  20.477  0.00  0.00    +0.000 A 
ATOM     22 CL   UNL     1       9.598  12.320  22.100  0.00  0.00    +0.000 Cl
ATOM     23  C   UNL     1       9.001  10.952  19.847  0.00  0.00    +0.000 A 
ENDBRANCH  16  17
ENDBRANCH  15  16
ENDBRANCH  14  15
ENDBRANCH  13  14
ENDBRANCH   3  13
TORSDOF 6
ENDMDL
MODEL 4
REMARK VINA RESULT:      -6.7      5.840      7.738
REMARK  Name = 
REMARK  6 active torsions:
REMARK  status: ('A' for Active; 'I' for Inactive)
REMARK    1  A    between atoms: C_2  and  C_15
REMARK    2  A    between atoms: N_3  and  C_4
REMARK    3  A    between atoms: C_4  and  C_5
REMARK    4  A    between atoms: C_5  and  S_6
REMARK    5  A    between atoms: S_6  and  C_7
REMARK    6  A    between atoms: C_7  and  C_8
REMARK                            x       y       z     vdW  Elec       q    Type
REMARK                         _______ _______ _______ _____ _____    ______ ____
ROOT
ATOM      1  O   UNL     1       5.673   7.038  15.858  0.00  0.00    +0.000 OA
ATOM      2  C   UNL     1       5.554   6.476  16.939  0.00  0.00    +0.000 C 
ATOM      3  N   UNL     1       6.509   6.590  17.929  0.00  0.00    +0.000 N 
ATOM      4  H   UNL     1       6.322   6.222  18.853  0.00  0.00    +0.000 HD
ENDROOT
BRANCH   2   5
ATOM      5  C   UNL     1       4.352   5.638  17.236  0.00  0.00    +0.000 A 
ATOM      6  C   UNL     1       4.350   4.266  16.901  0.00  0.00    +0.000 A 
ATOM      7 CL   UNL     1       5.728   3.423  16.274  0.00  0.00    +0.000 Cl
ATOM      8  C   UNL     1       3.210   3.475  17.113  0.00  0.00    +0.000 A 
ATOM      9  C   UNL     1       2.063   4.026  17.676  0.00  0.00    +0.000 A 
ATOM     10  C   UNL     1       2.054   5.371  18.027  0.00  0.00    +0.000 A 
ATOM     11  C   UNL     1       3.182   6.177  17.803  0.00  0.00    +0.000 A 
ATOM     12 CL   UNL     1       3.000   7.844  18.236  0.00  0.00    +0.000 Cl
ENDBRANCH   2   5
BRANCH   3  13
ATOM     13  C   UNL     1       7.749   7.324  17.723  0.00  0.00    +0.000 C 
BRANCH  13  14
ATOM     14  C   UNL     1       7.568   8.846  17.706  0.00  0.00    +0.000 C 
BRANCH  14  15
ATOM     15  S   UNL     1       8.877   9.603  18.736  0.00  0.00    +0.000 S 
BRANCH  15  16
ATOM     16  C   UNL     1       8.982  11.241  17.952  0.00  0.00    +0.000 C 
BRANCH  16  17
ATOM     17  C   UNL     1      10.162  12.021  18.495  0.00  0.00    +0.000 A 
ATOM     18  C   UNL     1      11.243  11.357  19.093  0.00  0.00    +0.000 A 
ATOM     19  C   UNL     1      12.326  12.079  19.611  0.00  0.00    +0.000 A 
ATOM     20  C   UNL     1      12.332  13.472  19.540  0.00  0.00    +0.000 A 
ATOM     21  C   UNL     1      11.258  14.137  18.958  0.00  0.00    +0.000 A 
ATOM     22 CL   UNL     1      11.261  15.858  18.878  0.00  0.00    +0.000 Cl
ATOM     23  C   UNL     1      10.173  13.424  18.438  0.00  0.00    +0.000 A 
ENDBRANCH  16  17
ENDBRANCH  15  16
ENDBRANCH  14  15
ENDBRANCH  13  14
ENDBRANCH   3  13
TORSDOF 6
ENDMDL
MODEL 5
REMARK VINA RESULT:      -6.7      3.770      5.287
REMARK  Name = 
REMARK  6 active torsions:
REMARK  status: ('A' for Active; 'I' for Inactive)
REMARK    1  A    between atoms: C_2  and  C_15
REMARK    2  A    between atoms: N_3  and  C_4
REMARK    3  A    between atoms: C_4  and  C_5
REMARK    4  A    between atoms: C_5  and  S_6
REMARK    5  A    between atoms: S_6  and  C_7
REMARK    6  A    between atoms: C_7  and  C_8
REMARK                            x       y       z     vdW  Elec       q    Type
REMARK                         _______ _______ _______ _____ _____    ______ ____
ROOT
ATOM      1  O   UNL     1       3.503   6.097  20.112  0.00  0.00    +0.000 OA
ATOM      2  C   UNL     1       2.325   6.407  19.989  0.00  0.00    +0.000 C 
ATOM      3  N   UNL     1       1.304   5.532  20.299  0.00  0.00    +0.000 N 
ATOM      4  H   UNL     1       0.346   5.859  20.311  0.00  0.00    +0.000 HD
ENDROOT
BRANCH   2   5
ATOM      5  C   UNL     1       1.940   7.766  19.498  0.00  0.00    +0.000 A 
ATOM      6  C   UNL     1       2.415   8.223  18.248  0.00  0.00    +0.000 A 
ATOM      7 CL   UNL     1       3.328   7.247  17.146  0.00  0.00    +0.000 Cl
ATOM      8  C   UNL     1       2.118   9.519  17.797  0.00  0.00    +0.000 A 
ATOM      9  C   UNL     1       1.333  10.373  18.566  0.00  0.00    +0.000 A 
ATOM     10  C   UNL     1       0.845   9.932  19.790  0.00  0.00    +0.000 A 
ATOM     11  C   UNL     1       1.149   8.645  20.261  0.00  0.00    +0.000 A 
ATOM     12 CL   UNL     1       0.520   8.261  21.829  0.00  0.00    +0.000 Cl
ENDBRANCH   2   5
BRANCH   3  13
ATOM     13  C   UNL     1       1.563   4.162  20.720  0.00  0.00    +0.000 C 
BRANCH  13  14
ATOM     14  C   UNL     1       1.359   3.127  19.608  0.00  0.00    +0.000 C 
BRANCH  14  15
ATOM     15  S   UNL     1       2.999   2.606  18.987  0.00  0.00    +0.000 S 
BRANCH  15  16
ATOM     16  C   UNL     1       3.102   3.626  17.485  0.00  0.00    +0.000 C 
BRANCH  16  17
ATOM     17  C   UNL     1       4.540   3.995  17.183  0.00  0.00    +0.000 A 
ATOM     18  C   UNL     1       5.447   4.242  18.224  0.00  0.00    +0.000 A 
ATOM     19  C   UNL     1       6.773   4.601  17.945  0.00  0.00    +0.000 A 
ATOM     20  C   UNL     1       7.198   4.722  16.622  0.00  0.00    +0.000 A 
ATOM     21  C   UNL     1       6.301   4.490  15.586  0.00  0.00    +0.000 A 
ATOM     22 CL   UNL     1       6.823   4.648  13.952  0.00  0.00    +0.000 Cl
ATOM     23  C   UNL     1       4.976   4.130  15.855  0.00  0.00    +0.000 A 
ENDBRANCH  16  17
ENDBRANCH  15  16
ENDBRANCH  14  15
ENDBRANCH  13  14
ENDBRANCH   3  13
TORSDOF 6
ENDMDL
MODEL 6
REMARK VINA RESULT:      -6.7      3.861      5.596
REMARK  Name = 
REMARK  6 active torsions:
REMARK  status: ('A' for Active; 'I' for Inactive)
REMARK    1  A    between atoms: C_2  and  C_15
REMARK    2  A    between atoms: N_3  and  C_4
REMARK    3  A    between atoms: C_4  and  C_5
REMARK    4  A    between atoms: C_5  and  S_6
REMARK    5  A    between atoms: S_6  and  C_7
REMARK    6  A    between atoms: C_7  and  C_8
REMARK                            x       y       z     vdW  Elec       q    Type
REMARK                         _______ _______ _______ _____ _____    ______ ____
ROOT
ATOM      1  O   UNL     1       3.580   6.139  20.086  0.00  0.00    +0.000 OA
ATOM      2  C   UNL     1       2.397   6.410  19.927  0.00  0.00    +0.000 C 
ATOM      3  N   UNL     1       1.398   5.491  20.176  0.00  0.00    +0.000 N 
ATOM      4  H   UNL     1       0.429   5.784  20.161  0.00  0.00    +0.000 HD
ENDROOT
BRANCH   2   5
ATOM      5  C   UNL     1       1.981   7.767  19.457  0.00  0.00    +0.000 A 
ATOM      6  C   UNL     1       2.434   8.249  18.209  0.00  0.00    +0.000 A 
ATOM      7 CL   UNL     1       3.355   7.305  17.085  0.00  0.00    +0.000 Cl
ATOM      8  C   UNL     1       2.108   9.544  17.777  0.00  0.00    +0.000 A 
ATOM      9  C   UNL     1       1.314  10.373  18.564  0.00  0.00    +0.000 A 
ATOM     10  C   UNL     1       0.847   9.908  19.787  0.00  0.00    +0.000 A 
ATOM     11  C   UNL     1       1.181   8.621  20.239  0.00  0.00    +0.000 A 
ATOM     12 CL   UNL     1       0.574   8.205  21.808  0.00  0.00    +0.000 Cl
ENDBRANCH   2   5
BRANCH   3  13
ATOM     13  C   UNL     1       1.691   4.121  20.572  0.00  0.00    +0.000 C 
BRANCH  13  14
ATOM     14  C   UNL     1       1.227   3.073  19.553  0.00  0.00    +0.000 C 
BRANCH  14  15
ATOM     15  S   UNL     1       2.061   3.399  17.958  0.00  0.00    +0.000 S 
BRANCH  15  16
ATOM     16  C   UNL     1       3.768   2.960  18.404  0.00  0.00    +0.000 C 
BRANCH  16  17
ATOM     17  C   UNL     1       4.757   3.867  17.699  0.00  0.00    +0.000 A 
ATOM     18  C   UNL     1       4.718   4.021  16.306  0.00  0.00    +0.000 A 
ATOM     19  C   UNL     1       5.644   4.845  15.652  0.00  0.00    +0.000 A 
ATOM     20  C   UNL     1       6.619   5.517  16.388  0.00  0.00    +0.000 A 
ATOM     21  C   UNL     1       6.671   5.360  17.769  0.00  0.00    +0.000 A 
ATOM     22 CL   UNL     1       7.881   6.183  18.677  0.00  0.00    +0.000 Cl
ATOM     23  C   UNL     1       5.750   4.540  18.430  0.00  0.00    +0.000 A 
ENDBRANCH  16  17
ENDBRANCH  15  16
ENDBRANCH  14  15
ENDBRANCH  13  14
ENDBRANCH   3  13
TORSDOF 6
ENDMDL
MODEL 7
REMARK VINA RESULT:      -6.6      3.664      5.366
REMARK  Name = 
REMARK  6 active torsions:
REMARK  status: ('A' for Active; 'I' for Inactive)
REMARK    1  A    between atoms: C_2  and  C_15
REMARK    2  A    between atoms: N_3  and  C_4
REMARK    3  A    between atoms: C_4  and  C_5
REMARK    4  A    between atoms: C_5  and  S_6
REMARK    5  A    between atoms: S_6  and  C_7
REMARK    6  A    between atoms: C_7  and  C_8
REMARK                            x       y       z     vdW  Elec       q    Type
REMARK                         _______ _______ _______ _____ _____    ______ ____
ROOT
ATOM      1  O   UNL     1       3.441   5.937  20.356  0.00  0.00    +0.000 OA
ATOM      2  C   UNL     1       2.318   6.239  19.974  0.00  0.00    +0.000 C 
ATOM      3  N   UNL     1       1.269   5.342  20.015  0.00  0.00    +0.000 N 
ATOM      4  H   UNL     1       0.328   5.660  19.816  0.00  0.00    +0.000 HD
ENDROOT
BRANCH   2   5
ATOM      5  C   UNL     1       2.033   7.609  19.448  0.00  0.00    +0.000 A 
ATOM      6  C   UNL     1       1.197   8.483  20.177  0.00  0.00    +0.000 A 
ATOM      7 CL   UNL     1       0.564   8.125  21.750  0.00  0.00    +0.000 Cl
ATOM      8  C   UNL     1       0.865   9.749  19.671  0.00  0.00    +0.000 A 
ATOM      9  C   UNL     1       1.370  10.176  18.447  0.00  0.00    +0.000 A 
ATOM     10  C   UNL     1       2.208   9.334  17.725  0.00  0.00    +0.000 A 
ATOM     11  C   UNL     1       2.533   8.058  18.211  0.00  0.00    +0.000 A 
ATOM     12 CL   UNL     1       3.538   7.102  17.173  0.00  0.00    +0.000 Cl
ENDBRANCH   2   5
BRANCH   3  13
ATOM     13  C   UNL     1       1.448   3.963  20.445  0.00  0.00    +0.000 C 
BRANCH  13  14
ATOM     14  C   UNL     1       0.931   2.931  19.435  0.00  0.00    +0.000 C 
BRANCH  14  15
ATOM     15  S   UNL     1       2.085   2.873  18.017  0.00  0.00    +0.000 S 
BRANCH  15  16
ATOM     16  C   UNL     1       3.671   2.933  18.903  0.00  0.00    +0.000 C 
BRANCH  16  17
ATOM     17  C   UNL     1       4.722   3.644  18.075  0.00  0.00    +0.000 A 
ATOM     18  C   UNL     1       5.771   4.338  18.694  0.00  0.00    +0.000 A 
ATOM     19  C   UNL     1       6.733   5.010  17.929  0.00  0.00    +0.000 A 
ATOM     20  C   UNL     1       6.649   4.997  16.537  0.00  0.00    +0.000 A 
ATOM     21  C   UNL     1       5.605   4.320  15.916  0.00  0.00    +0.000 A 
ATOM     22 CL   UNL     1       5.495   4.311  14.197  0.00  0.00    +0.000 Cl
ATOM     23  C   UNL     1       4.641   3.645  16.673  0.00  0.00    +0.000 A 
ENDBRANCH  16  17
ENDBRANCH  15  16
ENDBRANCH  14  15
ENDBRANCH  13  14
ENDBRANCH   3  13
TORSDOF 6
ENDMDL
MODEL 8
REMARK VINA RESULT:      -6.6      1.339      1.394
REMARK  Name = 
REMARK  6 active torsions:
REMARK  status: ('A' for Active; 'I' for Inactive)
REMARK    1  A    between atoms: C_2  and  C_15
REMARK    2  A    between atoms: N_3  and  C_4
REMARK    3  A    between atoms: C_4  and  C_5
REMARK    4  A    between atoms: C_5  and  S_6
REMARK    5  A    between atoms: S_6  and  C_7
REMARK    6  A    between atoms: C_7  and  C_8
REMARK                            x       y       z     vdW  Elec       q    Type
REMARK                         _______ _______ _______ _____ _____    ______ ____
ROOT
ATOM      1  O   UNL     1       3.932   6.101  19.769  0.00  0.00    +0.000 OA
ATOM      2  C   UNL     1       4.192   4.954  19.425  0.00  0.00    +0.000 C 
ATOM      3  N   UNL     1       5.492   4.519  19.264  0.00  0.00    +0.000 N 
ATOM      4  H   UNL     1       5.678   3.536  19.107  0.00  0.00    +0.000 HD
ENDROOT
BRANCH   2   5
ATOM      5  C   UNL     1       3.099   3.967  19.169  0.00  0.00    +0.000 A 
ATOM      6  C   UNL     1       1.952   4.359  18.445  0.00  0.00    +0.000 A 
ATOM      7 CL   UNL     1       1.768   5.908  17.691  0.00  0.00    +0.000 Cl
ATOM      8  C   UNL     1       0.886   3.467  18.248  0.00  0.00    +0.000 A 
ATOM      9  C   UNL     1       0.949   2.170  18.748  0.00  0.00    +0.000 A 
ATOM     10  C   UNL     1       2.078   1.763  19.448  0.00  0.00    +0.000 A 
ATOM     11  C   UNL     1       3.143   2.651  19.668  0.00  0.00    +0.000 A 
ATOM     12 CL   UNL     1       4.454   2.020  20.608  0.00  0.00    +0.000 Cl
ENDBRANCH   2   5
BRANCH   3  13
ATOM     13  C   UNL     1       6.631   5.413  19.420  0.00  0.00    +0.000 C 
BRANCH  13  14
ATOM     14  C   UNL     1       7.697   5.249  18.331  0.00  0.00    +0.000 C 
BRANCH  14  15
ATOM     15  S   UNL     1       7.076   6.006  16.786  0.00  0.00    +0.000 S 
BRANCH  15  16
ATOM     16  C   UNL     1       6.238   4.569  16.050  0.00  0.00    +0.000 C 
BRANCH  16  17
ATOM     17  C   UNL     1       6.562   4.456  14.574  0.00  0.00    +0.000 A 
ATOM     18  C   UNL     1       7.523   5.292  13.988  0.00  0.00    +0.000 A 
ATOM     19  C   UNL     1       7.810   5.201  12.619  0.00  0.00    +0.000 A 
ATOM     20  C   UNL     1       7.132   4.275  11.826  0.00  0.00    +0.000 A 
ATOM     21  C   UNL     1       6.170   3.451  12.399  0.00  0.00    +0.000 A 
ATOM     22 CL   UNL     1       5.326   2.314  11.418  0.00  0.00    +0.000 Cl
ATOM     23  C   UNL     1       5.878   3.535  13.765  0.00  0.00    +0.000 A 
ENDBRANCH  16  17
ENDBRANCH  15  16
ENDBRANCH  14  15
ENDBRANCH  13  14
ENDBRANCH   3  13
TORSDOF 6
ENDMDL
MODEL 9
REMARK VINA RESULT:      -6.6      5.897      8.246
REMARK  Name = 
REMARK  6 active torsions:
REMARK  status: ('A' for Active; 'I' for Inactive)
REMARK    1  A    between atoms: C_2  and  C_15
REMARK    2  A    between atoms: N_3  and  C_4
REMARK    3  A    between atoms: C_4  and  C_5
REMARK    4  A    between atoms: C_5  and  S_6
REMARK    5  A    between atoms: S_6  and  C_7
REMARK    6  A    between atoms: C_7  and  C_8
REMARK                            x       y       z     vdW  Elec       q    Type
REMARK                         _______ _______ _______ _____ _____    ______ ____
ROOT
ATOM      1  O   UNL     1       2.489   7.023  17.846  0.00  0.00    +0.000 OA
ATOM      2  C   UNL     1       2.603   6.624  18.999  0.00  0.00    +0.000 C 
ATOM      3  N   UNL     1       2.170   7.372  20.075  0.00  0.00    +0.000 N 
ATOM      4  H   UNL     1       2.158   6.962  21.001  0.00  0.00    +0.000 HD
ENDROOT
BRANCH   2   5
ATOM      5  C   UNL     1       3.216   5.292  19.288  0.00  0.00    +0.000 A 
ATOM      6  C   UNL     1       4.531   5.013  18.855  0.00  0.00    +0.000 A 
ATOM      7 CL   UNL     1       5.569   6.180  18.106  0.00  0.00    +0.000 Cl
ATOM      8  C   UNL     1       5.103   3.747  19.061  0.00  0.00    +0.000 A 
ATOM      9  C   UNL     1       4.389   2.747  19.715  0.00  0.00    +0.000 A 
ATOM     10  C   UNL     1       3.100   3.011  20.162  0.00  0.00    +0.000 A 
ATOM     11  C   UNL     1       2.510   4.267  19.947  0.00  0.00    +0.000 A 
ATOM     12 CL   UNL     1       0.879   4.426  20.508  0.00  0.00    +0.000 Cl
ENDBRANCH   2   5
BRANCH   3  13
ATOM     13  C   UNL     1       1.621   8.711  19.914  0.00  0.00    +0.000 C 
BRANCH  13  14
ATOM     14  C   UNL     1       0.839   9.207  21.136  0.00  0.00    +0.000 C 
BRANCH  14  15
ATOM     15  S   UNL     1      -0.380  10.454  20.584  0.00  0.00    +0.000 S 
BRANCH  15  16
ATOM     16  C   UNL     1      -0.330  10.164  18.789  0.00  0.00    +0.000 C 
BRANCH  16  17
ATOM     17  C   UNL     1      -1.640  10.569  18.144  0.00  0.00    +0.000 A 
ATOM     18  C   UNL     1      -2.579  11.333  18.851  0.00  0.00    +0.000 A 
ATOM     19  C   UNL     1      -3.798  11.692  18.260  0.00  0.00    +0.000 A 
ATOM     20  C   UNL     1      -4.088  11.284  16.959  0.00  0.00    +0.000 A 
ATOM     21  C   UNL     1      -3.166  10.516  16.255  0.00  0.00    +0.000 A 
ATOM     22 CL   UNL     1      -3.528  10.004  14.651  0.00  0.00    +0.000 Cl
ATOM     23  C   UNL     1      -1.947  10.154  16.837  0.00  0.00    +0.000 A 
ENDBRANCH  16  17
ENDBRANCH  15  16
ENDBRANCH  14  15
ENDBRANCH  13  14
ENDBRANCH   3  13
TORSDOF 6
ENDMDL
