MODEL 1
REMARK VINA RESULT:      -6.0      0.000      0.000
REMARK  Name = 
REMARK  13 active torsions:
REMARK  status: ('A' for Active; 'I' for Inactive)
REMARK    1  A    between atoms: C_1  and  C_2
REMARK    2  A    between atoms: C_2  and  O_4
REMARK    3  A    between atoms: O_4  and  C_5
REMARK    4  A    between atoms: C_6  and  C_7
REMARK    5  A    between atoms: C_10  and  O_11
REMARK    6  A    between atoms: C_12  and  C_13
REMARK    7  A    between atoms: C_17  and  C_18
REMARK    8  A    between atoms: C_21  and  C_22
REMARK    9  A    between atoms: C_22  and  C_23
REMARK   10  A    between atoms: C_22  and  C_24
REMARK   11  A    between atoms: C_25  and  O_26
REMARK   12  A    between atoms: O_26  and  C_27
REMARK   13  A    between atoms: C_27  and  C_28
REMARK                            x       y       z     vdW  Elec       q    Type
REMARK                         _______ _______ _______ _____ _____    ______ ____
ROOT
ATOM      1  C   UNL     1      -1.819  11.940  22.313  0.00  0.00    +0.000 C 
ATOM      2  C   UNL     1      -0.719  10.815  22.199  0.00  0.00    +0.000 C 
ATOM      3  C   UNL     1      -0.311  10.032  23.428  0.00  0.00    +0.000 C 
ATOM      4  C   UNL     1      -0.609  10.090  21.053  0.00  0.00    +0.000 C 
ATOM      5  C   UNL     1       0.618   9.561  20.347  0.00  0.00    +0.000 C 
ATOM      6  C   UNL     1       0.566   9.960  18.843  0.00  0.00    +0.000 C 
ATOM      7  C   UNL     1       1.915   9.952  18.120  0.00  0.00    +0.000 C 
ATOM      8  C   UNL     1       2.473   8.622  17.705  0.00  0.00    +0.000 C 
ATOM      9  C   UNL     1       2.562  11.115  17.835  0.00  0.00    +0.000 C 
ATOM     10  C   UNL     1       1.894  12.415  18.193  0.00  0.00    +0.000 C 
ATOM     11  C   UNL     1       2.504  13.799  18.078  0.00  0.00    +0.000 C 
ATOM     12  C   UNL     1       1.605  14.898  18.688  0.00  0.00    +0.000 C 
ATOM     13  C   UNL     1       2.278  16.260  18.641  0.00  0.00    +0.000 C 
ATOM     14  C   UNL     1       0.352  14.830  19.228  0.00  0.00    +0.000 C 
ATOM     15  C   UNL     1      -0.635  13.758  19.121  0.00  0.00    +0.000 C 
ATOM     16  C   UNL     1      -1.574  13.164  19.912  0.00  0.00    +0.000 C 
ATOM     17  C   UNL     1      -1.820  13.337  21.450  0.00  0.00    +0.000 C 
ENDROOT
BRANCH  16  18
ATOM     18  C   UNL     1      -2.511  12.080  19.172  0.00  0.00    +0.000 C 
ATOM     19  C   UNL     1      -4.075  12.111  19.187  0.00  0.00    +0.000 C 
ATOM     20  C   UNL     1      -2.176  11.885  17.684  0.00  0.00    +0.000 C 
ENDBRANCH  16  18
BRANCH   6  21
ATOM     21  O   UNL     1      -0.402   9.212  18.107  0.00  0.00    +0.000 OA
ATOM     22  H   UNL     1      -0.560   8.372  18.587  0.00  0.00    +0.000 HD
ENDBRANCH   6  21
BRANCH   1  23
ATOM     23  O   UNL     1      -2.982  11.643  23.192  0.00  0.00    +0.000 OA
BRANCH  23  25
ATOM     24  C   UNL     1      -3.827  13.512  24.455  0.00  0.00    +0.000 C 
ATOM     25  C   UNL     1      -3.999  12.554  23.300  0.00  0.00    +0.000 C 
ATOM     26  O   UNL     1      -4.968  12.488  22.603  0.00  0.00    +0.000 OA
ENDBRANCH  23  25
ENDBRANCH   1  23
BRANCH  17  27
ATOM     27  O   UNL     1      -1.371  14.602  22.026  0.00  0.00    +0.000 OA
BRANCH  27  28
ATOM     28  C   UNL     1      -0.323  14.811  22.856  0.00  0.00    +0.000 C 
ATOM     29  C   UNL     1      -0.786  15.602  24.075  0.00  0.00    +0.000 C 
ATOM     30  O   UNL     1       0.835  14.503  22.645  0.00  0.00    +0.000 OA
ENDBRANCH  27  28
ENDBRANCH  17  27
TORSDOF 6
ENDMDL
MODEL 2
REMARK VINA RESULT:      -5.8      1.876      6.829
REMARK  Name = 
REMARK  13 active torsions:
REMARK  status: ('A' for Active; 'I' for Inactive)
REMARK    1  A    between atoms: C_1  and  C_2
REMARK    2  A    between atoms: C_2  and  O_4
REMARK    3  A    between atoms: O_4  and  C_5
REMARK    4  A    between atoms: C_6  and  C_7
REMARK    5  A    between atoms: C_10  and  O_11
REMARK    6  A    between atoms: C_12  and  C_13
REMARK    7  A    between atoms: C_17  and  C_18
REMARK    8  A    between atoms: C_21  and  C_22
REMARK    9  A    between atoms: C_22  and  C_23
REMARK   10  A    between atoms: C_22  and  C_24
REMARK   11  A    between atoms: C_25  and  O_26
REMARK   12  A    between atoms: O_26  and  C_27
REMARK   13  A    between atoms: C_27  and  C_28
REMARK                            x       y       z     vdW  Elec       q    Type
REMARK                         _______ _______ _______ _____ _____    ______ ____
ROOT
ATOM      1  C   UNL     1      -0.088  10.381  19.889  0.00  0.00    +0.000 C 
ATOM      2  C   UNL     1      -0.451  10.163  21.409  0.00  0.00    +0.000 C 
ATOM      3  C   UNL     1       0.117   8.976  22.157  0.00  0.00    +0.000 C 
ATOM      4  C   UNL     1      -0.664  11.238  22.215  0.00  0.00    +0.000 C 
ATOM      5  C   UNL     1      -1.656  11.433  23.339  0.00  0.00    +0.000 C 
ATOM      6  C   UNL     1      -2.430  12.767  23.126  0.00  0.00    +0.000 C 
ATOM      7  C   UNL     1      -3.771  12.866  23.857  0.00  0.00    +0.000 C 
ATOM      8  C   UNL     1      -3.740  13.167  25.326  0.00  0.00    +0.000 C 
ATOM      9  C   UNL     1      -4.946  12.721  23.184  0.00  0.00    +0.000 C 
ATOM     10  C   UNL     1      -4.899  12.521  21.693  0.00  0.00    +0.000 C 
ATOM     11  C   UNL     1      -6.080  12.211  20.792  0.00  0.00    +0.000 C 
ATOM     12  C   UNL     1      -5.655  11.902  19.340  0.00  0.00    +0.000 C 
ATOM     13  C   UNL     1      -6.847  11.508  18.481  0.00  0.00    +0.000 C 
ATOM     14  C   UNL     1      -4.428  11.938  18.740  0.00  0.00    +0.000 C 
ATOM     15  C   UNL     1      -3.197  12.566  19.213  0.00  0.00    +0.000 C 
ATOM     16  C   UNL     1      -1.857  12.307  19.195  0.00  0.00    +0.000 C 
ATOM     17  C   UNL     1      -1.112  10.999  18.763  0.00  0.00    +0.000 C 
ENDROOT
BRANCH  16  18
ATOM     18  C   UNL     1      -0.921  13.489  19.768  0.00  0.00    +0.000 C 
ATOM     19  C   UNL     1       0.356  14.030  19.045  0.00  0.00    +0.000 C 
ATOM     20  C   UNL     1      -1.692  14.769  20.129  0.00  0.00    +0.000 C 
ENDBRANCH  16  18
BRANCH   6  21
ATOM     21  O   UNL     1      -1.628  13.918  23.391  0.00  0.00    +0.000 OA
ATOM     22  H   UNL     1      -2.219  14.625  23.722  0.00  0.00    +0.000 HD
ENDBRANCH   6  21
BRANCH   1  23
ATOM     23  O   UNL     1       1.319  10.101  19.497  0.00  0.00    +0.000 OA
BRANCH  23  25
ATOM     24  C   UNL     1       2.063   7.829  19.200  0.00  0.00    +0.000 C 
ATOM     25  C   UNL     1       1.583   9.119  18.579  0.00  0.00    +0.000 C 
ATOM     26  O   UNL     1       1.541   9.339  17.404  0.00  0.00    +0.000 OA
ENDBRANCH  23  25
ENDBRANCH   1  23
BRANCH  17  27
ATOM     27  O   UNL     1      -1.825  10.146  17.816  0.00  0.00    +0.000 OA
BRANCH  27  28
ATOM     28  C   UNL     1      -2.333  10.487  16.610  0.00  0.00    +0.000 C 
ATOM     29  C   UNL     1      -3.071   9.295  16.009  0.00  0.00    +0.000 C 
ATOM     30  O   UNL     1      -2.167  11.545  16.033  0.00  0.00    +0.000 OA
ENDBRANCH  27  28
ENDBRANCH  17  27
TORSDOF 6
ENDMDL
MODEL 3
REMARK VINA RESULT:      -5.5      2.079      6.034
REMARK  Name = 
REMARK  13 active torsions:
REMARK  status: ('A' for Active; 'I' for Inactive)
REMARK    1  A    between atoms: C_1  and  C_2
REMARK    2  A    between atoms: C_2  and  O_4
REMARK    3  A    between atoms: O_4  and  C_5
REMARK    4  A    between atoms: C_6  and  C_7
REMARK    5  A    between atoms: C_10  and  O_11
REMARK    6  A    between atoms: C_12  and  C_13
REMARK    7  A    between atoms: C_17  and  C_18
REMARK    8  A    between atoms: C_21  and  C_22
REMARK    9  A    between atoms: C_22  and  C_23
REMARK   10  A    between atoms: C_22  and  C_24
REMARK   11  A    between atoms: C_25  and  O_26
REMARK   12  A    between atoms: O_26  and  C_27
REMARK   13  A    between atoms: C_27  and  C_28
REMARK                            x       y       z     vdW  Elec       q    Type
REMARK                         _______ _______ _______ _____ _____    ______ ____
ROOT
ATOM      1  C   UNL     1      -0.553  11.128  19.305  0.00  0.00    +0.000 C 
ATOM      2  C   UNL     1      -1.926  11.678  18.755  0.00  0.00    +0.000 C 
ATOM      3  C   UNL     1      -2.308  11.442  17.310  0.00  0.00    +0.000 C 
ATOM      4  C   UNL     1      -3.005  11.748  19.580  0.00  0.00    +0.000 C 
ATOM      5  C   UNL     1      -4.100  12.786  19.668  0.00  0.00    +0.000 C 
ATOM      6  C   UNL     1      -4.264  13.247  21.147  0.00  0.00    +0.000 C 
ATOM      7  C   UNL     1      -4.942  14.606  21.335  0.00  0.00    +0.000 C 
ATOM      8  C   UNL     1      -6.435  14.662  21.196  0.00  0.00    +0.000 C 
ATOM      9  C   UNL     1      -4.214  15.711  21.653  0.00  0.00    +0.000 C 
ATOM     10  C   UNL     1      -2.734  15.558  21.874  0.00  0.00    +0.000 C 
ATOM     11  C   UNL     1      -1.739  16.681  22.103  0.00  0.00    +0.000 C 
ATOM     12  C   UNL     1      -0.277  16.184  22.127  0.00  0.00    +0.000 C 
ATOM     13  C   UNL     1       0.702  17.339  22.268  0.00  0.00    +0.000 C 
ATOM     14  C   UNL     1       0.240  14.922  22.054  0.00  0.00    +0.000 C 
ATOM     15  C   UNL     1      -0.441  13.642  22.231  0.00  0.00    +0.000 C 
ATOM     16  C   UNL     1      -0.397  12.389  21.694  0.00  0.00    +0.000 C 
ATOM     17  C   UNL     1       0.376  11.886  20.427  0.00  0.00    +0.000 C 
ENDROOT
BRANCH  16  18
ATOM     18  C   UNL     1      -1.327  11.293  22.425  0.00  0.00    +0.000 C 
ATOM     19  C   UNL     1      -0.791   9.976  23.075  0.00  0.00    +0.000 C 
ATOM     20  C   UNL     1      -2.234  11.882  23.518  0.00  0.00    +0.000 C 
ENDBRANCH  16  18
BRANCH   6  21
ATOM     21  O   UNL     1      -4.886  12.257  21.966  0.00  0.00    +0.000 OA
ATOM     22  H   UNL     1      -4.611  11.377  21.635  0.00  0.00    +0.000 HD
ENDBRANCH   6  21
BRANCH   1  23
ATOM     23  O   UNL     1      -0.146   9.775  18.837  0.00  0.00    +0.000 OA
BRANCH  23  25
ATOM     24  C   UNL     1       2.012   9.425  17.826  0.00  0.00    +0.000 C 
ATOM     25  C   UNL     1       1.134   9.341  19.053  0.00  0.00    +0.000 C 
ATOM     26  O   UNL     1       1.454   8.841  20.091  0.00  0.00    +0.000 OA
ENDBRANCH  23  25
ENDBRANCH   1  23
BRANCH  17  27
ATOM     27  O   UNL     1       1.559  12.659  20.057  0.00  0.00    +0.000 OA
BRANCH  27  28
ATOM     28  C   UNL     1       1.841  13.223  18.860  0.00  0.00    +0.000 C 
ATOM     29  C   UNL     1       0.870  14.367  18.590  0.00  0.00    +0.000 C 
ATOM     30  O   UNL     1       2.678  12.840  18.064  0.00  0.00    +0.000 OA
ENDBRANCH  27  28
ENDBRANCH  17  27
TORSDOF 6
ENDMDL
MODEL 4
REMARK VINA RESULT:      -5.5      2.249      6.057
REMARK  Name = 
REMARK  13 active torsions:
REMARK  status: ('A' for Active; 'I' for Inactive)
REMARK    1  A    between atoms: C_1  and  C_2
REMARK    2  A    between atoms: C_2  and  O_4
REMARK    3  A    between atoms: O_4  and  C_5
REMARK    4  A    between atoms: C_6  and  C_7
REMARK    5  A    between atoms: C_10  and  O_11
REMARK    6  A    between atoms: C_12  and  C_13
REMARK    7  A    between atoms: C_17  and  C_18
REMARK    8  A    between atoms: C_21  and  C_22
REMARK    9  A    between atoms: C_22  and  C_23
REMARK   10  A    between atoms: C_22  and  C_24
REMARK   11  A    between atoms: C_25  and  O_26
REMARK   12  A    between atoms: O_26  and  C_27
REMARK   13  A    between atoms: C_27  and  C_28
REMARK                            x       y       z     vdW  Elec       q    Type
REMARK                         _______ _______ _______ _____ _____    ______ ____
ROOT
ATOM      1  C   UNL     1      -1.028  11.417  19.044  0.00  0.00    +0.000 C 
ATOM      2  C   UNL     1      -2.482  11.664  18.484  0.00  0.00    +0.000 C 
ATOM      3  C   UNL     1      -2.852  11.165  17.104  0.00  0.00    +0.000 C 
ATOM      4  C   UNL     1      -3.541  11.686  19.337  0.00  0.00    +0.000 C 
ATOM      5  C   UNL     1      -4.784  12.547  19.326  0.00  0.00    +0.000 C 
ATOM      6  C   UNL     1      -4.988  13.186  20.731  0.00  0.00    +0.000 C 
ATOM      7  C   UNL     1      -5.868  14.438  20.756  0.00  0.00    +0.000 C 
ATOM      8  C   UNL     1      -7.353  14.243  20.676  0.00  0.00    +0.000 C 
ATOM      9  C   UNL     1      -5.318  15.676  20.884  0.00  0.00    +0.000 C 
ATOM     10  C   UNL     1      -3.828  15.786  21.059  0.00  0.00    +0.000 C 
ATOM     11  C   UNL     1      -3.019  17.069  21.085  0.00  0.00    +0.000 C 
ATOM     12  C   UNL     1      -1.496  16.812  21.115  0.00  0.00    +0.000 C 
ATOM     13  C   UNL     1      -0.709  18.111  21.050  0.00  0.00    +0.000 C 
ATOM     14  C   UNL     1      -0.788  15.647  21.197  0.00  0.00    +0.000 C 
ATOM     15  C   UNL     1      -1.254  14.317  21.581  0.00  0.00    +0.000 C 
ATOM     16  C   UNL     1      -1.023  13.021  21.224  0.00  0.00    +0.000 C 
ATOM     17  C   UNL     1      -0.207  12.465  20.008  0.00  0.00    +0.000 C 
ENDROOT
BRANCH  16  18
ATOM     18  C   UNL     1      -1.753  11.914  22.142  0.00  0.00    +0.000 C 
ATOM     19  C   UNL     1      -1.029  10.683  22.780  0.00  0.00    +0.000 C 
ATOM     20  C   UNL     1      -2.541  12.508  23.320  0.00  0.00    +0.000 C 
ENDBRANCH  16  18
BRANCH   6  21
ATOM     21  O   UNL     1      -5.428  12.243  21.708  0.00  0.00    +0.000 OA
ATOM     22  H   UNL     1      -6.121  11.685  21.295  0.00  0.00    +0.000 HD
ENDBRANCH   6  21
BRANCH   1  23
ATOM     23  O   UNL     1      -0.422  10.090  18.754  0.00  0.00    +0.000 OA
BRANCH  23  25
ATOM     24  C   UNL     1       1.883  10.072  18.056  0.00  0.00    +0.000 C 
ATOM     25  C   UNL     1       0.865   9.833  19.145  0.00  0.00    +0.000 C 
ATOM     26  O   UNL     1       1.105   9.353  20.214  0.00  0.00    +0.000 OA
ENDBRANCH  23  25
ENDBRANCH   1  23
BRANCH  17  27
ATOM     27  O   UNL     1       0.830  13.348  19.482  0.00  0.00    +0.000 OA
BRANCH  27  28
ATOM     28  C   UNL     1       2.122  13.437  19.872  0.00  0.00    +0.000 C 
ATOM     29  C   UNL     1       3.002  13.742  18.665  0.00  0.00    +0.000 C 
ATOM     30  O   UNL     1       2.552  13.225  20.991  0.00  0.00    +0.000 OA
ENDBRANCH  27  28
ENDBRANCH  17  27
TORSDOF 6
ENDMDL
MODEL 5
REMARK VINA RESULT:      -5.4      2.376      6.181
REMARK  Name = 
REMARK  13 active torsions:
REMARK  status: ('A' for Active; 'I' for Inactive)
REMARK    1  A    between atoms: C_1  and  C_2
REMARK    2  A    between atoms: C_2  and  O_4
REMARK    3  A    between atoms: O_4  and  C_5
REMARK    4  A    between atoms: C_6  and  C_7
REMARK    5  A    between atoms: C_10  and  O_11
REMARK    6  A    between atoms: C_12  and  C_13
REMARK    7  A    between atoms: C_17  and  C_18
REMARK    8  A    between atoms: C_21  and  C_22
REMARK    9  A    between atoms: C_22  and  C_23
REMARK   10  A    between atoms: C_22  and  C_24
REMARK   11  A    between atoms: C_25  and  O_26
REMARK   12  A    between atoms: O_26  and  C_27
REMARK   13  A    between atoms: C_27  and  C_28
REMARK                            x       y       z     vdW  Elec       q    Type
REMARK                         _______ _______ _______ _____ _____    ______ ____
ROOT
ATOM      1  C   UNL     1      -0.763  11.889  19.603  0.00  0.00    +0.000 C 
ATOM      2  C   UNL     1      -2.084  11.872  18.741  0.00  0.00    +0.000 C 
ATOM      3  C   UNL     1      -2.060  11.313  17.335  0.00  0.00    +0.000 C 
ATOM      4  C   UNL     1      -3.288  11.706  19.352  0.00  0.00    +0.000 C 
ATOM      5  C   UNL     1      -4.631  12.330  19.047  0.00  0.00    +0.000 C 
ATOM      6  C   UNL     1      -5.238  12.924  20.352  0.00  0.00    +0.000 C 
ATOM      7  C   UNL     1      -6.307  13.999  20.143  0.00  0.00    +0.000 C 
ATOM      8  C   UNL     1      -7.684  13.542  19.762  0.00  0.00    +0.000 C 
ATOM      9  C   UNL     1      -6.022  15.316  20.335  0.00  0.00    +0.000 C 
ATOM     10  C   UNL     1      -4.645  15.690  20.814  0.00  0.00    +0.000 C 
ATOM     11  C   UNL     1      -4.097  17.097  20.959  0.00  0.00    +0.000 C 
ATOM     12  C   UNL     1      -2.595  17.116  21.318  0.00  0.00    +0.000 C 
ATOM     13  C   UNL     1      -2.050  18.535  21.368  0.00  0.00    +0.000 C 
ATOM     14  C   UNL     1      -1.728  16.096  21.591  0.00  0.00    +0.000 C 
ATOM     15  C   UNL     1      -2.026  14.705  21.921  0.00  0.00    +0.000 C 
ATOM     16  C   UNL     1      -1.502  13.471  21.671  0.00  0.00    +0.000 C 
ATOM     17  C   UNL     1      -0.362  13.068  20.676  0.00  0.00    +0.000 C 
ENDROOT
BRANCH  16  18
ATOM     18  C   UNL     1      -2.206  12.252  22.458  0.00  0.00    +0.000 C 
ATOM     19  C   UNL     1      -1.430  11.081  23.145  0.00  0.00    +0.000 C 
ATOM     20  C   UNL     1      -3.194  12.706  23.546  0.00  0.00    +0.000 C 
ENDBRANCH  16  18
BRANCH   6  21
ATOM     21  O   UNL     1      -5.705  11.919  21.251  0.00  0.00    +0.000 OA
ATOM     22  H   UNL     1      -5.016  11.785  21.936  0.00  0.00    +0.000 HD
ENDBRANCH   6  21
BRANCH   1  23
ATOM     23  O   UNL     1       0.112  10.691  19.499  0.00  0.00    +0.000 OA
BRANCH  23  25
ATOM     24  C   UNL     1       1.361   9.363  17.924  0.00  0.00    +0.000 C 
ATOM     25  C   UNL     1       1.157  10.691  18.613  0.00  0.00    +0.000 C 
ATOM     26  O   UNL     1       1.886  11.634  18.513  0.00  0.00    +0.000 OA
ENDBRANCH  23  25
ENDBRANCH   1  23
BRANCH  17  27
ATOM     27  O   UNL     1       0.594  14.121  20.344  0.00  0.00    +0.000 OA
BRANCH  27  28
ATOM     28  C   UNL     1       0.679  14.835  19.198  0.00  0.00    +0.000 C 
ATOM     29  C   UNL     1       2.140  15.151  18.899  0.00  0.00    +0.000 C 
ATOM     30  O   UNL     1      -0.255  15.247  18.536  0.00  0.00    +0.000 OA
ENDBRANCH  27  28
ENDBRANCH  17  27
TORSDOF 6
ENDMDL
MODEL 6
REMARK VINA RESULT:      -5.4      2.335      6.050
REMARK  Name = 
REMARK  13 active torsions:
REMARK  status: ('A' for Active; 'I' for Inactive)
REMARK    1  A    between atoms: C_1  and  C_2
REMARK    2  A    between atoms: C_2  and  O_4
REMARK    3  A    between atoms: O_4  and  C_5
REMARK    4  A    between atoms: C_6  and  C_7
REMARK    5  A    between atoms: C_10  and  O_11
REMARK    6  A    between atoms: C_12  and  C_13
REMARK    7  A    between atoms: C_17  and  C_18
REMARK    8  A    between atoms: C_21  and  C_22
REMARK    9  A    between atoms: C_22  and  C_23
REMARK   10  A    between atoms: C_22  and  C_24
REMARK   11  A    between atoms: C_25  and  O_26
REMARK   12  A    between atoms: O_26  and  C_27
REMARK   13  A    between atoms: C_27  and  C_28
REMARK                            x       y       z     vdW  Elec       q    Type
REMARK                         _______ _______ _______ _____ _____    ______ ____
ROOT
ATOM      1  C   UNL     1      -0.717  11.758  19.535  0.00  0.00    +0.000 C 
ATOM      2  C   UNL     1      -2.054  11.790  18.698  0.00  0.00    +0.000 C 
ATOM      3  C   UNL     1      -2.076  11.235  17.291  0.00  0.00    +0.000 C 
ATOM      4  C   UNL     1      -3.252  11.664  19.332  0.00  0.00    +0.000 C 
ATOM      5  C   UNL     1      -4.577  12.336  19.054  0.00  0.00    +0.000 C 
ATOM      6  C   UNL     1      -5.137  12.947  20.372  0.00  0.00    +0.000 C 
ATOM      7  C   UNL     1      -6.172  14.059  20.187  0.00  0.00    +0.000 C 
ATOM      8  C   UNL     1      -7.572  13.652  19.830  0.00  0.00    +0.000 C 
ATOM      9  C   UNL     1      -5.837  15.364  20.377  0.00  0.00    +0.000 C 
ATOM     10  C   UNL     1      -4.440  15.688  20.831  0.00  0.00    +0.000 C 
ATOM     11  C   UNL     1      -3.839  17.074  20.969  0.00  0.00    +0.000 C 
ATOM     12  C   UNL     1      -2.331  17.039  21.299  0.00  0.00    +0.000 C 
ATOM     13  C   UNL     1      -1.736  18.438  21.343  0.00  0.00    +0.000 C 
ATOM     14  C   UNL     1      -1.495  15.989  21.554  0.00  0.00    +0.000 C 
ATOM     15  C   UNL     1      -1.836  14.607  21.885  0.00  0.00    +0.000 C 
ATOM     16  C   UNL     1      -1.361  13.356  21.621  0.00  0.00    +0.000 C 
ATOM     17  C   UNL     1      -0.254  12.917  20.603  0.00  0.00    +0.000 C 
ENDROOT
BRANCH  16  18
ATOM     18  C   UNL     1      -2.093  12.160  22.418  0.00  0.00    +0.000 C 
ATOM     19  C   UNL     1      -1.342  10.978  23.115  0.00  0.00    +0.000 C 
ATOM     20  C   UNL     1      -3.070  12.645  23.501  0.00  0.00    +0.000 C 
ENDBRANCH  16  18
BRANCH   6  21
ATOM     21  O   UNL     1      -5.623  11.955  21.277  0.00  0.00    +0.000 OA
ATOM     22  H   UNL     1      -6.200  12.402  21.931  0.00  0.00    +0.000 HD
ENDBRANCH   6  21
BRANCH   1  23
ATOM     23  O   UNL     1       0.113  10.530  19.410  0.00  0.00    +0.000 OA
BRANCH  23  25
ATOM     24  C   UNL     1       1.443   9.170  17.932  0.00  0.00    +0.000 C 
ATOM     25  C   UNL     1       1.184  10.521  18.557  0.00  0.00    +0.000 C 
ATOM     26  O   UNL     1       1.892  11.477  18.438  0.00  0.00    +0.000 OA
ENDBRANCH  23  25
ENDBRANCH   1  23
BRANCH  17  27
ATOM     27  O   UNL     1       0.731  13.938  20.257  0.00  0.00    +0.000 OA
BRANCH  27  28
ATOM     28  C   UNL     1       1.908  14.198  20.871  0.00  0.00    +0.000 C 
ATOM     29  C   UNL     1       2.231  15.684  20.748  0.00  0.00    +0.000 C 
ATOM     30  O   UNL     1       2.654  13.379  21.374  0.00  0.00    +0.000 OA
ENDBRANCH  27  28
ENDBRANCH  17  27
TORSDOF 6
ENDMDL
MODEL 7
REMARK VINA RESULT:      -5.3      2.158      5.600
REMARK  Name = 
REMARK  13 active torsions:
REMARK  status: ('A' for Active; 'I' for Inactive)
REMARK    1  A    between atoms: C_1  and  C_2
REMARK    2  A    between atoms: C_2  and  O_4
REMARK    3  A    between atoms: O_4  and  C_5
REMARK    4  A    between atoms: C_6  and  C_7
REMARK    5  A    between atoms: C_10  and  O_11
REMARK    6  A    between atoms: C_12  and  C_13
REMARK    7  A    between atoms: C_17  and  C_18
REMARK    8  A    between atoms: C_21  and  C_22
REMARK    9  A    between atoms: C_22  and  C_23
REMARK   10  A    between atoms: C_22  and  C_24
REMARK   11  A    between atoms: C_25  and  O_26
REMARK   12  A    between atoms: O_26  and  C_27
REMARK   13  A    between atoms: C_27  and  C_28
REMARK                            x       y       z     vdW  Elec       q    Type
REMARK                         _______ _______ _______ _____ _____    ______ ____
ROOT
ATOM      1  C   UNL     1       0.938  13.667  21.053  0.00  0.00    +0.000 C 
ATOM      2  C   UNL     1       0.370  13.718  19.582  0.00  0.00    +0.000 C 
ATOM      3  C   UNL     1       1.027  14.610  18.551  0.00  0.00    +0.000 C 
ATOM      4  C   UNL     1      -0.189  12.605  19.034  0.00  0.00    +0.000 C 
ATOM      5  C   UNL     1      -1.378  12.465  18.110  0.00  0.00    +0.000 C 
ATOM      6  C   UNL     1      -2.355  11.393  18.677  0.00  0.00    +0.000 C 
ATOM      7  C   UNL     1      -3.793  11.487  18.165  0.00  0.00    +0.000 C 
ATOM      8  C   UNL     1      -4.076  10.957  16.790  0.00  0.00    +0.000 C 
ATOM      9  C   UNL     1      -4.782  12.000  18.947  0.00  0.00    +0.000 C 
ATOM     10  C   UNL     1      -4.442  12.420  20.351  0.00  0.00    +0.000 C 
ATOM     11  C   UNL     1      -5.364  13.129  21.325  0.00  0.00    +0.000 C 
ATOM     12  C   UNL     1      -4.643  13.561  22.621  0.00  0.00    +0.000 C 
ATOM     13  C   UNL     1      -5.566  14.347  23.538  0.00  0.00    +0.000 C 
ATOM     14  C   UNL     1      -3.364  13.343  23.047  0.00  0.00    +0.000 C 
ATOM     15  C   UNL     1      -2.382  12.384  22.545  0.00  0.00    +0.000 C 
ATOM     16  C   UNL     1      -1.036  12.331  22.334  0.00  0.00    +0.000 C 
ATOM     17  C   UNL     1       0.019  13.487  22.403  0.00  0.00    +0.000 C 
ENDROOT
BRANCH  16  18
ATOM     18  C   UNL     1      -0.467  10.891  21.881  0.00  0.00    +0.000 C 
ATOM     19  C   UNL     1       1.012  10.624  21.449  0.00  0.00    +0.000 C 
ATOM     20  C   UNL     1      -0.747   9.768  22.892  0.00  0.00    +0.000 C 
ENDBRANCH  16  18
BRANCH   6  21
ATOM     21  O   UNL     1      -1.857  10.063  18.535  0.00  0.00    +0.000 OA
ATOM     22  H   UNL     1      -1.625   9.733  19.428  0.00  0.00    +0.000 HD
ENDBRANCH   6  21
BRANCH   1  23
ATOM     23  O   UNL     1       2.418  13.679  21.194  0.00  0.00    +0.000 OA
BRANCH  23  25
ATOM     24  C   UNL     1       2.908  16.037  21.114  0.00  0.00    +0.000 C 
ATOM     25  C   UNL     1       3.028  14.719  21.843  0.00  0.00    +0.000 C 
ATOM     26  O   UNL     1       3.684  14.538  22.827  0.00  0.00    +0.000 OA
ENDBRANCH  23  25
ENDBRANCH   1  23
BRANCH  17  27
ATOM     27  O   UNL     1      -0.335  14.619  23.254  0.00  0.00    +0.000 OA
BRANCH  27  28
ATOM     28  C   UNL     1      -0.398  15.927  22.913  0.00  0.00    +0.000 C 
ATOM     29  C   UNL     1      -1.447  16.122  21.824  0.00  0.00    +0.000 C 
ATOM     30  O   UNL     1       0.320  16.815  23.332  0.00  0.00    +0.000 OA
ENDBRANCH  27  28
ENDBRANCH  17  27
TORSDOF 6
ENDMDL
MODEL 8
REMARK VINA RESULT:      -5.3      2.516      4.717
REMARK  Name = 
REMARK  13 active torsions:
REMARK  status: ('A' for Active; 'I' for Inactive)
REMARK    1  A    between atoms: C_1  and  C_2
REMARK    2  A    between atoms: C_2  and  O_4
REMARK    3  A    between atoms: O_4  and  C_5
REMARK    4  A    between atoms: C_6  and  C_7
REMARK    5  A    between atoms: C_10  and  O_11
REMARK    6  A    between atoms: C_12  and  C_13
REMARK    7  A    between atoms: C_17  and  C_18
REMARK    8  A    between atoms: C_21  and  C_22
REMARK    9  A    between atoms: C_22  and  C_23
REMARK   10  A    between atoms: C_22  and  C_24
REMARK   11  A    between atoms: C_25  and  O_26
REMARK   12  A    between atoms: O_26  and  C_27
REMARK   13  A    between atoms: C_27  and  C_28
REMARK                            x       y       z     vdW  Elec       q    Type
REMARK                         _______ _______ _______ _____ _____    ______ ____
ROOT
ATOM      1  C   UNL     1      -5.139  13.174  21.573  0.00  0.00    +0.000 C 
ATOM      2  C   UNL     1      -5.398  12.176  20.379  0.00  0.00    +0.000 C 
ATOM      3  C   UNL     1      -6.799  11.671  20.109  0.00  0.00    +0.000 C 
ATOM      4  C   UNL     1      -4.643  12.261  19.250  0.00  0.00    +0.000 C 
ATOM      5  C   UNL     1      -4.109  11.170  18.350  0.00  0.00    +0.000 C 
ATOM      6  C   UNL     1      -2.584  11.383  18.120  0.00  0.00    +0.000 C 
ATOM      7  C   UNL     1      -1.812  10.140  17.674  0.00  0.00    +0.000 C 
ATOM      8  C   UNL     1      -1.928   9.730  16.235  0.00  0.00    +0.000 C 
ATOM      9  C   UNL     1      -1.021   9.457  18.547  0.00  0.00    +0.000 C 
ATOM     10  C   UNL     1      -0.876   9.986  19.948  0.00  0.00    +0.000 C 
ATOM     11  C   UNL     1      -0.154   9.303  21.095  0.00  0.00    +0.000 C 
ATOM     12  C   UNL     1      -0.338  10.042  22.438  0.00  0.00    +0.000 C 
ATOM     13  C   UNL     1       0.319   9.289  23.584  0.00  0.00    +0.000 C 
ATOM     14  C   UNL     1      -0.967  11.219  22.733  0.00  0.00    +0.000 C 
ATOM     15  C   UNL     1      -1.394  12.281  21.825  0.00  0.00    +0.000 C 
ATOM     16  C   UNL     1      -2.437  13.151  21.704  0.00  0.00    +0.000 C 
ATOM     17  C   UNL     1      -3.785  13.189  22.502  0.00  0.00    +0.000 C 
ENDROOT
BRANCH  16  18
ATOM     18  C   UNL     1      -2.288  14.245  20.529  0.00  0.00    +0.000 C 
ATOM     19  C   UNL     1      -2.453  15.786  20.734  0.00  0.00    +0.000 C 
ATOM     20  C   UNL     1      -0.972  14.132  19.742  0.00  0.00    +0.000 C 
ENDBRANCH  16  18
BRANCH   6  21
ATOM     21  O   UNL     1      -2.305  12.485  17.256  0.00  0.00    +0.000 OA
ATOM     22  H   UNL     1      -1.452  12.877  17.536  0.00  0.00    +0.000 HD
ENDBRANCH   6  21
BRANCH   1  23
ATOM     23  O   UNL     1      -6.161  14.235  21.783  0.00  0.00    +0.000 OA
BRANCH  23  25
ATOM     24  C   UNL     1      -6.012  15.725  19.895  0.00  0.00    +0.000 C 
ATOM     25  C   UNL     1      -5.895  15.519  21.388  0.00  0.00    +0.000 C 
ATOM     26  O   UNL     1      -5.496  16.338  22.162  0.00  0.00    +0.000 OA
ENDBRANCH  23  25
ENDBRANCH   1  23
BRANCH  17  27
ATOM     27  O   UNL     1      -3.753  12.587  23.832  0.00  0.00    +0.000 OA
BRANCH  27  28
ATOM     28  C   UNL     1      -3.868  13.209  25.028  0.00  0.00    +0.000 C 
ATOM     29  C   UNL     1      -3.330  14.631  24.919  0.00  0.00    +0.000 C 
ATOM     30  O   UNL     1      -4.256  12.706  26.065  0.00  0.00    +0.000 OA
ENDBRANCH  27  28
ENDBRANCH  17  27
TORSDOF 6
ENDMDL
MODEL 9
REMARK VINA RESULT:      -5.3      2.709      6.144
REMARK  Name = 
REMARK  13 active torsions:
REMARK  status: ('A' for Active; 'I' for Inactive)
REMARK    1  A    between atoms: C_1  and  C_2
REMARK    2  A    between atoms: C_2  and  O_4
REMARK    3  A    between atoms: O_4  and  C_5
REMARK    4  A    between atoms: C_6  and  C_7
REMARK    5  A    between atoms: C_10  and  O_11
REMARK    6  A    between atoms: C_12  and  C_13
REMARK    7  A    between atoms: C_17  and  C_18
REMARK    8  A    between atoms: C_21  and  C_22
REMARK    9  A    between atoms: C_22  and  C_23
REMARK   10  A    between atoms: C_22  and  C_24
REMARK   11  A    between atoms: C_25  and  O_26
REMARK   12  A    between atoms: O_26  and  C_27
REMARK   13  A    between atoms: C_27  and  C_28
REMARK                            x       y       z     vdW  Elec       q    Type
REMARK                         _______ _______ _______ _____ _____    ______ ____
ROOT
ATOM      1  C   UNL     1      -5.818  14.391  21.289  0.00  0.00    +0.000 C 
ATOM      2  C   UNL     1      -5.251  15.700  20.614  0.00  0.00    +0.000 C 
ATOM      3  C   UNL     1      -6.203  16.717  20.024  0.00  0.00    +0.000 C 
ATOM      4  C   UNL     1      -4.107  16.264  21.088  0.00  0.00    +0.000 C 
ATOM      5  C   UNL     1      -2.974  16.941  20.350  0.00  0.00    +0.000 C 
ATOM      6  C   UNL     1      -1.616  16.333  20.809  0.00  0.00    +0.000 C 
ATOM      7  C   UNL     1      -0.452  16.530  19.835  0.00  0.00    +0.000 C 
ATOM      8  C   UNL     1       0.208  17.877  19.806  0.00  0.00    +0.000 C 
ATOM      9  C   UNL     1      -0.014  15.505  19.053  0.00  0.00    +0.000 C 
ATOM     10  C   UNL     1      -0.660  14.156  19.210  0.00  0.00    +0.000 C 
ATOM     11  C   UNL     1      -0.406  12.933  18.347  0.00  0.00    +0.000 C 
ATOM     12  C   UNL     1      -1.359  11.763  18.678  0.00  0.00    +0.000 C 
ATOM     13  C   UNL     1      -1.143  10.586  17.741  0.00  0.00    +0.000 C 
ATOM     14  C   UNL     1      -2.314  11.634  19.646  0.00  0.00    +0.000 C 
ATOM     15  C   UNL     1      -2.517  12.443  20.846  0.00  0.00    +0.000 C 
ATOM     16  C   UNL     1      -3.562  12.925  21.577  0.00  0.00    +0.000 C 
ATOM     17  C   UNL     1      -5.090  12.920  21.232  0.00  0.00    +0.000 C 
ENDROOT
BRANCH  16  18
ATOM     18  C   UNL     1      -3.157  13.666  22.951  0.00  0.00    +0.000 C 
ATOM     19  C   UNL     1      -3.823  13.378  24.336  0.00  0.00    +0.000 C 
ATOM     20  C   UNL     1      -1.653  13.612  23.263  0.00  0.00    +0.000 C 
ENDBRANCH  16  18
BRANCH   6  21
ATOM     21  O   UNL     1      -1.245  16.743  22.124  0.00  0.00    +0.000 OA
ATOM     22  H   UNL     1      -2.027  17.166  22.538  0.00  0.00    +0.000 HD
ENDBRANCH   6  21
BRANCH   1  23
ATOM     23  O   UNL     1      -7.043  14.551  22.118  0.00  0.00    +0.000 OA
BRANCH  23  25
ATOM     24  C   UNL     1      -7.569  13.605  24.270  0.00  0.00    +0.000 C 
ATOM     25  C   UNL     1      -6.927  14.716  23.473  0.00  0.00    +0.000 C 
ATOM     26  O   UNL     1      -6.461  15.713  23.940  0.00  0.00    +0.000 OA
ENDBRANCH  23  25
ENDBRANCH   1  23
BRANCH  17  27
ATOM     27  O   UNL     1      -5.530  11.876  20.311  0.00  0.00    +0.000 OA
BRANCH  27  28
ATOM     28  C   UNL     1      -6.362  11.999  19.252  0.00  0.00    +0.000 C 
ATOM     29  C   UNL     1      -5.544  12.152  17.974  0.00  0.00    +0.000 C 
ATOM     30  O   UNL     1      -7.576  12.068  19.294  0.00  0.00    +0.000 OA
ENDBRANCH  27  28
ENDBRANCH  17  27
TORSDOF 6
ENDMDL
