MODEL 1
REMARK VINA RESULT:      -9.2      0.000      0.000
REMARK  Name = 
REMARK  5 active torsions:
REMARK  status: ('A' for Active; 'I' for Inactive)
REMARK    1  A    between atoms: C_5  and  N_6
REMARK    2  A    between atoms: C_10  and  C_11
REMARK    3  A    between atoms: N_14  and  C_15
REMARK    4  A    between atoms: C_15  and  C_16
REMARK    5  A    between atoms: C_21  and  C_22
REMARK                            x       y       z     vdW  Elec       q    Type
REMARK                         _______ _______ _______ _____ _____    ______ ____
ROOT
ATOM      1  N   UNL     1       3.959   5.640  18.954  0.00  0.00    +0.000 N 
ATOM      2  C   UNL     1       3.078   5.931  20.082  0.00  0.00    +0.000 C 
ATOM      3  C   UNL     1       2.385   7.190  19.646  0.00  0.00    +0.000 A 
ATOM      4  C   UNL     1       1.407   7.974  20.255  0.00  0.00    +0.000 A 
ATOM      5  C   UNL     1       0.880   9.096  19.562  0.00  0.00    +0.000 A 
ATOM      6  C   UNL     1       1.383   9.380  18.268  0.00  0.00    +0.000 A 
ATOM      7  C   UNL     1       2.373   8.611  17.669  0.00  0.00    +0.000 A 
ATOM      8  C   UNL     1       2.831   7.527  18.373  0.00  0.00    +0.000 A 
ATOM      9  C   UNL     1       3.777   6.524  17.912  0.00  0.00    +0.000 C 
ATOM     10  O   UNL     1       4.243   6.498  16.792  0.00  0.00    +0.000 OA
ENDROOT
BRANCH   1  15
ATOM     11  O   UNL     1       7.532   4.655  15.733  0.00  0.00    +0.000 OA
ATOM     12  C   UNL     1       6.772   4.574  16.697  0.00  0.00    +0.000 C 
ATOM     13  C   UNL     1       7.066   5.268  18.006  0.00  0.00    +0.000 C 
ATOM     14  C   UNL     1       6.286   4.679  19.171  0.00  0.00    +0.000 C 
ATOM     15  C   UNL     1       4.804   4.446  18.876  0.00  0.00    +0.000 C 
ATOM     16  C   UNL     1       4.601   3.733  17.535  0.00  0.00    +0.000 C 
ATOM     17  O   UNL     1       3.551   3.158  17.251  0.00  0.00    +0.000 OA
ATOM     18  N   UNL     1       5.612   3.845  16.611  0.00  0.00    +0.000 N 
ATOM     19  H   UNL     1       5.427   3.440  15.704  0.00  0.00    +0.000 HD
ENDBRANCH   1  15
BRANCH   5  20
ATOM     20  C   UNL     1      -0.294   9.902  20.143  0.00  0.00    +0.000 C 
ATOM     21  C   UNL     1      -1.112  10.748  19.148  0.00  0.00    +0.000 C 
ATOM     22  C   UNL     1      -0.344  11.975  18.638  0.00  0.00    +0.000 C 
ATOM     23  N   UNL     1       0.256  12.825  19.675  0.00  0.00    +0.000 NA
ATOM     24  C   UNL     1       0.835  12.078  20.811  0.00  0.00    +0.000 C 
ATOM     25  C   UNL     1       0.060  10.852  21.295  0.00  0.00    +0.000 C 
BRANCH  23  26
ATOM     26  C   UNL     1       1.356  13.647  19.087  0.00  0.00    +0.000 C 
BRANCH  26  27
ATOM     27  C   UNL     1       1.099  15.134  18.904  0.00  0.00    +0.000 A 
ATOM     28  C   UNL     1      -0.236  15.546  18.704  0.00  0.00    +0.000 A 
ATOM     29  C   UNL     1      -0.574  16.896  18.613  0.00  0.00    +0.000 A 
ATOM     30  C   UNL     1       0.416  17.860  18.727  0.00  0.00    +0.000 A 
ATOM     31  C   UNL     1       1.740  17.469  18.914  0.00  0.00    +0.000 A 
ATOM     32  C   UNL     1       2.125  16.112  19.010  0.00  0.00    +0.000 A 
BRANCH  32  33
ATOM     33  C   UNL     1       3.614  15.815  19.132  0.00  0.00    +0.000 C 
ATOM     34  C   UNL     1       4.382  15.425  17.880  0.00  0.00    +0.000 C 
ATOM     35  C   UNL     1       4.705  16.700  18.585  0.00  0.00    +0.000 C 
ENDBRANCH  32  33
ENDBRANCH  26  27
ENDBRANCH  23  26
ENDBRANCH   5  20
TORSDOF 5
ENDMDL
MODEL 2
REMARK VINA RESULT:      -9.1      2.507      3.959
REMARK  Name = 
REMARK  5 active torsions:
REMARK  status: ('A' for Active; 'I' for Inactive)
REMARK    1  A    between atoms: C_5  and  N_6
REMARK    2  A    between atoms: C_10  and  C_11
REMARK    3  A    between atoms: N_14  and  C_15
REMARK    4  A    between atoms: C_15  and  C_16
REMARK    5  A    between atoms: C_21  and  C_22
REMARK                            x       y       z     vdW  Elec       q    Type
REMARK                         _______ _______ _______ _____ _____    ______ ____
ROOT
ATOM      1  N   UNL     1       3.733   5.782  18.636  0.00  0.00    +0.000 N 
ATOM      2  C   UNL     1       3.683   6.890  17.685  0.00  0.00    +0.000 C 
ATOM      3  C   UNL     1       2.676   7.815  18.308  0.00  0.00    +0.000 A 
ATOM      4  C   UNL     1       2.188   9.060  17.916  0.00  0.00    +0.000 A 
ATOM      5  C   UNL     1       1.271   9.746  18.755  0.00  0.00    +0.000 A 
ATOM      6  C   UNL     1       0.878   9.124  19.967  0.00  0.00    +0.000 A 
ATOM      7  C   UNL     1       1.348   7.873  20.348  0.00  0.00    +0.000 A 
ATOM      8  C   UNL     1       2.249   7.265  19.511  0.00  0.00    +0.000 A 
ATOM      9  C   UNL     1       2.954   6.016  19.748  0.00  0.00    +0.000 C 
ATOM     10  O   UNL     1       2.866   5.374  20.773  0.00  0.00    +0.000 OA
ENDROOT
BRANCH   1  15
ATOM     11  O   UNL     1       7.496   5.258  15.525  0.00  0.00    +0.000 OA
ATOM     12  C   UNL     1       6.699   5.056  16.439  0.00  0.00    +0.000 C 
ATOM     13  C   UNL     1       6.896   5.647  17.814  0.00  0.00    +0.000 C 
ATOM     14  C   UNL     1       6.097   4.922  18.886  0.00  0.00    +0.000 C 
ATOM     15  C   UNL     1       4.644   4.642  18.499  0.00  0.00    +0.000 C 
ATOM     16  C   UNL     1       4.540   4.039  17.095  0.00  0.00    +0.000 C 
ATOM     17  O   UNL     1       3.535   3.440  16.711  0.00  0.00    +0.000 OA
ATOM     18  N   UNL     1       5.584   4.281  16.234  0.00  0.00    +0.000 N 
ATOM     19  H   UNL     1       5.462   3.947  15.289  0.00  0.00    +0.000 HD
ENDBRANCH   1  15
BRANCH   5  20
ATOM     20  C   UNL     1       0.817  11.178  18.425  0.00  0.00    +0.000 C 
ATOM     21  C   UNL     1       1.507  12.318  19.197  0.00  0.00    +0.000 C 
ATOM     22  C   UNL     1       1.085  12.379  20.672  0.00  0.00    +0.000 C 
ATOM     23  N   UNL     1      -0.362  12.384  20.919  0.00  0.00    +0.000 NA
ATOM     24  C   UNL     1      -1.133  11.499  20.022  0.00  0.00    +0.000 C 
ATOM     25  C   UNL     1      -0.689  11.443  18.561  0.00  0.00    +0.000 C 
BRANCH  23  26
ATOM     26  C   UNL     1      -0.642  11.941  22.318  0.00  0.00    +0.000 C 
BRANCH  26  27
ATOM     27  C   UNL     1      -1.721  12.686  23.087  0.00  0.00    +0.000 A 
ATOM     28  C   UNL     1      -2.890  11.974  23.427  0.00  0.00    +0.000 A 
ATOM     29  C   UNL     1      -3.892  12.551  24.206  0.00  0.00    +0.000 A 
ATOM     30  C   UNL     1      -3.742  13.851  24.664  0.00  0.00    +0.000 A 
ATOM     31  C   UNL     1      -2.598  14.572  24.328  0.00  0.00    +0.000 A 
ATOM     32  C   UNL     1      -1.559  14.024  23.540  0.00  0.00    +0.000 A 
BRANCH  32  33
ATOM     33  C   UNL     1      -0.400  14.942  23.176  0.00  0.00    +0.000 C 
ATOM     34  C   UNL     1      -0.545  15.847  21.963  0.00  0.00    +0.000 C 
ATOM     35  C   UNL     1      -0.424  16.442  23.327  0.00  0.00    +0.000 C 
ENDBRANCH  32  33
ENDBRANCH  26  27
ENDBRANCH  23  26
ENDBRANCH   5  20
TORSDOF 5
ENDMDL
MODEL 3
REMARK VINA RESULT:      -8.9      0.982      1.868
REMARK  Name = 
REMARK  5 active torsions:
REMARK  status: ('A' for Active; 'I' for Inactive)
REMARK    1  A    between atoms: C_5  and  N_6
REMARK    2  A    between atoms: C_10  and  C_11
REMARK    3  A    between atoms: N_14  and  C_15
REMARK    4  A    between atoms: C_15  and  C_16
REMARK    5  A    between atoms: C_21  and  C_22
REMARK                            x       y       z     vdW  Elec       q    Type
REMARK                         _______ _______ _______ _____ _____    ______ ____
ROOT
ATOM      1  N   UNL     1       3.813   5.808  18.883  0.00  0.00    +0.000 N 
ATOM      2  C   UNL     1       2.849   6.164  19.923  0.00  0.00    +0.000 C 
ATOM      3  C   UNL     1       2.275   7.455  19.413  0.00  0.00    +0.000 A 
ATOM      4  C   UNL     1       1.292   8.301  19.923  0.00  0.00    +0.000 A 
ATOM      5  C   UNL     1       0.897   9.442  19.176  0.00  0.00    +0.000 A 
ATOM      6  C   UNL     1       1.533   9.680  17.932  0.00  0.00    +0.000 A 
ATOM      7  C   UNL     1       2.528   8.848  17.433  0.00  0.00    +0.000 A 
ATOM      8  C   UNL     1       2.855   7.749  18.185  0.00  0.00    +0.000 A 
ATOM      9  C   UNL     1       3.779   6.687  17.822  0.00  0.00    +0.000 C 
ATOM     10  O   UNL     1       4.345   6.620  16.751  0.00  0.00    +0.000 OA
ENDROOT
BRANCH   1  15
ATOM     11  O   UNL     1       7.644   4.602  16.059  0.00  0.00    +0.000 OA
ATOM     12  C   UNL     1       6.783   4.570  16.936  0.00  0.00    +0.000 C 
ATOM     13  C   UNL     1       6.976   5.252  18.269  0.00  0.00    +0.000 C 
ATOM     14  C   UNL     1       6.044   4.715  19.345  0.00  0.00    +0.000 C 
ATOM     15  C   UNL     1       4.591   4.566  18.894  0.00  0.00    +0.000 C 
ATOM     16  C   UNL     1       4.489   3.860  17.539  0.00  0.00    +0.000 C 
ATOM     17  O   UNL     1       3.443   3.345  17.143  0.00  0.00    +0.000 OA
ATOM     18  N   UNL     1       5.598   3.909  16.726  0.00  0.00    +0.000 N 
ATOM     19  H   UNL     1       5.486   3.511  15.805  0.00  0.00    +0.000 HD
ENDBRANCH   1  15
BRANCH   5  20
ATOM     20  C   UNL     1      -0.277  10.322  19.638  0.00  0.00    +0.000 C 
ATOM     21  C   UNL     1      -0.597  11.557  18.775  0.00  0.00    +0.000 C 
ATOM     22  C   UNL     1       0.459  12.663  18.903  0.00  0.00    +0.000 C 
ATOM     23  N   UNL     1       0.801  13.060  20.275  0.00  0.00    +0.000 NA
ATOM     24  C   UNL     1       0.865  11.937  21.232  0.00  0.00    +0.000 C 
ATOM     25  C   UNL     1      -0.188  10.840  21.080  0.00  0.00    +0.000 C 
BRANCH  23  26
ATOM     26  C   UNL     1       2.136  13.729  20.295  0.00  0.00    +0.000 C 
BRANCH  26  27
ATOM     27  C   UNL     1       2.364  14.869  19.315  0.00  0.00    +0.000 A 
ATOM     28  C   UNL     1       3.333  14.678  18.307  0.00  0.00    +0.000 A 
ATOM     29  C   UNL     1       3.547  15.634  17.314  0.00  0.00    +0.000 A 
ATOM     30  C   UNL     1       2.793  16.797  17.308  0.00  0.00    +0.000 A 
ATOM     31  C   UNL     1       1.840  17.006  18.304  0.00  0.00    +0.000 A 
ATOM     32  C   UNL     1       1.593  16.063  19.328  0.00  0.00    +0.000 A 
BRANCH  32  33
ATOM     33  C   UNL     1       0.584  16.446  20.402  0.00  0.00    +0.000 C 
ATOM     34  C   UNL     1       1.093  17.098  21.677  0.00  0.00    +0.000 C 
ATOM     35  C   UNL     1       0.210  17.865  20.750  0.00  0.00    +0.000 C 
ENDBRANCH  32  33
ENDBRANCH  26  27
ENDBRANCH  23  26
ENDBRANCH   5  20
TORSDOF 5
ENDMDL
MODEL 4
REMARK VINA RESULT:      -8.9      2.956      4.265
REMARK  Name = 
REMARK  5 active torsions:
REMARK  status: ('A' for Active; 'I' for Inactive)
REMARK    1  A    between atoms: C_5  and  N_6
REMARK    2  A    between atoms: C_10  and  C_11
REMARK    3  A    between atoms: N_14  and  C_15
REMARK    4  A    between atoms: C_15  and  C_16
REMARK    5  A    between atoms: C_21  and  C_22
REMARK                            x       y       z     vdW  Elec       q    Type
REMARK                         _______ _______ _______ _____ _____    ______ ____
ROOT
ATOM      1  N   UNL     1       2.847   5.500  19.014  0.00  0.00    +0.000 N 
ATOM      2  C   UNL     1       2.873   6.570  18.020  0.00  0.00    +0.000 C 
ATOM      3  C   UNL     1       2.152   7.688  18.718  0.00  0.00    +0.000 A 
ATOM      4  C   UNL     1       1.856   8.992  18.327  0.00  0.00    +0.000 A 
ATOM      5  C   UNL     1       1.208   9.865  19.241  0.00  0.00    +0.000 A 
ATOM      6  C   UNL     1       0.877   9.364  20.525  0.00  0.00    +0.000 A 
ATOM      7  C   UNL     1       1.154   8.057  20.908  0.00  0.00    +0.000 A 
ATOM      8  C   UNL     1       1.801   7.265  19.995  0.00  0.00    +0.000 A 
ATOM      9  C   UNL     1       2.286   5.910  20.204  0.00  0.00    +0.000 C 
ATOM     10  O   UNL     1       2.223   5.325  21.265  0.00  0.00    +0.000 OA
ENDROOT
BRANCH   1  15
ATOM     11  O   UNL     1       6.477   4.362  15.909  0.00  0.00    +0.000 OA
ATOM     12  C   UNL     1       5.637   4.284  16.804  0.00  0.00    +0.000 C 
ATOM     13  C   UNL     1       5.926   4.747  18.212  0.00  0.00    +0.000 C 
ATOM     14  C   UNL     1       4.972   4.150  19.235  0.00  0.00    +0.000 C 
ATOM     15  C   UNL     1       3.501   4.203  18.821  0.00  0.00    +0.000 C 
ATOM     16  C   UNL     1       3.300   3.711  17.384  0.00  0.00    +0.000 C 
ATOM     17  O   UNL     1       2.200   3.358  16.959  0.00  0.00    +0.000 OA
ATOM     18  N   UNL     1       4.389   3.773  16.547  0.00  0.00    +0.000 N 
ATOM     19  H   UNL     1       4.219   3.524  15.583  0.00  0.00    +0.000 HD
ENDBRANCH   1  15
BRANCH   5  20
ATOM     20  C   UNL     1       0.988  11.348  18.896  0.00  0.00    +0.000 C 
ATOM     21  C   UNL     1       1.399  12.375  19.968  0.00  0.00    +0.000 C 
ATOM     22  C   UNL     1       0.459  12.378  21.182  0.00  0.00    +0.000 C 
ATOM     23  N   UNL     1      -0.973  12.487  20.877  0.00  0.00    +0.000 NA
ATOM     24  C   UNL     1      -1.398  11.727  19.683  0.00  0.00    +0.000 C 
ATOM     25  C   UNL     1      -0.442  11.728  18.490  0.00  0.00    +0.000 C 
BRANCH  23  26
ATOM     26  C   UNL     1      -1.780  11.981  22.027  0.00  0.00    +0.000 C 
BRANCH  26  27
ATOM     27  C   UNL     1      -2.900  12.869  22.543  0.00  0.00    +0.000 A 
ATOM     28  C   UNL     1      -4.208  12.604  22.083  0.00  0.00    +0.000 A 
ATOM     29  C   UNL     1      -5.307  13.312  22.568  0.00  0.00    +0.000 A 
ATOM     30  C   UNL     1      -5.120  14.295  23.528  0.00  0.00    +0.000 A 
ATOM     31  C   UNL     1      -3.834  14.576  23.985  0.00  0.00    +0.000 A 
ATOM     32  C   UNL     1      -2.694  13.883  23.518  0.00  0.00    +0.000 A 
BRANCH  32  33
ATOM     33  C   UNL     1      -1.337  14.341  24.037  0.00  0.00    +0.000 C 
ATOM     34  C   UNL     1      -0.570  15.385  23.241  0.00  0.00    +0.000 C 
ATOM     35  C   UNL     1      -1.064  15.707  24.612  0.00  0.00    +0.000 C 
ENDBRANCH  32  33
ENDBRANCH  26  27
ENDBRANCH  23  26
ENDBRANCH   5  20
TORSDOF 5
ENDMDL
MODEL 5
REMARK VINA RESULT:      -8.9      3.443      5.639
REMARK  Name = 
REMARK  5 active torsions:
REMARK  status: ('A' for Active; 'I' for Inactive)
REMARK    1  A    between atoms: C_5  and  N_6
REMARK    2  A    between atoms: C_10  and  C_11
REMARK    3  A    between atoms: N_14  and  C_15
REMARK    4  A    between atoms: C_15  and  C_16
REMARK    5  A    between atoms: C_21  and  C_22
REMARK                            x       y       z     vdW  Elec       q    Type
REMARK                         _______ _______ _______ _____ _____    ______ ____
ROOT
ATOM      1  N   UNL     1       2.654   6.555  18.514  0.00  0.00    +0.000 N 
ATOM      2  C   UNL     1       2.512   7.804  17.769  0.00  0.00    +0.000 C 
ATOM      3  C   UNL     1       1.798   8.693  18.746  0.00  0.00    +0.000 A 
ATOM      4  C   UNL     1       1.382  10.021  18.665  0.00  0.00    +0.000 A 
ATOM      5  C   UNL     1       0.777  10.634  19.794  0.00  0.00    +0.000 A 
ATOM      6  C   UNL     1       0.610   9.857  20.967  0.00  0.00    +0.000 A 
ATOM      7  C   UNL     1       1.005   8.527  21.042  0.00  0.00    +0.000 A 
ATOM      8  C   UNL     1       1.604   7.992  19.930  0.00  0.00    +0.000 A 
ATOM      9  C   UNL     1       2.192   6.667  19.808  0.00  0.00    +0.000 C 
ATOM     10  O   UNL     1       2.273   5.876  20.724  0.00  0.00    +0.000 OA
ENDROOT
BRANCH   1  15
ATOM     11  O   UNL     1       2.521   1.943  20.192  0.00  0.00    +0.000 OA
ATOM     12  C   UNL     1       2.762   2.925  19.493  0.00  0.00    +0.000 C 
ATOM     13  C   UNL     1       1.805   3.399  18.425  0.00  0.00    +0.000 C 
ATOM     14  C   UNL     1       2.472   4.297  17.395  0.00  0.00    +0.000 C 
ATOM     15  C   UNL     1       3.365   5.383  17.998  0.00  0.00    +0.000 C 
ATOM     16  C   UNL     1       4.304   4.813  19.065  0.00  0.00    +0.000 C 
ATOM     17  O   UNL     1       5.312   5.412  19.439  0.00  0.00    +0.000 OA
ATOM     18  N   UNL     1       3.922   3.639  19.669  0.00  0.00    +0.000 N 
ATOM     19  H   UNL     1       4.509   3.322  20.427  0.00  0.00    +0.000 HD
ENDBRANCH   1  15
BRANCH   5  20
ATOM     20  C   UNL     1       0.431  12.132  19.789  0.00  0.00    +0.000 C 
ATOM     21  C   UNL     1      -0.556  12.618  20.866  0.00  0.00    +0.000 C 
ATOM     22  C   UNL     1      -1.995  12.146  20.613  0.00  0.00    +0.000 C 
ATOM     23  N   UNL     1      -2.522  12.408  19.268  0.00  0.00    +0.000 NA
ATOM     24  C   UNL     1      -1.537  12.217  18.183  0.00  0.00    +0.000 C 
ATOM     25  C   UNL     1      -0.107  12.683  18.461  0.00  0.00    +0.000 C 
BRANCH  23  26
ATOM     26  C   UNL     1      -3.669  11.496  18.982  0.00  0.00    +0.000 C 
BRANCH  26  27
ATOM     27  C   UNL     1      -5.027  12.132  18.732  0.00  0.00    +0.000 A 
ATOM     28  C   UNL     1      -5.433  12.295  17.391  0.00  0.00    +0.000 A 
ATOM     29  C   UNL     1      -6.697  12.790  17.070  0.00  0.00    +0.000 A 
ATOM     30  C   UNL     1      -7.581  13.126  18.084  0.00  0.00    +0.000 A 
ATOM     31  C   UNL     1      -7.190  12.980  19.414  0.00  0.00    +0.000 A 
ATOM     32  C   UNL     1      -5.918  12.484  19.782  0.00  0.00    +0.000 A 
BRANCH  32  33
ATOM     33  C   UNL     1      -5.584  12.451  21.267  0.00  0.00    +0.000 C 
ATOM     34  C   UNL     1      -4.995  13.697  21.907  0.00  0.00    +0.000 C 
ATOM     35  C   UNL     1      -6.342  13.210  22.326  0.00  0.00    +0.000 C 
ENDBRANCH  32  33
ENDBRANCH  26  27
ENDBRANCH  23  26
ENDBRANCH   5  20
TORSDOF 5
ENDMDL
MODEL 6
REMARK VINA RESULT:      -8.8      0.718      1.993
REMARK  Name = 
REMARK  5 active torsions:
REMARK  status: ('A' for Active; 'I' for Inactive)
REMARK    1  A    between atoms: C_5  and  N_6
REMARK    2  A    between atoms: C_10  and  C_11
REMARK    3  A    between atoms: N_14  and  C_15
REMARK    4  A    between atoms: C_15  and  C_16
REMARK    5  A    between atoms: C_21  and  C_22
REMARK                            x       y       z     vdW  Elec       q    Type
REMARK                         _______ _______ _______ _____ _____    ______ ____
ROOT
ATOM      1  N   UNL     1       3.853   5.635  18.877  0.00  0.00    +0.000 N 
ATOM      2  C   UNL     1       3.008   5.954  20.026  0.00  0.00    +0.000 C 
ATOM      3  C   UNL     1       2.388   7.263  19.627  0.00  0.00    +0.000 A 
ATOM      4  C   UNL     1       1.469   8.091  20.268  0.00  0.00    +0.000 A 
ATOM      5  C   UNL     1       1.000   9.258  19.608  0.00  0.00    +0.000 A 
ATOM      6  C   UNL     1       1.501   9.540  18.312  0.00  0.00    +0.000 A 
ATOM      7  C   UNL     1       2.433   8.725  17.681  0.00  0.00    +0.000 A 
ATOM      8  C   UNL     1       2.834   7.600  18.354  0.00  0.00    +0.000 A 
ATOM      9  C   UNL     1       3.710   6.551  17.857  0.00  0.00    +0.000 C 
ATOM     10  O   UNL     1       4.157   6.521  16.730  0.00  0.00    +0.000 OA
ENDROOT
BRANCH   1  15
ATOM     11  O   UNL     1       7.494   4.603  15.748  0.00  0.00    +0.000 OA
ATOM     12  C   UNL     1       6.689   4.517  16.674  0.00  0.00    +0.000 C 
ATOM     13  C   UNL     1       6.969   5.112  18.033  0.00  0.00    +0.000 C 
ATOM     14  C   UNL     1       6.102   4.510  19.128  0.00  0.00    +0.000 C 
ATOM     15  C   UNL     1       4.622   4.394  18.760  0.00  0.00    +0.000 C 
ATOM     16  C   UNL     1       4.433   3.775  17.372  0.00  0.00    +0.000 C 
ATOM     17  O   UNL     1       3.361   3.289  17.011  0.00  0.00    +0.000 OA
ATOM     18  N   UNL     1       5.489   3.873  16.497  0.00  0.00    +0.000 N 
ATOM     19  H   UNL     1       5.318   3.535  15.561  0.00  0.00    +0.000 HD
ENDBRANCH   1  15
BRANCH   5  20
ATOM     20  C   UNL     1      -0.113  10.121  20.224  0.00  0.00    +0.000 C 
ATOM     21  C   UNL     1      -1.038  10.862  19.241  0.00  0.00    +0.000 C 
ATOM     22  C   UNL     1      -0.340  12.030  18.530  0.00  0.00    +0.000 C 
ATOM     23  N   UNL     1       0.358  12.980  19.405  0.00  0.00    +0.000 NA
ATOM     24  C   UNL     1       1.060  12.352  20.544  0.00  0.00    +0.000 C 
ATOM     25  C   UNL     1       0.352  11.183  21.229  0.00  0.00    +0.000 C 
BRANCH  23  26
ATOM     26  C   UNL     1       1.382  13.736  18.624  0.00  0.00    +0.000 C 
BRANCH  26  27
ATOM     27  C   UNL     1       1.858  15.064  19.190  0.00  0.00    +0.000 A 
ATOM     28  C   UNL     1       3.135  15.098  19.790  0.00  0.00    +0.000 A 
ATOM     29  C   UNL     1       3.687  16.290  20.258  0.00  0.00    +0.000 A 
ATOM     30  C   UNL     1       2.974  17.473  20.130  0.00  0.00    +0.000 A 
ATOM     31  C   UNL     1       1.707  17.454  19.550  0.00  0.00    +0.000 A 
ATOM     32  C   UNL     1       1.111  16.267  19.065  0.00  0.00    +0.000 A 
BRANCH  32  33
ATOM     33  C   UNL     1      -0.310  16.368  18.528  0.00  0.00    +0.000 C 
ATOM     34  C   UNL     1      -1.444  16.605  19.513  0.00  0.00    +0.000 C 
ATOM     35  C   UNL     1      -1.117  17.642  18.490  0.00  0.00    +0.000 C 
ENDBRANCH  32  33
ENDBRANCH  26  27
ENDBRANCH  23  26
ENDBRANCH   5  20
TORSDOF 5
ENDMDL
MODEL 7
REMARK VINA RESULT:      -8.7      2.969      4.797
REMARK  Name = 
REMARK  5 active torsions:
REMARK  status: ('A' for Active; 'I' for Inactive)
REMARK    1  A    between atoms: C_5  and  N_6
REMARK    2  A    between atoms: C_10  and  C_11
REMARK    3  A    between atoms: N_14  and  C_15
REMARK    4  A    between atoms: C_15  and  C_16
REMARK    5  A    between atoms: C_21  and  C_22
REMARK                            x       y       z     vdW  Elec       q    Type
REMARK                         _______ _______ _______ _____ _____    ______ ____
ROOT
ATOM      1  N   UNL     1       2.932   5.511  18.987  0.00  0.00    +0.000 N 
ATOM      2  C   UNL     1       2.978   6.602  18.016  0.00  0.00    +0.000 C 
ATOM      3  C   UNL     1       2.230   7.700  18.717  0.00  0.00    +0.000 A 
ATOM      4  C   UNL     1       1.934   9.010  18.345  0.00  0.00    +0.000 A 
ATOM      5  C   UNL     1       1.255   9.860  19.258  0.00  0.00    +0.000 A 
ATOM      6  C   UNL     1       0.893   9.330  20.521  0.00  0.00    +0.000 A 
ATOM      7  C   UNL     1       1.169   8.018  20.885  0.00  0.00    +0.000 A 
ATOM      8  C   UNL     1       1.846   7.248  19.974  0.00  0.00    +0.000 A 
ATOM      9  C   UNL     1       2.336   5.893  20.169  0.00  0.00    +0.000 C 
ATOM     10  O   UNL     1       2.247   5.286  21.216  0.00  0.00    +0.000 OA
ENDROOT
BRANCH   1  15
ATOM     11  O   UNL     1       6.551   4.426  15.852  0.00  0.00    +0.000 OA
ATOM     12  C   UNL     1       5.720   4.336  16.753  0.00  0.00    +0.000 C 
ATOM     13  C   UNL     1       6.014   4.799  18.160  0.00  0.00    +0.000 C 
ATOM     14  C   UNL     1       5.076   4.188  19.188  0.00  0.00    +0.000 C 
ATOM     15  C   UNL     1       3.601   4.223  18.786  0.00  0.00    +0.000 C 
ATOM     16  C   UNL     1       3.395   3.732  17.350  0.00  0.00    +0.000 C 
ATOM     17  O   UNL     1       2.296   3.366  16.933  0.00  0.00    +0.000 OA
ATOM     18  N   UNL     1       4.476   3.809  16.504  0.00  0.00    +0.000 N 
ATOM     19  H   UNL     1       4.301   3.560  15.542  0.00  0.00    +0.000 HD
ENDBRANCH   1  15
BRANCH   5  20
ATOM     20  C   UNL     1       1.034  11.348  18.937  0.00  0.00    +0.000 C 
ATOM     21  C   UNL     1       1.329  12.350  20.069  0.00  0.00    +0.000 C 
ATOM     22  C   UNL     1       0.289  12.298  21.197  0.00  0.00    +0.000 C 
ATOM     23  N   UNL     1      -1.114  12.390  20.772  0.00  0.00    +0.000 NA
ATOM     24  C   UNL     1      -1.418  11.658  19.525  0.00  0.00    +0.000 C 
ATOM     25  C   UNL     1      -0.364  11.712  18.420  0.00  0.00    +0.000 C 
BRANCH  23  26
ATOM     26  C   UNL     1      -2.006  11.834  21.834  0.00  0.00    +0.000 C 
BRANCH  26  27
ATOM     27  C   UNL     1      -2.956  12.797  22.527  0.00  0.00    +0.000 A 
ATOM     28  C   UNL     1      -2.577  13.288  23.795  0.00  0.00    +0.000 A 
ATOM     29  C   UNL     1      -3.344  14.240  24.464  0.00  0.00    +0.000 A 
ATOM     30  C   UNL     1      -4.503  14.725  23.876  0.00  0.00    +0.000 A 
ATOM     31  C   UNL     1      -4.896  14.242  22.629  0.00  0.00    +0.000 A 
ATOM     32  C   UNL     1      -4.147  13.276  21.918  0.00  0.00    +0.000 A 
BRANCH  32  33
ATOM     33  C   UNL     1      -4.727  12.772  20.604  0.00  0.00    +0.000 C 
ATOM     34  C   UNL     1      -6.036  11.999  20.637  0.00  0.00    +0.000 C 
ATOM     35  C   UNL     1      -5.971  13.325  19.955  0.00  0.00    +0.000 C 
ENDBRANCH  32  33
ENDBRANCH  26  27
ENDBRANCH  23  26
ENDBRANCH   5  20
TORSDOF 5
ENDMDL
MODEL 8
REMARK VINA RESULT:      -8.7      3.050      4.940
REMARK  Name = 
REMARK  5 active torsions:
REMARK  status: ('A' for Active; 'I' for Inactive)
REMARK    1  A    between atoms: C_5  and  N_6
REMARK    2  A    between atoms: C_10  and  C_11
REMARK    3  A    between atoms: N_14  and  C_15
REMARK    4  A    between atoms: C_15  and  C_16
REMARK    5  A    between atoms: C_21  and  C_22
REMARK                            x       y       z     vdW  Elec       q    Type
REMARK                         _______ _______ _______ _____ _____    ______ ____
ROOT
ATOM      1  N   UNL     1       2.808   5.138  19.196  0.00  0.00    +0.000 N 
ATOM      2  C   UNL     1       2.841   6.348  18.379  0.00  0.00    +0.000 C 
ATOM      3  C   UNL     1       2.132   7.351  19.244  0.00  0.00    +0.000 A 
ATOM      4  C   UNL     1       1.847   8.703  19.060  0.00  0.00    +0.000 A 
ATOM      5  C   UNL     1       1.209   9.430  20.100  0.00  0.00    +0.000 A 
ATOM      6  C   UNL     1       0.877   8.739  21.292  0.00  0.00    +0.000 A 
ATOM      7  C   UNL     1       1.143   7.387  21.468  0.00  0.00    +0.000 A 
ATOM      8  C   UNL     1       1.780   6.739  20.441  0.00  0.00    +0.000 A 
ATOM      9  C   UNL     1       2.254   5.364  20.437  0.00  0.00    +0.000 C 
ATOM     10  O   UNL     1       2.188   4.623  21.396  0.00  0.00    +0.000 OA
ENDROOT
BRANCH   1  15
ATOM     11  O   UNL     1       6.488   4.473  16.015  0.00  0.00    +0.000 OA
ATOM     12  C   UNL     1       5.629   4.261  16.868  0.00  0.00    +0.000 C 
ATOM     13  C   UNL     1       5.894   4.479  18.339  0.00  0.00    +0.000 C 
ATOM     14  C   UNL     1       4.911   3.736  19.230  0.00  0.00    +0.000 C 
ATOM     15  C   UNL     1       3.449   3.880  18.803  0.00  0.00    +0.000 C 
ATOM     16  C   UNL     1       3.273   3.636  17.301  0.00  0.00    +0.000 C 
ATOM     17  O   UNL     1       2.178   3.376  16.802  0.00  0.00    +0.000 OA
ATOM     18  N   UNL     1       4.380   3.819  16.506  0.00  0.00    +0.000 N 
ATOM     19  H   UNL     1       4.227   3.736  15.511  0.00  0.00    +0.000 HD
ENDBRANCH   1  15
BRANCH   5  20
ATOM     20  C   UNL     1       1.002  10.949  19.989  0.00  0.00    +0.000 C 
ATOM     21  C   UNL     1      -0.065  11.571  20.909  0.00  0.00    +0.000 C 
ATOM     22  C   UNL     1      -1.497  11.208  20.491  0.00  0.00    +0.000 C 
ATOM     23  N   UNL     1      -1.826  11.444  19.079  0.00  0.00    +0.000 NA
ATOM     24  C   UNL     1      -0.733  11.115  18.140  0.00  0.00    +0.000 C 
ATOM     25  C   UNL     1       0.686  11.474  18.582  0.00  0.00    +0.000 C 
BRANCH  23  26
ATOM     26  C   UNL     1      -3.005  10.616  18.685  0.00  0.00    +0.000 C 
BRANCH  26  27
ATOM     27  C   UNL     1      -4.205  11.340  18.096  0.00  0.00    +0.000 A 
ATOM     28  C   UNL     1      -5.186  11.814  18.992  0.00  0.00    +0.000 A 
ATOM     29  C   UNL     1      -6.275  12.563  18.548  0.00  0.00    +0.000 A 
ATOM     30  C   UNL     1      -6.401  12.858  17.199  0.00  0.00    +0.000 A 
ATOM     31  C   UNL     1      -5.445  12.389  16.300  0.00  0.00    +0.000 A 
ATOM     32  C   UNL     1      -4.328  11.625  16.709  0.00  0.00    +0.000 A 
BRANCH  32  33
ATOM     33  C   UNL     1      -3.401  11.103  15.618  0.00  0.00    +0.000 C 
ATOM     34  C   UNL     1      -3.049   9.625  15.611  0.00  0.00    +0.000 C 
ATOM     35  C   UNL     1      -3.840  10.208  14.487  0.00  0.00    +0.000 C 
ENDBRANCH  32  33
ENDBRANCH  26  27
ENDBRANCH  23  26
ENDBRANCH   5  20
TORSDOF 5
ENDMDL
MODEL 9
REMARK VINA RESULT:      -8.6      1.285      2.006
REMARK  Name = 
REMARK  5 active torsions:
REMARK  status: ('A' for Active; 'I' for Inactive)
REMARK    1  A    between atoms: C_5  and  N_6
REMARK    2  A    between atoms: C_10  and  C_11
REMARK    3  A    between atoms: N_14  and  C_15
REMARK    4  A    between atoms: C_15  and  C_16
REMARK    5  A    between atoms: C_21  and  C_22
REMARK                            x       y       z     vdW  Elec       q    Type
REMARK                         _______ _______ _______ _____ _____    ______ ____
ROOT
ATOM      1  N   UNL     1       4.105   5.981  18.073  0.00  0.00    +0.000 N 
ATOM      2  C   UNL     1       3.247   6.051  19.253  0.00  0.00    +0.000 C 
ATOM      3  C   UNL     1       2.570   7.383  19.091  0.00  0.00    +0.000 A 
ATOM      4  C   UNL     1       1.616   8.043  19.862  0.00  0.00    +0.000 A 
ATOM      5  C   UNL     1       1.098   9.288  19.419  0.00  0.00    +0.000 A 
ATOM      6  C   UNL     1       1.587   9.820  18.199  0.00  0.00    +0.000 A 
ATOM      7  C   UNL     1       2.554   9.172  17.440  0.00  0.00    +0.000 A 
ATOM      8  C   UNL     1       3.003   7.962  17.903  0.00  0.00    +0.000 A 
ATOM      9  C   UNL     1       3.924   7.058  17.234  0.00  0.00    +0.000 C 
ATOM     10  O   UNL     1       4.374   7.251  16.123  0.00  0.00    +0.000 OA
ENDROOT
BRANCH   1  15
ATOM     11  O   UNL     1       3.357   1.289  19.311  0.00  0.00    +0.000 OA
ATOM     12  C   UNL     1       3.829   2.300  18.795  0.00  0.00    +0.000 C 
ATOM     13  C   UNL     1       3.284   2.867  17.506  0.00  0.00    +0.000 C 
ATOM     14  C   UNL     1       4.266   3.797  16.811  0.00  0.00    +0.000 C 
ATOM     15  C   UNL     1       4.928   4.814  17.742  0.00  0.00    +0.000 C 
ATOM     16  C   UNL     1       5.456   4.152  19.018  0.00  0.00    +0.000 C 
ATOM     17  O   UNL     1       6.295   4.692  19.739  0.00  0.00    +0.000 OA
ATOM     18  N   UNL     1       4.878   2.960  19.386  0.00  0.00    +0.000 N 
ATOM     19  H   UNL     1       5.178   2.580  20.272  0.00  0.00    +0.000 HD
ENDBRANCH   1  15
BRANCH   5  20
ATOM     20  C   UNL     1      -0.053   9.978  20.170  0.00  0.00    +0.000 C 
ATOM     21  C   UNL     1      -1.061  10.769  19.316  0.00  0.00    +0.000 C 
ATOM     22  C   UNL     1      -0.472  12.068  18.748  0.00  0.00    +0.000 C 
ATOM     23  N   UNL     1       0.186  12.947  19.724  0.00  0.00    +0.000 NA
ATOM     24  C   UNL     1       0.969  12.231  20.752  0.00  0.00    +0.000 C 
ATOM     25  C   UNL     1       0.370  10.933  21.295  0.00  0.00    +0.000 C 
BRANCH  23  26
ATOM     26  C   UNL     1       1.126  13.872  19.024  0.00  0.00    +0.000 C 
BRANCH  26  27
ATOM     27  C   UNL     1       0.704  15.325  18.881  0.00  0.00    +0.000 A 
ATOM     28  C   UNL     1      -0.573  15.684  19.362  0.00  0.00    +0.000 A 
ATOM     29  C   UNL     1      -1.008  17.009  19.350  0.00  0.00    +0.000 A 
ATOM     30  C   UNL     1      -0.172  18.002  18.863  0.00  0.00    +0.000 A 
ATOM     31  C   UNL     1       1.089  17.662  18.376  0.00  0.00    +0.000 A 
ATOM     32  C   UNL     1       1.567  16.332  18.368  0.00  0.00    +0.000 A 
BRANCH  32  33
ATOM     33  C   UNL     1       2.928  16.082  17.733  0.00  0.00    +0.000 C 
ATOM     34  C   UNL     1       4.175  16.465  18.514  0.00  0.00    +0.000 C 
ATOM     35  C   UNL     1       3.904  15.031  18.199  0.00  0.00    +0.000 C 
ENDBRANCH  32  33
ENDBRANCH  26  27
ENDBRANCH  23  26
ENDBRANCH   5  20
TORSDOF 5
ENDMDL
