MODEL 1
REMARK VINA RESULT:      -7.8      0.000      0.000
REMARK  Name = 
REMARK  8 active torsions:
REMARK  status: ('A' for Active; 'I' for Inactive)
REMARK    1  A    between atoms: C_2  and  C_12
REMARK    2  A    between atoms: N_3  and  C_4
REMARK    3  A    between atoms: C_4  and  C_5
REMARK    4  A    between atoms: C_5  and  C_6
REMARK    5  A    between atoms: C_6  and  N_7
REMARK    6  A    between atoms: C_15  and  C_16
REMARK    7  A    between atoms: C_16  and  C_17
REMARK    8  A    between atoms: C_26  and  O_27
REMARK                            x       y       z     vdW  Elec       q    Type
REMARK                         _______ _______ _______ _____ _____    ______ ____
ROOT
ATOM      1  C   UNL     1       6.612   6.160  17.620  0.00  0.00    +0.000 A 
ATOM      2  C   UNL     1       5.673   5.789  16.685  0.00  0.00    +0.000 A 
ATOM      3  N   UNL     1       4.811   4.756  16.853  0.00  0.00    +0.000 NA
ATOM      4  C   UNL     1       4.893   4.067  18.008  0.00  0.00    +0.000 A 
ATOM      5  N   UNL     1       5.760   4.368  19.000  0.00  0.00    +0.000 NA
ATOM      6  C   UNL     1       6.582   5.404  18.767  0.00  0.00    +0.000 A 
ENDROOT
BRANCH   1   8
ATOM      7  O   UNL     1       8.258   7.229  16.337  0.00  0.00    +0.000 OA
ATOM      8  C   UNL     1       7.544   7.273  17.333  0.00  0.00    +0.000 C 
ATOM      9  N   UNL     1       7.567   8.322  18.228  0.00  0.00    +0.000 N 
ATOM     10  H   UNL     1       6.914   8.308  19.009  0.00  0.00    +0.000 HD
BRANCH   9  11
ATOM     11  C   UNL     1       8.396   9.492  18.037  0.00  0.00    +0.000 C 
BRANCH  11  12
ATOM     12  C   UNL     1       9.212   9.804  19.285  0.00  0.00    +0.000 C 
BRANCH  12  13
ATOM     13  C   UNL     1       9.193  11.298  19.587  0.00  0.00    +0.000 C 
BRANCH  13  14
ATOM     14  N   UNL     1      10.446  11.936  19.229  0.00  0.00    +0.000 N 
ATOM     15  C   UNL     1      11.048  11.918  18.003  0.00  0.00    +0.000 A 
ATOM     16  C   UNL     1      12.207  12.647  18.140  0.00  0.00    +0.000 A 
ATOM     17  C   UNL     1      12.212  13.058  19.486  0.00  0.00    +0.000 A 
ATOM     18  N   UNL     1      11.139  12.628  20.154  0.00  0.00    +0.000 NA
ENDBRANCH  13  14
ENDBRANCH  12  13
ENDBRANCH  11  12
ENDBRANCH   9  11
ENDBRANCH   1   8
BRANCH   6  19
ATOM     19  O   UNL     1       7.424   5.630  19.813  0.00  0.00    +0.000 OA
ATOM     20  H   UNL     1       8.280   5.391  19.408  0.00  0.00    +0.000 HD
ENDBRANCH   6  19
BRANCH   4  21
ATOM     21  C   UNL     1       4.012   2.848  18.172  0.00  0.00    +0.000 C 
BRANCH  21  22
ATOM     22  C   UNL     1       3.015   2.955  19.309  0.00  0.00    +0.000 A 
ATOM     23  C   UNL     1       3.279   2.381  20.568  0.00  0.00    +0.000 A 
ATOM     24 CL   UNL     1       4.781   1.610  20.940  0.00  0.00    +0.000 Cl
ATOM     25  C   UNL     1       2.331   2.426  21.599  0.00  0.00    +0.000 A 
ATOM     26  C   UNL     1       1.106   3.057  21.403  0.00  0.00    +0.000 A 
ATOM     27  C   UNL     1       0.834   3.652  20.176  0.00  0.00    +0.000 A 
ATOM     28  C   UNL     1       1.774   3.600  19.137  0.00  0.00    +0.000 A 
ATOM     29 CL   UNL     1       1.333   4.376  17.656  0.00  0.00    +0.000 Cl
ENDBRANCH  21  22
ENDBRANCH   4  21
TORSDOF 8
ENDMDL
MODEL 2
REMARK VINA RESULT:      -7.7      0.991      2.269
REMARK  Name = 
REMARK  8 active torsions:
REMARK  status: ('A' for Active; 'I' for Inactive)
REMARK    1  A    between atoms: C_2  and  C_12
REMARK    2  A    between atoms: N_3  and  C_4
REMARK    3  A    between atoms: C_4  and  C_5
REMARK    4  A    between atoms: C_5  and  C_6
REMARK    5  A    between atoms: C_6  and  N_7
REMARK    6  A    between atoms: C_15  and  C_16
REMARK    7  A    between atoms: C_16  and  C_17
REMARK    8  A    between atoms: C_26  and  O_27
REMARK                            x       y       z     vdW  Elec       q    Type
REMARK                         _______ _______ _______ _____ _____    ______ ____
ROOT
ATOM      1  C   UNL     1       6.658   6.253  17.602  0.00  0.00    +0.000 A 
ATOM      2  C   UNL     1       5.602   5.998  16.756  0.00  0.00    +0.000 A 
ATOM      3  N   UNL     1       4.741   4.963  16.918  0.00  0.00    +0.000 NA
ATOM      4  C   UNL     1       4.946   4.151  17.973  0.00  0.00    +0.000 A 
ATOM      5  N   UNL     1       5.935   4.330  18.876  0.00  0.00    +0.000 NA
ATOM      6  C   UNL     1       6.749   5.376  18.655  0.00  0.00    +0.000 A 
ENDROOT
BRANCH   1   8
ATOM      7  O   UNL     1       8.359   7.309  16.382  0.00  0.00    +0.000 OA
ATOM      8  C   UNL     1       7.575   7.379  17.322  0.00  0.00    +0.000 C 
ATOM      9  N   UNL     1       7.504   8.472  18.160  0.00  0.00    +0.000 N 
ATOM     10  H   UNL     1       6.799   8.477  18.894  0.00  0.00    +0.000 HD
BRANCH   9  11
ATOM     11  C   UNL     1       8.312   9.657  17.967  0.00  0.00    +0.000 C 
BRANCH  11  12
ATOM     12  C   UNL     1       9.213   9.917  19.166  0.00  0.00    +0.000 C 
BRANCH  12  13
ATOM     13  C   UNL     1       9.910  11.267  19.040  0.00  0.00    +0.000 C 
BRANCH  13  14
ATOM     14  N   UNL     1       9.744  12.073  20.236  0.00  0.00    +0.000 N 
ATOM     15  C   UNL     1       9.054  11.726  21.363  0.00  0.00    +0.000 A 
ATOM     16  C   UNL     1       9.167  12.796  22.220  0.00  0.00    +0.000 A 
ATOM     17  C   UNL     1       9.942  13.737  21.515  0.00  0.00    +0.000 A 
ATOM     18  N   UNL     1      10.297  13.299  20.304  0.00  0.00    +0.000 NA
ENDBRANCH  13  14
ENDBRANCH  12  13
ENDBRANCH  11  12
ENDBRANCH   9  11
ENDBRANCH   1   8
BRANCH   6  19
ATOM     19  O   UNL     1       7.717   5.476  19.606  0.00  0.00    +0.000 OA
ATOM     20  H   UNL     1       8.413   5.942  19.104  0.00  0.00    +0.000 HD
ENDBRANCH   6  19
BRANCH   4  21
ATOM     21  C   UNL     1       4.061   2.932  18.114  0.00  0.00    +0.000 C 
BRANCH  21  22
ATOM     22  C   UNL     1       3.068   3.018  19.255  0.00  0.00    +0.000 A 
ATOM     23  C   UNL     1       1.828   3.668  19.098  0.00  0.00    +0.000 A 
ATOM     24 CL   UNL     1       1.308   4.319  17.583  0.00  0.00    +0.000 Cl
ATOM     25  C   UNL     1       0.937   3.800  20.171  0.00  0.00    +0.000 A 
ATOM     26  C   UNL     1       1.255   3.275  21.420  0.00  0.00    +0.000 A 
ATOM     27  C   UNL     1       2.462   2.608  21.592  0.00  0.00    +0.000 A 
ATOM     28  C   UNL     1       3.362   2.482  20.525  0.00  0.00    +0.000 A 
ATOM     29 CL   UNL     1       4.832   1.629  20.850  0.00  0.00    +0.000 Cl
ENDBRANCH  21  22
ENDBRANCH   4  21
TORSDOF 8
ENDMDL
MODEL 3
REMARK VINA RESULT:      -7.6      1.032      1.367
REMARK  Name = 
REMARK  8 active torsions:
REMARK  status: ('A' for Active; 'I' for Inactive)
REMARK    1  A    between atoms: C_2  and  C_12
REMARK    2  A    between atoms: N_3  and  C_4
REMARK    3  A    between atoms: C_4  and  C_5
REMARK    4  A    between atoms: C_5  and  C_6
REMARK    5  A    between atoms: C_6  and  N_7
REMARK    6  A    between atoms: C_15  and  C_16
REMARK    7  A    between atoms: C_16  and  C_17
REMARK    8  A    between atoms: C_26  and  O_27
REMARK                            x       y       z     vdW  Elec       q    Type
REMARK                         _______ _______ _______ _____ _____    ______ ____
ROOT
ATOM      1  C   UNL     1       6.638   6.258  17.603  0.00  0.00    +0.000 A 
ATOM      2  C   UNL     1       5.606   5.982  16.734  0.00  0.00    +0.000 A 
ATOM      3  N   UNL     1       4.740   4.952  16.896  0.00  0.00    +0.000 NA
ATOM      4  C   UNL     1       4.915   4.166  17.977  0.00  0.00    +0.000 A 
ATOM      5  N   UNL     1       5.878   4.367  18.903  0.00  0.00    +0.000 NA
ATOM      6  C   UNL     1       6.699   5.407  18.680  0.00  0.00    +0.000 A 
ENDROOT
BRANCH   1   8
ATOM      7  O   UNL     1       8.356   7.295  16.390  0.00  0.00    +0.000 OA
ATOM      8  C   UNL     1       7.563   7.377  17.322  0.00  0.00    +0.000 C 
ATOM      9  N   UNL     1       7.490   8.478  18.149  0.00  0.00    +0.000 N 
ATOM     10  H   UNL     1       6.778   8.493  18.877  0.00  0.00    +0.000 HD
BRANCH   9  11
ATOM     11  C   UNL     1       8.305   9.657  17.953  0.00  0.00    +0.000 C 
BRANCH  11  12
ATOM     12  C   UNL     1       9.197   9.923  19.158  0.00  0.00    +0.000 C 
BRANCH  12  13
ATOM     13  C   UNL     1      10.094  11.131  18.915  0.00  0.00    +0.000 C 
BRANCH  13  14
ATOM     14  N   UNL     1       9.779  12.227  19.813  0.00  0.00    +0.000 N 
ATOM     15  C   UNL     1      10.309  12.442  21.053  0.00  0.00    +0.000 A 
ATOM     16  C   UNL     1       9.712  13.588  21.526  0.00  0.00    +0.000 A 
ATOM     17  C   UNL     1       8.838  13.985  20.497  0.00  0.00    +0.000 A 
ATOM     18  N   UNL     1       8.876  13.158  19.449  0.00  0.00    +0.000 NA
ENDBRANCH  13  14
ENDBRANCH  12  13
ENDBRANCH  11  12
ENDBRANCH   9  11
ENDBRANCH   1   8
BRANCH   6  19
ATOM     19  O   UNL     1       7.640   5.530  19.655  0.00  0.00    +0.000 OA
ATOM     20  H   UNL     1       8.235   4.791  19.423  0.00  0.00    +0.000 HD
ENDBRANCH   6  19
BRANCH   4  21
ATOM     21  C   UNL     1       4.025   2.951  18.122  0.00  0.00    +0.000 C 
BRANCH  21  22
ATOM     22  C   UNL     1       3.047   3.035  19.276  0.00  0.00    +0.000 A 
ATOM     23  C   UNL     1       3.336   2.451  20.524  0.00  0.00    +0.000 A 
ATOM     24 CL   UNL     1       4.852   1.692  20.864  0.00  0.00    +0.000 Cl
ATOM     25  C   UNL     1       2.405   2.477  21.571  0.00  0.00    +0.000 A 
ATOM     26  C   UNL     1       1.171   3.097  21.401  0.00  0.00    +0.000 A 
ATOM     27  C   UNL     1       0.873   3.702  20.185  0.00  0.00    +0.000 A 
ATOM     28  C   UNL     1       1.796   3.670  19.131  0.00  0.00    +0.000 A 
ATOM     29 CL   UNL     1       1.323   4.457  17.666  0.00  0.00    +0.000 Cl
ENDBRANCH  21  22
ENDBRANCH   4  21
TORSDOF 8
ENDMDL
MODEL 4
REMARK VINA RESULT:      -7.5      1.564      1.751
REMARK  Name = 
REMARK  8 active torsions:
REMARK  status: ('A' for Active; 'I' for Inactive)
REMARK    1  A    between atoms: C_2  and  C_12
REMARK    2  A    between atoms: N_3  and  C_4
REMARK    3  A    between atoms: C_4  and  C_5
REMARK    4  A    between atoms: C_5  and  C_6
REMARK    5  A    between atoms: C_6  and  N_7
REMARK    6  A    between atoms: C_15  and  C_16
REMARK    7  A    between atoms: C_16  and  C_17
REMARK    8  A    between atoms: C_26  and  O_27
REMARK                            x       y       z     vdW  Elec       q    Type
REMARK                         _______ _______ _______ _____ _____    ______ ____
ROOT
ATOM      1  C   UNL     1       6.951   6.589  17.982  0.00  0.00    +0.000 A 
ATOM      2  C   UNL     1       5.849   6.481  17.165  0.00  0.00    +0.000 A 
ATOM      3  N   UNL     1       4.970   5.450  17.219  0.00  0.00    +0.000 NA
ATOM      4  C   UNL     1       5.206   4.488  18.132  0.00  0.00    +0.000 A 
ATOM      5  N   UNL     1       6.242   4.514  18.999  0.00  0.00    +0.000 NA
ATOM      6  C   UNL     1       7.071   5.565  18.890  0.00  0.00    +0.000 A 
ENDROOT
BRANCH   1   8
ATOM      7  O   UNL     1       8.183   8.116  16.699  0.00  0.00    +0.000 OA
ATOM      8  C   UNL     1       7.883   7.726  17.822  0.00  0.00    +0.000 C 
ATOM      9  N   UNL     1       8.384   8.297  18.972  0.00  0.00    +0.000 N 
ATOM     10  H   UNL     1       8.057   7.947  19.871  0.00  0.00    +0.000 HD
BRANCH   9  11
ATOM     11  C   UNL     1       9.265   9.445  18.955  0.00  0.00    +0.000 C 
BRANCH  11  12
ATOM     12  C   UNL     1       8.562  10.677  18.401  0.00  0.00    +0.000 C 
BRANCH  12  13
ATOM     13  C   UNL     1       9.574  11.736  17.977  0.00  0.00    +0.000 C 
BRANCH  13  14
ATOM     14  N   UNL     1       8.988  13.063  17.956  0.00  0.00    +0.000 N 
ATOM     15  C   UNL     1       7.711  13.384  17.592  0.00  0.00    +0.000 A 
ATOM     16  C   UNL     1       7.613  14.750  17.725  0.00  0.00    +0.000 A 
ATOM     17  C   UNL     1       8.884  15.157  18.172  0.00  0.00    +0.000 A 
ATOM     18  N   UNL     1       9.726  14.131  18.316  0.00  0.00    +0.000 NA
ENDBRANCH  13  14
ENDBRANCH  12  13
ENDBRANCH  11  12
ENDBRANCH   9  11
ENDBRANCH   1   8
BRANCH   6  19
ATOM     19  O   UNL     1       8.088   5.506  19.794  0.00  0.00    +0.000 OA
ATOM     20  H   UNL     1       8.135   4.542  19.946  0.00  0.00    +0.000 HD
ENDBRANCH   6  19
BRANCH   4  21
ATOM     21  C   UNL     1       4.296   3.278  18.140  0.00  0.00    +0.000 C 
BRANCH  21  22
ATOM     22  C   UNL     1       3.267   3.286  19.252  0.00  0.00    +0.000 A 
ATOM     23  C   UNL     1       3.491   2.599  20.461  0.00  0.00    +0.000 A 
ATOM     24 CL   UNL     1       4.980   1.791  20.806  0.00  0.00    +0.000 Cl
ATOM     25  C   UNL     1       2.513   2.556  21.464  0.00  0.00    +0.000 A 
ATOM     26  C   UNL     1       1.296   3.207  21.289  0.00  0.00    +0.000 A 
ATOM     27  C   UNL     1       1.062   3.912  20.114  0.00  0.00    +0.000 A 
ATOM     28  C   UNL     1       2.032   3.950  19.103  0.00  0.00    +0.000 A 
ATOM     29 CL   UNL     1       1.637   4.859  17.686  0.00  0.00    +0.000 Cl
ENDBRANCH  21  22
ENDBRANCH   4  21
TORSDOF 8
ENDMDL
MODEL 5
REMARK VINA RESULT:      -7.5      1.044      2.100
REMARK  Name = 
REMARK  8 active torsions:
REMARK  status: ('A' for Active; 'I' for Inactive)
REMARK    1  A    between atoms: C_2  and  C_12
REMARK    2  A    between atoms: N_3  and  C_4
REMARK    3  A    between atoms: C_4  and  C_5
REMARK    4  A    between atoms: C_5  and  C_6
REMARK    5  A    between atoms: C_6  and  N_7
REMARK    6  A    between atoms: C_15  and  C_16
REMARK    7  A    between atoms: C_16  and  C_17
REMARK    8  A    between atoms: C_26  and  O_27
REMARK                            x       y       z     vdW  Elec       q    Type
REMARK                         _______ _______ _______ _____ _____    ______ ____
ROOT
ATOM      1  C   UNL     1       6.636   6.102  17.581  0.00  0.00    +0.000 A 
ATOM      2  C   UNL     1       5.697   5.720  16.650  0.00  0.00    +0.000 A 
ATOM      3  N   UNL     1       4.828   4.696  16.834  0.00  0.00    +0.000 NA
ATOM      4  C   UNL     1       4.903   4.027  18.001  0.00  0.00    +0.000 A 
ATOM      5  N   UNL     1       5.769   4.340  18.990  0.00  0.00    +0.000 NA
ATOM      6  C   UNL     1       6.599   5.366  18.740  0.00  0.00    +0.000 A 
ENDROOT
BRANCH   1   8
ATOM      7  O   UNL     1       8.215   7.189  16.230  0.00  0.00    +0.000 OA
ATOM      8  C   UNL     1       7.575   7.204  17.276  0.00  0.00    +0.000 C 
ATOM      9  N   UNL     1       7.691   8.210  18.212  0.00  0.00    +0.000 N 
ATOM     10  H   UNL     1       7.096   8.176  19.038  0.00  0.00    +0.000 HD
BRANCH   9  11
ATOM     11  C   UNL     1       8.537   9.366  18.014  0.00  0.00    +0.000 C 
BRANCH  11  12
ATOM     12  C   UNL     1       8.936   9.998  19.341  0.00  0.00    +0.000 C 
BRANCH  12  13
ATOM     13  C   UNL     1      10.081  10.986  19.151  0.00  0.00    +0.000 C 
BRANCH  13  14
ATOM     14  N   UNL     1       9.599  12.348  19.012  0.00  0.00    +0.000 N 
ATOM     15  C   UNL     1       8.884  12.856  17.965  0.00  0.00    +0.000 A 
ATOM     16  C   UNL     1       8.658  14.179  18.269  0.00  0.00    +0.000 A 
ATOM     17  C   UNL     1       9.280  14.370  19.517  0.00  0.00    +0.000 A 
ATOM     18  N   UNL     1       9.854  13.255  19.975  0.00  0.00    +0.000 NA
ENDBRANCH  13  14
ENDBRANCH  12  13
ENDBRANCH  11  12
ENDBRANCH   9  11
ENDBRANCH   1   8
BRANCH   6  19
ATOM     19  O   UNL     1       7.439   5.606  19.784  0.00  0.00    +0.000 OA
ATOM     20  H   UNL     1       7.173   6.515  20.022  0.00  0.00    +0.000 HD
ENDBRANCH   6  19
BRANCH   4  21
ATOM     21  C   UNL     1       4.014   2.817  18.185  0.00  0.00    +0.000 C 
BRANCH  21  22
ATOM     22  C   UNL     1       3.025   2.944  19.326  0.00  0.00    +0.000 A 
ATOM     23  C   UNL     1       1.791   3.602  19.155  0.00  0.00    +0.000 A 
ATOM     24 CL   UNL     1       1.273   4.216  17.624  0.00  0.00    +0.000 Cl
ATOM     25  C   UNL     1       0.905   3.772  20.227  0.00  0.00    +0.000 A 
ATOM     26  C   UNL     1       1.222   3.279  21.489  0.00  0.00    +0.000 A 
ATOM     27  C   UNL     1       2.423   2.605  21.675  0.00  0.00    +0.000 A 
ATOM     28  C   UNL     1       3.319   2.441  20.610  0.00  0.00    +0.000 A 
ATOM     29 CL   UNL     1       4.781   1.583  20.954  0.00  0.00    +0.000 Cl
ENDBRANCH  21  22
ENDBRANCH   4  21
TORSDOF 8
ENDMDL
MODEL 6
REMARK VINA RESULT:      -7.5      5.899      9.358
REMARK  Name = 
REMARK  8 active torsions:
REMARK  status: ('A' for Active; 'I' for Inactive)
REMARK    1  A    between atoms: C_2  and  C_12
REMARK    2  A    between atoms: N_3  and  C_4
REMARK    3  A    between atoms: C_4  and  C_5
REMARK    4  A    between atoms: C_5  and  C_6
REMARK    5  A    between atoms: C_6  and  N_7
REMARK    6  A    between atoms: C_15  and  C_16
REMARK    7  A    between atoms: C_16  and  C_17
REMARK    8  A    between atoms: C_26  and  O_27
REMARK                            x       y       z     vdW  Elec       q    Type
REMARK                         _______ _______ _______ _____ _____    ______ ____
ROOT
ATOM      1  C   UNL     1       2.668   7.294  18.797  0.00  0.00    +0.000 A 
ATOM      2  C   UNL     1       2.615   8.119  17.696  0.00  0.00    +0.000 A 
ATOM      3  N   UNL     1       1.890   9.264  17.649  0.00  0.00    +0.000 NA
ATOM      4  C   UNL     1       1.189   9.595  18.751  0.00  0.00    +0.000 A 
ATOM      5  N   UNL     1       1.196   8.869  19.890  0.00  0.00    +0.000 NA
ATOM      6  C   UNL     1       1.937   7.749  19.868  0.00  0.00    +0.000 A 
ENDROOT
BRANCH   1   8
ATOM      7  O   UNL     1       4.078   5.670  19.731  0.00  0.00    +0.000 OA
ATOM      8  C   UNL     1       3.450   6.040  18.744  0.00  0.00    +0.000 C 
ATOM      9  N   UNL     1       3.440   5.340  17.556  0.00  0.00    +0.000 N 
ATOM     10  H   UNL     1       2.861   5.686  16.793  0.00  0.00    +0.000 HD
BRANCH   9  11
ATOM     11  C   UNL     1       4.124   4.076  17.389  0.00  0.00    +0.000 C 
BRANCH  11  12
ATOM     12  C   UNL     1       3.139   2.936  17.161  0.00  0.00    +0.000 C 
BRANCH  12  13
ATOM     13  C   UNL     1       3.142   1.970  18.340  0.00  0.00    +0.000 C 
BRANCH  13  14
ATOM     14  N   UNL     1       2.513   2.549  19.512  0.00  0.00    +0.000 N 
ATOM     15  C   UNL     1       1.277   3.128  19.572  0.00  0.00    +0.000 A 
ATOM     16  C   UNL     1       1.112   3.534  20.876  0.00  0.00    +0.000 A 
ATOM     17  C   UNL     1       2.305   3.157  21.520  0.00  0.00    +0.000 A 
ATOM     18  N   UNL     1       3.162   2.555  20.692  0.00  0.00    +0.000 NA
ENDBRANCH  13  14
ENDBRANCH  12  13
ENDBRANCH  11  12
ENDBRANCH   9  11
ENDBRANCH   1   8
BRANCH   6  19
ATOM     19  O   UNL     1       1.880   7.077  21.050  0.00  0.00    +0.000 OA
ATOM     20  H   UNL     1       1.242   7.633  21.539  0.00  0.00    +0.000 HD
ENDBRANCH   6  19
BRANCH   4  21
ATOM     21  C   UNL     1       0.293  10.812  18.684  0.00  0.00    +0.000 C 
BRANCH  21  22
ATOM     22  C   UNL     1       0.752  11.967  19.550  0.00  0.00    +0.000 A 
ATOM     23  C   UNL     1       1.898  12.718  19.221  0.00  0.00    +0.000 A 
ATOM     24 CL   UNL     1       2.796  12.449  17.769  0.00  0.00    +0.000 Cl
ATOM     25  C   UNL     1       2.356  13.746  20.056  0.00  0.00    +0.000 A 
ATOM     26  C   UNL     1       1.676  14.057  21.229  0.00  0.00    +0.000 A 
ATOM     27  C   UNL     1       0.529  13.346  21.562  0.00  0.00    +0.000 A 
ATOM     28  C   UNL     1       0.072  12.309  20.736  0.00  0.00    +0.000 A 
ATOM     29 CL   UNL     1      -1.367  11.494  21.244  0.00  0.00    +0.000 Cl
ENDBRANCH  21  22
ENDBRANCH   4  21
TORSDOF 8
ENDMDL
MODEL 7
REMARK VINA RESULT:      -7.4      1.050      2.441
REMARK  Name = 
REMARK  8 active torsions:
REMARK  status: ('A' for Active; 'I' for Inactive)
REMARK    1  A    between atoms: C_2  and  C_12
REMARK    2  A    between atoms: N_3  and  C_4
REMARK    3  A    between atoms: C_4  and  C_5
REMARK    4  A    between atoms: C_5  and  C_6
REMARK    5  A    between atoms: C_6  and  N_7
REMARK    6  A    between atoms: C_15  and  C_16
REMARK    7  A    between atoms: C_16  and  C_17
REMARK    8  A    between atoms: C_26  and  O_27
REMARK                            x       y       z     vdW  Elec       q    Type
REMARK                         _______ _______ _______ _____ _____    ______ ____
ROOT
ATOM      1  C   UNL     1       6.864   6.224  18.078  0.00  0.00    +0.000 A 
ATOM      2  C   UNL     1       6.769   5.260  19.057  0.00  0.00    +0.000 A 
ATOM      3  N   UNL     1       5.888   4.230  19.015  0.00  0.00    +0.000 NA
ATOM      4  C   UNL     1       5.070   4.163  17.947  0.00  0.00    +0.000 A 
ATOM      5  N   UNL     1       5.102   5.041  16.921  0.00  0.00    +0.000 NA
ATOM      6  C   UNL     1       6.000   6.035  17.027  0.00  0.00    +0.000 A 
ENDROOT
BRANCH   1   8
ATOM      7  O   UNL     1       8.705   7.275  19.081  0.00  0.00    +0.000 OA
ATOM      8  C   UNL     1       7.825   7.339  18.229  0.00  0.00    +0.000 C 
ATOM      9  N   UNL     1       7.671   8.421  17.389  0.00  0.00    +0.000 N 
ATOM     10  H   UNL     1       6.943   8.384  16.677  0.00  0.00    +0.000 HD
BRANCH   9  11
ATOM     11  C   UNL     1       8.571   9.553  17.401  0.00  0.00    +0.000 C 
BRANCH  11  12
ATOM     12  C   UNL     1       7.934  10.764  18.070  0.00  0.00    +0.000 C 
BRANCH  12  13
ATOM     13  C   UNL     1       8.784  12.011  17.861  0.00  0.00    +0.000 C 
BRANCH  13  14
ATOM     14  N   UNL     1      10.030  11.945  18.602  0.00  0.00    +0.000 N 
ATOM     15  C   UNL     1      10.173  11.994  19.960  0.00  0.00    +0.000 A 
ATOM     16  C   UNL     1      11.525  11.902  20.201  0.00  0.00    +0.000 A 
ATOM     17  C   UNL     1      12.108  11.803  18.924  0.00  0.00    +0.000 A 
ATOM     18  N   UNL     1      11.200  11.828  17.946  0.00  0.00    +0.000 NA
ENDBRANCH  13  14
ENDBRANCH  12  13
ENDBRANCH  11  12
ENDBRANCH   9  11
ENDBRANCH   1   8
BRANCH   6  19
ATOM     19  O   UNL     1       5.959   6.875  15.957  0.00  0.00    +0.000 OA
ATOM     20  H   UNL     1       5.026   7.163  15.993  0.00  0.00    +0.000 HD
ENDBRANCH   6  19
BRANCH   4  21
ATOM     21  C   UNL     1       4.011   3.082  17.930  0.00  0.00    +0.000 C 
BRANCH  21  22
ATOM     22  C   UNL     1       3.053   3.137  19.102  0.00  0.00    +0.000 A 
ATOM     23  C   UNL     1       1.827   3.825  19.014  0.00  0.00    +0.000 A 
ATOM     24 CL   UNL     1       1.283   4.564  17.548  0.00  0.00    +0.000 Cl
ATOM     25  C   UNL     1       0.970   3.927  20.118  0.00  0.00    +0.000 A 
ATOM     26  C   UNL     1       1.309   3.333  21.330  0.00  0.00    +0.000 A 
ATOM     27  C   UNL     1       2.503   2.628  21.433  0.00  0.00    +0.000 A 
ATOM     28  C   UNL     1       3.369   2.532  20.336  0.00  0.00    +0.000 A 
ATOM     29 CL   UNL     1       4.823   1.627  20.576  0.00  0.00    +0.000 Cl
ENDBRANCH  21  22
ENDBRANCH   4  21
TORSDOF 8
ENDMDL
MODEL 8
REMARK VINA RESULT:      -7.4      6.036      9.583
REMARK  Name = 
REMARK  8 active torsions:
REMARK  status: ('A' for Active; 'I' for Inactive)
REMARK    1  A    between atoms: C_2  and  C_12
REMARK    2  A    between atoms: N_3  and  C_4
REMARK    3  A    between atoms: C_4  and  C_5
REMARK    4  A    between atoms: C_5  and  C_6
REMARK    5  A    between atoms: C_6  and  N_7
REMARK    6  A    between atoms: C_15  and  C_16
REMARK    7  A    between atoms: C_16  and  C_17
REMARK    8  A    between atoms: C_26  and  O_27
REMARK                            x       y       z     vdW  Elec       q    Type
REMARK                         _______ _______ _______ _____ _____    ______ ____
ROOT
ATOM      1  C   UNL     1       2.415   7.565  18.867  0.00  0.00    +0.000 A 
ATOM      2  C   UNL     1       2.381   8.366  17.748  0.00  0.00    +0.000 A 
ATOM      3  N   UNL     1       1.734   9.556  17.694  0.00  0.00    +0.000 NA
ATOM      4  C   UNL     1       1.096   9.962  18.809  0.00  0.00    +0.000 A 
ATOM      5  N   UNL     1       1.093   9.264  19.966  0.00  0.00    +0.000 NA
ATOM      6  C   UNL     1       1.754   8.095  19.949  0.00  0.00    +0.000 A 
ENDROOT
BRANCH   1   8
ATOM      7  O   UNL     1       3.470   5.724  19.865  0.00  0.00    +0.000 OA
ATOM      8  C   UNL     1       3.108   6.259  18.822  0.00  0.00    +0.000 C 
ATOM      9  N   UNL     1       3.323   5.703  17.579  0.00  0.00    +0.000 N 
ATOM     10  H   UNL     1       2.956   6.184  16.761  0.00  0.00    +0.000 HD
BRANCH   9  11
ATOM     11  C   UNL     1       3.945   4.409  17.401  0.00  0.00    +0.000 C 
BRANCH  11  12
ATOM     12  C   UNL     1       2.908   3.322  17.150  0.00  0.00    +0.000 C 
BRANCH  12  13
ATOM     13  C   UNL     1       3.106   2.150  18.104  0.00  0.00    +0.000 C 
BRANCH  13  14
ATOM     14  N   UNL     1       2.610   2.448  19.434  0.00  0.00    +0.000 N 
ATOM     15  C   UNL     1       3.327   2.414  20.597  0.00  0.00    +0.000 A 
ATOM     16  C   UNL     1       2.445   2.763  21.595  0.00  0.00    +0.000 A 
ATOM     17  C   UNL     1       1.224   2.984  20.930  0.00  0.00    +0.000 A 
ATOM     18  N   UNL     1       1.321   2.794  19.611  0.00  0.00    +0.000 NA
ENDBRANCH  13  14
ENDBRANCH  12  13
ENDBRANCH  11  12
ENDBRANCH   9  11
ENDBRANCH   1   8
BRANCH   6  19
ATOM     19  O   UNL     1       1.692   7.458  21.150  0.00  0.00    +0.000 OA
ATOM     20  H   UNL     1       1.337   8.174  21.713  0.00  0.00    +0.000 HD
ENDBRANCH   6  19
BRANCH   4  21
ATOM     21  C   UNL     1       0.283  11.236  18.739  0.00  0.00    +0.000 C 
BRANCH  21  22
ATOM     22  C   UNL     1       0.755  12.323  19.683  0.00  0.00    +0.000 A 
ATOM     23  C   UNL     1       0.052  12.619  20.867  0.00  0.00    +0.000 A 
ATOM     24 CL   UNL     1      -1.326  11.709  21.380  0.00  0.00    +0.000 Cl
ATOM     25  C   UNL     1       0.454  13.666  21.708  0.00  0.00    +0.000 A 
ATOM     26  C   UNL     1       1.574  14.431  21.394  0.00  0.00    +0.000 A 
ATOM     27  C   UNL     1       2.297  14.141  20.243  0.00  0.00    +0.000 A 
ATOM     28  C   UNL     1       1.893  13.103  19.393  0.00  0.00    +0.000 A 
ATOM     29 CL   UNL     1       2.869  12.827  17.992  0.00  0.00    +0.000 Cl
ENDBRANCH  21  22
ENDBRANCH   4  21
TORSDOF 8
ENDMDL
MODEL 9
REMARK VINA RESULT:      -7.4      5.523      7.883
REMARK  Name = 
REMARK  8 active torsions:
REMARK  status: ('A' for Active; 'I' for Inactive)
REMARK    1  A    between atoms: C_2  and  C_12
REMARK    2  A    between atoms: N_3  and  C_4
REMARK    3  A    between atoms: C_4  and  C_5
REMARK    4  A    between atoms: C_5  and  C_6
REMARK    5  A    between atoms: C_6  and  N_7
REMARK    6  A    between atoms: C_15  and  C_16
REMARK    7  A    between atoms: C_16  and  C_17
REMARK    8  A    between atoms: C_26  and  O_27
REMARK                            x       y       z     vdW  Elec       q    Type
REMARK                         _______ _______ _______ _____ _____    ______ ____
ROOT
ATOM      1  C   UNL     1       2.744   7.331  18.740  0.00  0.00    +0.000 A 
ATOM      2  C   UNL     1       2.665   8.171  17.652  0.00  0.00    +0.000 A 
ATOM      3  N   UNL     1       1.927   9.308  17.632  0.00  0.00    +0.000 NA
ATOM      4  C   UNL     1       1.240   9.616  18.749  0.00  0.00    +0.000 A 
ATOM      5  N   UNL     1       1.272   8.875  19.877  0.00  0.00    +0.000 NA
ATOM      6  C   UNL     1       2.025   7.763  19.828  0.00  0.00    +0.000 A 
ENDROOT
BRANCH   1   8
ATOM      7  O   UNL     1       4.036   5.612  19.674  0.00  0.00    +0.000 OA
ATOM      8  C   UNL     1       3.539   6.087  18.658  0.00  0.00    +0.000 C 
ATOM      9  N   UNL     1       3.690   5.516  17.412  0.00  0.00    +0.000 N 
ATOM     10  H   UNL     1       3.212   5.944  16.621  0.00  0.00    +0.000 HD
BRANCH   9  11
ATOM     11  C   UNL     1       4.403   4.275  17.203  0.00  0.00    +0.000 C 
BRANCH  11  12
ATOM     12  C   UNL     1       5.155   4.281  15.879  0.00  0.00    +0.000 C 
BRANCH  12  13
ATOM     13  C   UNL     1       6.659   4.189  16.108  0.00  0.00    +0.000 C 
BRANCH  13  14
ATOM     14  N   UNL     1       7.103   5.097  17.149  0.00  0.00    +0.000 N 
ATOM     15  C   UNL     1       7.229   6.454  17.047  0.00  0.00    +0.000 A 
ATOM     16  C   UNL     1       7.682   6.884  18.273  0.00  0.00    +0.000 A 
ATOM     17  C   UNL     1       7.799   5.711  19.042  0.00  0.00    +0.000 A 
ATOM     18  N   UNL     1       7.445   4.618  18.360  0.00  0.00    +0.000 NA
ENDBRANCH  13  14
ENDBRANCH  12  13
ENDBRANCH  11  12
ENDBRANCH   9  11
ENDBRANCH   1   8
BRANCH   6  19
ATOM     19  O   UNL     1       1.993   7.075  21.002  0.00  0.00    +0.000 OA
ATOM     20  H   UNL     1       1.065   6.769  21.004  0.00  0.00    +0.000 HD
ENDBRANCH   6  19
BRANCH   4  21
ATOM     21  C   UNL     1       0.329  10.825  18.713  0.00  0.00    +0.000 C 
BRANCH  21  22
ATOM     22  C   UNL     1       0.772  11.960  19.613  0.00  0.00    +0.000 A 
ATOM     23  C   UNL     1       0.083  12.257  20.806  0.00  0.00    +0.000 A 
ATOM     24 CL   UNL     1      -1.238  11.299  21.378  0.00  0.00    +0.000 Cl
ATOM     25  C   UNL     1       0.456  13.346  21.607  0.00  0.00    +0.000 A 
ATOM     26  C   UNL     1       1.530  14.152  21.244  0.00  0.00    +0.000 A 
ATOM     27  C   UNL     1       2.239  13.862  20.084  0.00  0.00    +0.000 A 
ATOM     28  C   UNL     1       1.865  12.782  19.274  0.00  0.00    +0.000 A 
ATOM     29 CL   UNL     1       2.819  12.511  17.857  0.00  0.00    +0.000 Cl
ENDBRANCH  21  22
ENDBRANCH   4  21
TORSDOF 8
ENDMDL
