MODEL 1
REMARK VINA RESULT:      -8.0      0.000      0.000
REMARK  Name = 
REMARK  8 active torsions:
REMARK  status: ('A' for Active; 'I' for Inactive)
REMARK    1  A    between atoms: C_1  and  O_2
REMARK    2  A    between atoms: O_2  and  C_3
REMARK    3  A    between atoms: C_5  and  C_6
REMARK    4  A    between atoms: N_8  and  C_9
REMARK    5  A    between atoms: C_9  and  C_10
REMARK    6  A    between atoms: C_15  and  O_16
REMARK    7  A    between atoms: O_16  and  C_17
REMARK    8  A    between atoms: C_22  and  C_23
REMARK                            x       y       z     vdW  Elec       q    Type
REMARK                         _______ _______ _______ _____ _____    ______ ____
ROOT
ATOM      1  C   UNL     1       1.886   6.085  20.147  0.00  0.00    +0.000 C 
ATOM      2  O   UNL     1       1.141   5.193  20.520  0.00  0.00    +0.000 OA
ATOM      3  N   UNL     1       1.853   7.372  20.642  0.00  0.00    +0.000 N 
ATOM      4  H   UNL     1       2.268   8.107  20.083  0.00  0.00    +0.000 HD
ENDROOT
BRANCH   1   7
ATOM      5  C   UNL     1       4.068   4.220  17.688  0.00  0.00    +0.000 A 
ATOM      6  C   UNL     1       3.203   4.524  18.754  0.00  0.00    +0.000 A 
ATOM      7  C   UNL     1       2.870   5.846  19.057  0.00  0.00    +0.000 A 
ATOM      8  C   UNL     1       3.461   6.885  18.342  0.00  0.00    +0.000 A 
ATOM      9  C   UNL     1       4.365   6.595  17.316  0.00  0.00    +0.000 A 
ATOM     10  C   UNL     1       4.676   5.266  16.961  0.00  0.00    +0.000 A 
BRANCH  10  11
ATOM     11  C   UNL     1       5.589   5.035  15.843  0.00  0.00    +0.000 A 
ATOM     12  C   UNL     1       5.399   4.454  14.567  0.00  0.00    +0.000 A 
ATOM     13  N   UNL     1       6.516   4.436  13.829  0.00  0.00    +0.000 NA
ATOM     14  N   UNL     1       7.427   5.012  14.625  0.00  0.00    +0.000 N 
ATOM     15  C   UNL     1       6.934   5.366  15.845  0.00  0.00    +0.000 A 
ATOM     16  H   UNL     1       8.370   5.130  14.270  0.00  0.00    +0.000 HD
ENDBRANCH  10  11
BRANCH   5  18
ATOM     17  C   UNL     1       3.536   1.938  17.999  0.00  0.00    +0.000 C 
ATOM     18  O   UNL     1       4.340   2.919  17.337  0.00  0.00    +0.000 OA
ENDBRANCH   5  18
ENDBRANCH   1   7
BRANCH   3  19
ATOM     19  C   UNL     1       0.864   7.775  21.616  0.00  0.00    +0.000 C 
BRANCH  19  20
ATOM     20  C   UNL     1       0.404   9.185  21.364  0.00  0.00    +0.000 A 
ATOM     21  C   UNL     1       0.475   9.744  20.081  0.00  0.00    +0.000 A 
ATOM     22  C   UNL     1       0.038  11.050  19.865  0.00  0.00    +0.000 A 
ATOM     23  C   UNL     1      -0.474  11.794  20.926  0.00  0.00    +0.000 A 
ATOM     24  F   UNL     1      -0.894  13.046  20.681  0.00  0.00    +0.000 F 
ATOM     25  C   UNL     1      -0.559  11.268  22.218  0.00  0.00    +0.000 A 
ATOM     26  C   UNL     1      -0.107   9.961  22.418  0.00  0.00    +0.000 A 
ATOM     27  F   UNL     1      -0.166   9.390  23.632  0.00  0.00    +0.000 F 
BRANCH  25  28
ATOM     28  O   UNL     1      -1.091  12.106  23.161  0.00  0.00    +0.000 OA
ATOM     29  C   UNL     1      -2.487  12.006  23.410  0.00  0.00    +0.000 C 
ENDBRANCH  25  28
ENDBRANCH  19  20
ENDBRANCH   3  19
TORSDOF 6
ENDMDL
MODEL 2
REMARK VINA RESULT:      -7.9      3.124      3.767
REMARK  Name = 
REMARK  8 active torsions:
REMARK  status: ('A' for Active; 'I' for Inactive)
REMARK    1  A    between atoms: C_1  and  O_2
REMARK    2  A    between atoms: O_2  and  C_3
REMARK    3  A    between atoms: C_5  and  C_6
REMARK    4  A    between atoms: N_8  and  C_9
REMARK    5  A    between atoms: C_9  and  C_10
REMARK    6  A    between atoms: C_15  and  O_16
REMARK    7  A    between atoms: O_16  and  C_17
REMARK    8  A    between atoms: C_22  and  C_23
REMARK                            x       y       z     vdW  Elec       q    Type
REMARK                         _______ _______ _______ _____ _____    ______ ____
ROOT
ATOM      1  C   UNL     1       1.186   8.749  19.819  0.00  0.00    +0.000 C 
ATOM      2  O   UNL     1       0.857   8.548  20.978  0.00  0.00    +0.000 OA
ATOM      3  N   UNL     1       0.633   9.729  19.022  0.00  0.00    +0.000 N 
ATOM      4  H   UNL     1       0.725   9.633  18.018  0.00  0.00    +0.000 HD
ENDROOT
BRANCH   1   7
ATOM      5  C   UNL     1       3.453   5.791  19.194  0.00  0.00    +0.000 A 
ATOM      6  C   UNL     1       2.561   6.695  19.796  0.00  0.00    +0.000 A 
ATOM      7  C   UNL     1       2.196   7.881  19.156  0.00  0.00    +0.000 A 
ATOM      8  C   UNL     1       2.780   8.213  17.936  0.00  0.00    +0.000 A 
ATOM      9  C   UNL     1       3.710   7.345  17.354  0.00  0.00    +0.000 A 
ATOM     10  C   UNL     1       4.055   6.120  17.959  0.00  0.00    +0.000 A 
BRANCH  10  11
ATOM     11  C   UNL     1       4.995   5.238  17.270  0.00  0.00    +0.000 A 
ATOM     12  C   UNL     1       6.401   5.282  17.118  0.00  0.00    +0.000 A 
ATOM     13  N   UNL     1       6.882   4.259  16.400  0.00  0.00    +0.000 NA
ATOM     14  N   UNL     1       5.788   3.550  16.093  0.00  0.00    +0.000 N 
ATOM     15  C   UNL     1       4.634   4.101  16.565  0.00  0.00    +0.000 A 
ATOM     16  H   UNL     1       5.903   2.698  15.555  0.00  0.00    +0.000 HD
ENDBRANCH  10  11
BRANCH   5  18
ATOM     17  C   UNL     1       2.664   3.672  19.882  0.00  0.00    +0.000 C 
ATOM     18  O   UNL     1       3.758   4.588  19.784  0.00  0.00    +0.000 OA
ENDBRANCH   5  18
ENDBRANCH   1   7
BRANCH   3  19
ATOM     19  C   UNL     1      -0.446  10.563  19.500  0.00  0.00    +0.000 C 
BRANCH  19  20
ATOM     20  C   UNL     1      -1.561  10.632  18.491  0.00  0.00    +0.000 A 
ATOM     21  C   UNL     1      -1.482   9.922  17.286  0.00  0.00    +0.000 A 
ATOM     22  C   UNL     1      -2.527   9.992  16.366  0.00  0.00    +0.000 A 
ATOM     23  C   UNL     1      -3.650  10.766  16.651  0.00  0.00    +0.000 A 
ATOM     24  F   UNL     1      -4.642  10.804  15.746  0.00  0.00    +0.000 F 
ATOM     25  C   UNL     1      -3.761  11.488  17.842  0.00  0.00    +0.000 A 
ATOM     26  C   UNL     1      -2.700  11.413  18.748  0.00  0.00    +0.000 A 
ATOM     27  F   UNL     1      -2.743  12.075  19.916  0.00  0.00    +0.000 F 
BRANCH  25  28
ATOM     28  O   UNL     1      -4.923  12.196  17.995  0.00  0.00    +0.000 OA
ATOM     29  C   UNL     1      -5.851  11.728  18.965  0.00  0.00    +0.000 C 
ENDBRANCH  25  28
ENDBRANCH  19  20
ENDBRANCH   3  19
TORSDOF 6
ENDMDL
MODEL 3
REMARK VINA RESULT:      -7.8      4.923      9.583
REMARK  Name = 
REMARK  8 active torsions:
REMARK  status: ('A' for Active; 'I' for Inactive)
REMARK    1  A    between atoms: C_1  and  O_2
REMARK    2  A    between atoms: O_2  and  C_3
REMARK    3  A    between atoms: C_5  and  C_6
REMARK    4  A    between atoms: N_8  and  C_9
REMARK    5  A    between atoms: C_9  and  C_10
REMARK    6  A    between atoms: C_15  and  O_16
REMARK    7  A    between atoms: O_16  and  C_17
REMARK    8  A    between atoms: C_22  and  C_23
REMARK                            x       y       z     vdW  Elec       q    Type
REMARK                         _______ _______ _______ _____ _____    ______ ____
ROOT
ATOM      1  C   UNL     1       0.763  10.277  18.544  0.00  0.00    +0.000 C 
ATOM      2  O   UNL     1       1.493  11.006  19.196  0.00  0.00    +0.000 OA
ATOM      3  N   UNL     1       1.198   9.157  17.867  0.00  0.00    +0.000 N 
ATOM      4  H   UNL     1       0.617   8.798  17.120  0.00  0.00    +0.000 HD
ENDROOT
BRANCH   1   7
ATOM      5  C   UNL     1      -2.742  10.237  17.130  0.00  0.00    +0.000 A 
ATOM      6  C   UNL     1      -1.361  10.039  17.301  0.00  0.00    +0.000 A 
ATOM      7  C   UNL     1      -0.682  10.596  18.386  0.00  0.00    +0.000 A 
ATOM      8  C   UNL     1      -1.365  11.425  19.274  0.00  0.00    +0.000 A 
ATOM      9  C   UNL     1      -2.729  11.672  19.081  0.00  0.00    +0.000 A 
ATOM     10  C   UNL     1      -3.444  11.079  18.021  0.00  0.00    +0.000 A 
BRANCH  10  11
ATOM     11  C   UNL     1      -4.877  11.340  17.910  0.00  0.00    +0.000 A 
ATOM     12  C   UNL     1      -5.994  10.808  18.597  0.00  0.00    +0.000 A 
ATOM     13  N   UNL     1      -7.158  11.329  18.186  0.00  0.00    +0.000 NA
ATOM     14  N   UNL     1      -6.792  12.201  17.237  0.00  0.00    +0.000 N 
ATOM     15  C   UNL     1      -5.448  12.230  17.016  0.00  0.00    +0.000 A 
ATOM     16  H   UNL     1      -7.516  12.745  16.779  0.00  0.00    +0.000 HD
ENDBRANCH  10  11
BRANCH   5  18
ATOM     17  C   UNL     1      -3.118  10.116  14.799  0.00  0.00    +0.000 C 
ATOM     18  O   UNL     1      -3.430   9.629  16.107  0.00  0.00    +0.000 OA
ENDBRANCH   5  18
ENDBRANCH   1   7
BRANCH   3  19
ATOM     19  C   UNL     1       2.598   8.800  17.833  0.00  0.00    +0.000 C 
BRANCH  19  20
ATOM     20  C   UNL     1       2.820   7.432  18.419  0.00  0.00    +0.000 A 
ATOM     21  C   UNL     1       2.155   7.036  19.587  0.00  0.00    +0.000 A 
ATOM     22  C   UNL     1       2.367   5.762  20.111  0.00  0.00    +0.000 A 
ATOM     23  C   UNL     1       3.237   4.884  19.468  0.00  0.00    +0.000 A 
ATOM     24  F   UNL     1       3.412   3.662  19.996  0.00  0.00    +0.000 F 
ATOM     25  C   UNL     1       3.916   5.246  18.302  0.00  0.00    +0.000 A 
ATOM     26  C   UNL     1       3.699   6.530  17.796  0.00  0.00    +0.000 A 
ATOM     27  F   UNL     1       4.313   6.942  16.675  0.00  0.00    +0.000 F 
BRANCH  25  28
ATOM     28  O   UNL     1       4.731   4.282  17.771  0.00  0.00    +0.000 OA
ATOM     29  C   UNL     1       6.134   4.501  17.841  0.00  0.00    +0.000 C 
ENDBRANCH  25  28
ENDBRANCH  19  20
ENDBRANCH   3  19
TORSDOF 6
ENDMDL
MODEL 4
REMARK VINA RESULT:      -7.7      3.103      4.170
REMARK  Name = 
REMARK  8 active torsions:
REMARK  status: ('A' for Active; 'I' for Inactive)
REMARK    1  A    between atoms: C_1  and  O_2
REMARK    2  A    between atoms: O_2  and  C_3
REMARK    3  A    between atoms: C_5  and  C_6
REMARK    4  A    between atoms: N_8  and  C_9
REMARK    5  A    between atoms: C_9  and  C_10
REMARK    6  A    between atoms: C_15  and  O_16
REMARK    7  A    between atoms: O_16  and  C_17
REMARK    8  A    between atoms: C_22  and  C_23
REMARK                            x       y       z     vdW  Elec       q    Type
REMARK                         _______ _______ _______ _____ _____    ______ ____
ROOT
ATOM      1  C   UNL     1       1.362   8.838  20.067  0.00  0.00    +0.000 C 
ATOM      2  O   UNL     1       1.256   9.267  21.204  0.00  0.00    +0.000 OA
ATOM      3  N   UNL     1       1.027   9.555  18.938  0.00  0.00    +0.000 N 
ATOM      4  H   UNL     1       0.848   9.043  18.084  0.00  0.00    +0.000 HD
ENDROOT
BRANCH   1   7
ATOM      5  C   UNL     1       3.063   5.908  18.389  0.00  0.00    +0.000 A 
ATOM      6  C   UNL     1       2.535   7.184  18.651  0.00  0.00    +0.000 A 
ATOM      7  C   UNL     1       1.821   7.443  19.822  0.00  0.00    +0.000 A 
ATOM      8  C   UNL     1       1.561   6.404  20.713  0.00  0.00    +0.000 A 
ATOM      9  C   UNL     1       2.035   5.118  20.436  0.00  0.00    +0.000 A 
ATOM     10  C   UNL     1       2.800   4.846  19.283  0.00  0.00    +0.000 A 
BRANCH  10  11
ATOM     11  C   UNL     1       3.308   3.491  19.083  0.00  0.00    +0.000 A 
ATOM     12  C   UNL     1       2.833   2.404  18.311  0.00  0.00    +0.000 A 
ATOM     13  N   UNL     1       3.610   1.317  18.403  0.00  0.00    +0.000 NA
ATOM     14  N   UNL     1       4.591   1.704  19.230  0.00  0.00    +0.000 N 
ATOM     15  C   UNL     1       4.447   2.981  19.683  0.00  0.00    +0.000 A 
ATOM     16  H   UNL     1       5.329   1.041  19.443  0.00  0.00    +0.000 HD
ENDBRANCH  10  11
BRANCH   5  18
ATOM     17  C   UNL     1       5.100   6.323  17.266  0.00  0.00    +0.000 C 
ATOM     18  O   UNL     1       3.830   5.666  17.275  0.00  0.00    +0.000 OA
ENDBRANCH   5  18
ENDBRANCH   1   7
BRANCH   3  19
ATOM     19  C   UNL     1       0.451  10.877  19.036  0.00  0.00    +0.000 C 
BRANCH  19  20
ATOM     20  C   UNL     1      -0.991  10.870  18.604  0.00  0.00    +0.000 A 
ATOM     21  C   UNL     1      -1.447   9.958  17.644  0.00  0.00    +0.000 A 
ATOM     22  C   UNL     1      -2.788   9.961  17.261  0.00  0.00    +0.000 A 
ATOM     23  C   UNL     1      -3.671  10.869  17.841  0.00  0.00    +0.000 A 
ATOM     24  F   UNL     1      -4.957  10.839  17.455  0.00  0.00    +0.000 F 
ATOM     25  C   UNL     1      -3.250  11.793  18.800  0.00  0.00    +0.000 A 
ATOM     26  C   UNL     1      -1.901  11.782  19.164  0.00  0.00    +0.000 A 
ATOM     27  F   UNL     1      -1.429  12.637  20.086  0.00  0.00    +0.000 F 
BRANCH  25  28
ATOM     28  O   UNL     1      -4.226  12.618  19.291  0.00  0.00    +0.000 OA
ATOM     29  C   UNL     1      -4.629  12.423  20.641  0.00  0.00    +0.000 C 
ENDBRANCH  25  28
ENDBRANCH  19  20
ENDBRANCH   3  19
TORSDOF 6
ENDMDL
MODEL 5
REMARK VINA RESULT:      -7.7      0.958      1.193
REMARK  Name = 
REMARK  8 active torsions:
REMARK  status: ('A' for Active; 'I' for Inactive)
REMARK    1  A    between atoms: C_1  and  O_2
REMARK    2  A    between atoms: O_2  and  C_3
REMARK    3  A    between atoms: C_5  and  C_6
REMARK    4  A    between atoms: N_8  and  C_9
REMARK    5  A    between atoms: C_9  and  C_10
REMARK    6  A    between atoms: C_15  and  O_16
REMARK    7  A    between atoms: O_16  and  C_17
REMARK    8  A    between atoms: C_22  and  C_23
REMARK                            x       y       z     vdW  Elec       q    Type
REMARK                         _______ _______ _______ _____ _____    ______ ____
ROOT
ATOM      1  C   UNL     1       1.725   6.739  20.469  0.00  0.00    +0.000 C 
ATOM      2  O   UNL     1       0.972   5.868  20.875  0.00  0.00    +0.000 OA
ATOM      3  N   UNL     1       1.672   8.054  20.877  0.00  0.00    +0.000 N 
ATOM      4  H   UNL     1       2.102   8.754  20.285  0.00  0.00    +0.000 HD
ENDROOT
BRANCH   1   7
ATOM      5  C   UNL     1       4.356   4.838  18.532  0.00  0.00    +0.000 A 
ATOM      6  C   UNL     1       3.434   5.225  19.520  0.00  0.00    +0.000 A 
ATOM      7  C   UNL     1       2.743   6.435  19.427  0.00  0.00    +0.000 A 
ATOM      8  C   UNL     1       3.024   7.309  18.380  0.00  0.00    +0.000 A 
ATOM      9  C   UNL     1       3.980   6.958  17.421  0.00  0.00    +0.000 A 
ATOM     10  C   UNL     1       4.652   5.719  17.468  0.00  0.00    +0.000 A 
BRANCH  10  11
ATOM     11  C   UNL     1       5.600   5.395  16.405  0.00  0.00    +0.000 A 
ATOM     12  C   UNL     1       6.966   5.717  16.220  0.00  0.00    +0.000 A 
ATOM     13  N   UNL     1       7.474   5.211  15.089  0.00  0.00    +0.000 NA
ATOM     14  N   UNL     1       6.439   4.558  14.545  0.00  0.00    +0.000 N 
ATOM     15  C   UNL     1       5.292   4.656  15.275  0.00  0.00    +0.000 A 
ATOM     16  H   UNL     1       6.586   4.067  13.670  0.00  0.00    +0.000 HD
ENDBRANCH  10  11
BRANCH   5  18
ATOM     17  C   UNL     1       4.542   2.754  19.631  0.00  0.00    +0.000 C 
ATOM     18  O   UNL     1       4.982   3.616  18.578  0.00  0.00    +0.000 OA
ENDBRANCH   5  18
ENDBRANCH   1   7
BRANCH   3  19
ATOM     19  C   UNL     1       0.652   8.514  21.792  0.00  0.00    +0.000 C 
BRANCH  19  20
ATOM     20  C   UNL     1      -0.035   9.743  21.259  0.00  0.00    +0.000 A 
ATOM     21  C   UNL     1      -0.089   9.994  19.882  0.00  0.00    +0.000 A 
ATOM     22  C   UNL     1      -0.735  11.134  19.406  0.00  0.00    +0.000 A 
ATOM     23  C   UNL     1      -1.330  12.018  20.303  0.00  0.00    +0.000 A 
ATOM     24  F   UNL     1      -1.951  13.102  19.810  0.00  0.00    +0.000 F 
ATOM     25  C   UNL     1      -1.294  11.800  21.683  0.00  0.00    +0.000 A 
ATOM     26  C   UNL     1      -0.634  10.657  22.143  0.00  0.00    +0.000 A 
ATOM     27  F   UNL     1      -0.568  10.380  23.455  0.00  0.00    +0.000 F 
BRANCH  25  28
ATOM     28  O   UNL     1      -1.927  12.744  22.446  0.00  0.00    +0.000 OA
ATOM     29  C   UNL     1      -3.185  12.393  23.008  0.00  0.00    +0.000 C 
ENDBRANCH  25  28
ENDBRANCH  19  20
ENDBRANCH   3  19
TORSDOF 6
ENDMDL
MODEL 6
REMARK VINA RESULT:      -7.6      3.890      9.559
REMARK  Name = 
REMARK  8 active torsions:
REMARK  status: ('A' for Active; 'I' for Inactive)
REMARK    1  A    between atoms: C_1  and  O_2
REMARK    2  A    between atoms: O_2  and  C_3
REMARK    3  A    between atoms: C_5  and  C_6
REMARK    4  A    between atoms: N_8  and  C_9
REMARK    5  A    between atoms: C_9  and  C_10
REMARK    6  A    between atoms: C_15  and  O_16
REMARK    7  A    between atoms: O_16  and  C_17
REMARK    8  A    between atoms: C_22  and  C_23
REMARK                            x       y       z     vdW  Elec       q    Type
REMARK                         _______ _______ _______ _____ _____    ______ ____
ROOT
ATOM      1  C   UNL     1       1.538   9.158  18.535  0.00  0.00    +0.000 C 
ATOM      2  O   UNL     1       1.813   9.374  17.365  0.00  0.00    +0.000 OA
ATOM      3  N   UNL     1       1.985   8.062  19.241  0.00  0.00    +0.000 N 
ATOM      4  H   UNL     1       1.478   7.795  20.076  0.00  0.00    +0.000 HD
ENDROOT
BRANCH   1   7
ATOM      5  C   UNL     1      -0.157  10.879  21.442  0.00  0.00    +0.000 A 
ATOM      6  C   UNL     1       0.626  10.002  20.672  0.00  0.00    +0.000 A 
ATOM      7  C   UNL     1       0.622  10.066  19.278  0.00  0.00    +0.000 A 
ATOM      8  C   UNL     1      -0.227  10.962  18.633  0.00  0.00    +0.000 A 
ATOM      9  C   UNL     1      -1.052  11.802  19.389  0.00  0.00    +0.000 A 
ATOM     10  C   UNL     1      -1.026  11.788  20.798  0.00  0.00    +0.000 A 
BRANCH  10  11
ATOM     11  C   UNL     1      -1.876  12.730  21.524  0.00  0.00    +0.000 A 
ATOM     12  C   UNL     1      -3.124  12.576  22.173  0.00  0.00    +0.000 A 
ATOM     13  N   UNL     1      -3.567  13.711  22.730  0.00  0.00    +0.000 NA
ATOM     14  N   UNL     1      -2.603  14.596  22.446  0.00  0.00    +0.000 N 
ATOM     15  C   UNL     1      -1.584  14.071  21.709  0.00  0.00    +0.000 A 
ATOM     16  H   UNL     1      -2.707  15.546  22.787  0.00  0.00    +0.000 HD
ENDBRANCH  10  11
BRANCH   5  18
ATOM     17  C   UNL     1      -0.153   9.573  23.412  0.00  0.00    +0.000 C 
ATOM     18  O   UNL     1      -0.100  10.872  22.815  0.00  0.00    +0.000 OA
ENDBRANCH   5  18
ENDBRANCH   1   7
BRANCH   3  19
ATOM     19  C   UNL     1       2.780   7.036  18.606  0.00  0.00    +0.000 C 
BRANCH  19  20
ATOM     20  C   UNL     1       2.413   5.672  19.127  0.00  0.00    +0.000 A 
ATOM     21  C   UNL     1       1.837   5.520  20.395  0.00  0.00    +0.000 A 
ATOM     22  C   UNL     1       1.497   4.249  20.857  0.00  0.00    +0.000 A 
ATOM     23  C   UNL     1       1.728   3.135  20.054  0.00  0.00    +0.000 A 
ATOM     24  F   UNL     1       1.381   1.927  20.528  0.00  0.00    +0.000 F 
ATOM     25  C   UNL     1       2.301   3.250  18.785  0.00  0.00    +0.000 A 
ATOM     26  C   UNL     1       2.645   4.530  18.341  0.00  0.00    +0.000 A 
ATOM     27  F   UNL     1       3.192   4.715  17.129  0.00  0.00    +0.000 F 
BRANCH  25  28
ATOM     28  O   UNL     1       2.461   2.074  18.102  0.00  0.00    +0.000 OA
ATOM     29  C   UNL     1       3.705   1.400  18.244  0.00  0.00    +0.000 C 
ENDBRANCH  25  28
ENDBRANCH  19  20
ENDBRANCH   3  19
TORSDOF 6
ENDMDL
MODEL 7
REMARK VINA RESULT:      -7.6      3.317      4.343
REMARK  Name = 
REMARK  8 active torsions:
REMARK  status: ('A' for Active; 'I' for Inactive)
REMARK    1  A    between atoms: C_1  and  O_2
REMARK    2  A    between atoms: O_2  and  C_3
REMARK    3  A    between atoms: C_5  and  C_6
REMARK    4  A    between atoms: N_8  and  C_9
REMARK    5  A    between atoms: C_9  and  C_10
REMARK    6  A    between atoms: C_15  and  O_16
REMARK    7  A    between atoms: O_16  and  C_17
REMARK    8  A    between atoms: C_22  and  C_23
REMARK                            x       y       z     vdW  Elec       q    Type
REMARK                         _______ _______ _______ _____ _____    ______ ____
ROOT
ATOM      1  C   UNL     1       1.764   9.338  18.240  0.00  0.00    +0.000 C 
ATOM      2  O   UNL     1       2.271  10.127  17.458  0.00  0.00    +0.000 OA
ATOM      3  N   UNL     1       0.682   9.636  19.041  0.00  0.00    +0.000 N 
ATOM      4  H   UNL     1       0.524   9.062  19.860  0.00  0.00    +0.000 HD
ENDROOT
BRANCH   1   7
ATOM      5  C   UNL     1       2.376   5.923  19.739  0.00  0.00    +0.000 A 
ATOM      6  C   UNL     1       1.930   7.240  19.538  0.00  0.00    +0.000 A 
ATOM      7  C   UNL     1       2.342   7.979  18.427  0.00  0.00    +0.000 A 
ATOM      8  C   UNL     1       3.268   7.433  17.542  0.00  0.00    +0.000 A 
ATOM      9  C   UNL     1       3.761   6.143  17.763  0.00  0.00    +0.000 A 
ATOM     10  C   UNL     1       3.320   5.361  18.850  0.00  0.00    +0.000 A 
BRANCH  10  11
ATOM     11  C   UNL     1       3.837   4.002  18.991  0.00  0.00    +0.000 A 
ATOM     12  C   UNL     1       4.687   3.404  19.952  0.00  0.00    +0.000 A 
ATOM     13  N   UNL     1       4.917   2.107  19.711  0.00  0.00    +0.000 NA
ATOM     14  N   UNL     1       4.212   1.864  18.599  0.00  0.00    +0.000 N 
ATOM     15  C   UNL     1       3.569   2.964  18.114  0.00  0.00    +0.000 A 
ATOM     16  H   UNL     1       4.215   0.922  18.223  0.00  0.00    +0.000 HD
ENDBRANCH  10  11
BRANCH   5  18
ATOM     17  C   UNL     1       0.912   4.205  20.441  0.00  0.00    +0.000 C 
ATOM     18  O   UNL     1       1.916   5.164  20.788  0.00  0.00    +0.000 OA
ENDBRANCH   5  18
ENDBRANCH   1   7
BRANCH   3  19
ATOM     19  C   UNL     1       0.100  10.959  19.052  0.00  0.00    +0.000 C 
BRANCH  19  20
ATOM     20  C   UNL     1      -1.325  10.924  18.570  0.00  0.00    +0.000 A 
ATOM     21  C   UNL     1      -1.730  10.004  17.594  0.00  0.00    +0.000 A 
ATOM     22  C   UNL     1      -3.056   9.982  17.165  0.00  0.00    +0.000 A 
ATOM     23  C   UNL     1      -3.976  10.873  17.712  0.00  0.00    +0.000 A 
ATOM     24  F   UNL     1      -5.247  10.818  17.281  0.00  0.00    +0.000 F 
ATOM     25  C   UNL     1      -3.608  11.804  18.686  0.00  0.00    +0.000 A 
ATOM     26  C   UNL     1      -2.272  11.819  19.098  0.00  0.00    +0.000 A 
ATOM     27  F   UNL     1      -1.849  12.681  20.036  0.00  0.00    +0.000 F 
BRANCH  25  28
ATOM     28  O   UNL     1      -4.615  12.610  19.143  0.00  0.00    +0.000 OA
ATOM     29  C   UNL     1      -5.241  12.244  20.366  0.00  0.00    +0.000 C 
ENDBRANCH  25  28
ENDBRANCH  19  20
ENDBRANCH   3  19
TORSDOF 6
ENDMDL
MODEL 8
REMARK VINA RESULT:      -7.6      4.709      9.901
REMARK  Name = 
REMARK  8 active torsions:
REMARK  status: ('A' for Active; 'I' for Inactive)
REMARK    1  A    between atoms: C_1  and  O_2
REMARK    2  A    between atoms: O_2  and  C_3
REMARK    3  A    between atoms: C_5  and  C_6
REMARK    4  A    between atoms: N_8  and  C_9
REMARK    5  A    between atoms: C_9  and  C_10
REMARK    6  A    between atoms: C_15  and  O_16
REMARK    7  A    between atoms: O_16  and  C_17
REMARK    8  A    between atoms: C_22  and  C_23
REMARK                            x       y       z     vdW  Elec       q    Type
REMARK                         _______ _______ _______ _____ _____    ______ ____
ROOT
ATOM      1  C   UNL     1       1.059   9.989  18.181  0.00  0.00    +0.000 C 
ATOM      2  O   UNL     1       1.843  10.915  18.320  0.00  0.00    +0.000 OA
ATOM      3  N   UNL     1       1.442   8.673  18.030  0.00  0.00    +0.000 N 
ATOM      4  H   UNL     1       0.779   8.029  17.618  0.00  0.00    +0.000 HD
ENDROOT
BRANCH   1   7
ATOM      5  C   UNL     1      -2.323  11.500  18.931  0.00  0.00    +0.000 A 
ATOM      6  C   UNL     1      -0.961  11.157  18.996  0.00  0.00    +0.000 A 
ATOM      7  C   UNL     1      -0.406  10.240  18.102  0.00  0.00    +0.000 A 
ATOM      8  C   UNL     1      -1.225   9.595  17.179  0.00  0.00    +0.000 A 
ATOM      9  C   UNL     1      -2.593   9.888  17.143  0.00  0.00    +0.000 A 
ATOM     10  C   UNL     1      -3.165  10.848  18.003  0.00  0.00    +0.000 A 
BRANCH  10  11
ATOM     11  C   UNL     1      -4.590  11.142  17.875  0.00  0.00    +0.000 A 
ATOM     12  C   UNL     1      -5.725  10.662  18.571  0.00  0.00    +0.000 A 
ATOM     13  N   UNL     1      -6.872  11.200  18.136  0.00  0.00    +0.000 NA
ATOM     14  N   UNL     1      -6.478  12.032  17.163  0.00  0.00    +0.000 N 
ATOM     15  C   UNL     1      -5.132  12.019  16.949  0.00  0.00    +0.000 A 
ATOM     16  H   UNL     1      -7.185  12.580  16.684  0.00  0.00    +0.000 HD
ENDBRANCH  10  11
BRANCH   5  18
ATOM     17  C   UNL     1      -2.200  12.601  21.019  0.00  0.00    +0.000 C 
ATOM     18  O   UNL     1      -2.860  12.458  19.758  0.00  0.00    +0.000 OA
ENDBRANCH   5  18
ENDBRANCH   1   7
BRANCH   3  19
ATOM     19  C   UNL     1       2.837   8.301  17.963  0.00  0.00    +0.000 C 
BRANCH  19  20
ATOM     20  C   UNL     1       2.991   6.812  17.812  0.00  0.00    +0.000 A 
ATOM     21  C   UNL     1       1.924   5.949  18.091  0.00  0.00    +0.000 A 
ATOM     22  C   UNL     1       2.083   4.572  17.938  0.00  0.00    +0.000 A 
ATOM     23  C   UNL     1       3.303   4.060  17.504  0.00  0.00    +0.000 A 
ATOM     24  F   UNL     1       3.419   2.730  17.360  0.00  0.00    +0.000 F 
ATOM     25  C   UNL     1       4.389   4.891  17.217  0.00  0.00    +0.000 A 
ATOM     26  C   UNL     1       4.215   6.268  17.385  0.00  0.00    +0.000 A 
ATOM     27  F   UNL     1       5.213   7.126  17.121  0.00  0.00    +0.000 F 
BRANCH  25  28
ATOM     28  O   UNL     1       5.523   4.254  16.790  0.00  0.00    +0.000 OA
ATOM     29  C   UNL     1       5.788   4.259  15.393  0.00  0.00    +0.000 C 
ENDBRANCH  25  28
ENDBRANCH  19  20
ENDBRANCH   3  19
TORSDOF 6
ENDMDL
MODEL 9
REMARK VINA RESULT:      -7.5      4.690      9.857
REMARK  Name = 
REMARK  8 active torsions:
REMARK  status: ('A' for Active; 'I' for Inactive)
REMARK    1  A    between atoms: C_1  and  O_2
REMARK    2  A    between atoms: O_2  and  C_3
REMARK    3  A    between atoms: C_5  and  C_6
REMARK    4  A    between atoms: N_8  and  C_9
REMARK    5  A    between atoms: C_9  and  C_10
REMARK    6  A    between atoms: C_15  and  O_16
REMARK    7  A    between atoms: O_16  and  C_17
REMARK    8  A    between atoms: C_22  and  C_23
REMARK                            x       y       z     vdW  Elec       q    Type
REMARK                         _______ _______ _______ _____ _____    ______ ____
ROOT
ATOM      1  C   UNL     1       0.627  10.226  18.493  0.00  0.00    +0.000 C 
ATOM      2  O   UNL     1       1.336  10.978  19.143  0.00  0.00    +0.000 OA
ATOM      3  N   UNL     1       1.097   9.128  17.805  0.00  0.00    +0.000 N 
ATOM      4  H   UNL     1       0.524   8.752  17.060  0.00  0.00    +0.000 HD
ENDROOT
BRANCH   1   7
ATOM      5  C   UNL     1      -2.770  11.771  19.095  0.00  0.00    +0.000 A 
ATOM      6  C   UNL     1      -1.416  11.414  19.219  0.00  0.00    +0.000 A 
ATOM      7  C   UNL     1      -0.830  10.493  18.349  0.00  0.00    +0.000 A 
ATOM      8  C   UNL     1      -1.615   9.857  17.390  0.00  0.00    +0.000 A 
ATOM      9  C   UNL     1      -2.976  10.164  17.294  0.00  0.00    +0.000 A 
ATOM     10  C   UNL     1      -3.576  11.128  18.128  0.00  0.00    +0.000 A 
BRANCH  10  11
ATOM     11  C   UNL     1      -4.991  11.438  17.938  0.00  0.00    +0.000 A 
ATOM     12  C   UNL     1      -5.651  12.440  17.188  0.00  0.00    +0.000 A 
ATOM     13  N   UNL     1      -6.986  12.371  17.282  0.00  0.00    +0.000 NA
ATOM     14  N   UNL     1      -7.188  11.320  18.088  0.00  0.00    +0.000 N 
ATOM     15  C   UNL     1      -6.035  10.742  18.526  0.00  0.00    +0.000 A 
ATOM     16  H   UNL     1      -8.144  11.053  18.298  0.00  0.00    +0.000 HD
ENDBRANCH  10  11
BRANCH   5  18
ATOM     17  C   UNL     1      -2.396  13.536  20.621  0.00  0.00    +0.000 C 
ATOM     18  O   UNL     1      -3.333  12.733  19.898  0.00  0.00    +0.000 OA
ENDBRANCH   5  18
ENDBRANCH   1   7
BRANCH   3  19
ATOM     19  C   UNL     1       2.509   8.823  17.756  0.00  0.00    +0.000 C 
BRANCH  19  20
ATOM     20  C   UNL     1       2.794   7.485  18.383  0.00  0.00    +0.000 A 
ATOM     21  C   UNL     1       2.148   7.095  19.564  0.00  0.00    +0.000 A 
ATOM     22  C   UNL     1       2.419   5.849  20.127  0.00  0.00    +0.000 A 
ATOM     23  C   UNL     1       3.328   4.992  19.509  0.00  0.00    +0.000 A 
ATOM     24  F   UNL     1       3.559   3.796  20.075  0.00  0.00    +0.000 F 
ATOM     25  C   UNL     1       3.990   5.349  18.332  0.00  0.00    +0.000 A 
ATOM     26  C   UNL     1       3.714   6.606  17.787  0.00  0.00    +0.000 A 
ATOM     27  F   UNL     1       4.308   7.011  16.652  0.00  0.00    +0.000 F 
BRANCH  25  28
ATOM     28  O   UNL     1       4.848   4.408  17.829  0.00  0.00    +0.000 OA
ATOM     29  C   UNL     1       6.241   4.632  18.007  0.00  0.00    +0.000 C 
ENDBRANCH  25  28
ENDBRANCH  19  20
ENDBRANCH   3  19
TORSDOF 6
ENDMDL
