MODEL 1
REMARK VINA RESULT:      -6.9      0.000      0.000
REMARK  Name = 
REMARK  3 active torsions:
REMARK  status: ('A' for Active; 'I' for Inactive)
REMARK    1  A    between atoms: N_2  and  C_4
REMARK    2  A    between atoms: N_6  and  C_7
REMARK    3  A    between atoms: C_7  and  C_8
REMARK                            x       y       z     vdW  Elec       q    Type
REMARK                         _______ _______ _______ _____ _____    ______ ____
ROOT
ATOM      1  C   UNL     1       6.943   5.237  15.803  0.00  0.00    +0.000 A 
ATOM      2  C   UNL     1       6.188   4.590  16.762  0.00  0.00    +0.000 A 
ATOM      3  N   UNL     1       6.328   5.355  17.890  0.00  0.00    +0.000 N 
ATOM      4  C   UNL     1       7.122   6.424  17.574  0.00  0.00    +0.000 A 
ATOM      5  N   UNL     1       7.521   6.382  16.322  0.00  0.00    +0.000 NA
ENDROOT
BRANCH   1   7
ATOM      6  O   UNL     1       6.544   3.845  14.032  0.00  0.00    +0.000 OA
ATOM      7  N   UNL     1       7.182   4.828  14.434  0.00  0.00    +0.000 N 
ATOM      8  O   UNL     1       8.005   5.475  13.768  0.00  0.00    +0.000 OA
ENDBRANCH   1   7
BRANCH   3   9
ATOM      9  C   UNL     1       5.836   5.044  19.225  0.00  0.00    +0.000 C 
BRANCH   9  10
ATOM     10  C   UNL     1       4.480   4.386  19.182  0.00  0.00    +0.000 A 
ATOM     11  C   UNL     1       4.339   3.026  19.492  0.00  0.00    +0.000 A 
ATOM     12  C   UNL     1       3.092   2.401  19.394  0.00  0.00    +0.000 A 
ATOM     13  C   UNL     1       1.978   3.135  18.993  0.00  0.00    +0.000 A 
ATOM     14 CL   UNL     1       0.453   2.356  18.834  0.00  0.00    +0.000 Cl
ATOM     15  C   UNL     1       2.095   4.493  18.710  0.00  0.00    +0.000 A 
ATOM     16  C   UNL     1       3.343   5.117  18.803  0.00  0.00    +0.000 A 
ENDBRANCH   9  10
ENDBRANCH   3   9
TORSDOF 3
ENDMDL
MODEL 2
REMARK VINA RESULT:      -6.8      0.774      1.097
REMARK  Name = 
REMARK  3 active torsions:
REMARK  status: ('A' for Active; 'I' for Inactive)
REMARK    1  A    between atoms: N_2  and  C_4
REMARK    2  A    between atoms: N_6  and  C_7
REMARK    3  A    between atoms: C_7  and  C_8
REMARK                            x       y       z     vdW  Elec       q    Type
REMARK                         _______ _______ _______ _____ _____    ______ ____
ROOT
ATOM      1  C   UNL     1       6.785   4.808  15.735  0.00  0.00    +0.000 A 
ATOM      2  C   UNL     1       5.745   5.217  16.546  0.00  0.00    +0.000 A 
ATOM      3  N   UNL     1       6.232   5.102  17.822  0.00  0.00    +0.000 N 
ATOM      4  C   UNL     1       7.524   4.662  17.737  0.00  0.00    +0.000 A 
ATOM      5  N   UNL     1       7.892   4.464  16.491  0.00  0.00    +0.000 NA
ENDROOT
BRANCH   1   7
ATOM      6  O   UNL     1       7.590   5.414  13.682  0.00  0.00    +0.000 OA
ATOM      7  N   UNL     1       6.793   4.687  14.291  0.00  0.00    +0.000 N 
ATOM      8  O   UNL     1       6.007   3.882  13.770  0.00  0.00    +0.000 OA
ENDBRANCH   1   7
BRANCH   3   9
ATOM      9  C   UNL     1       5.489   5.287  19.061  0.00  0.00    +0.000 C 
BRANCH   9  10
ATOM     10  C   UNL     1       4.202   4.504  19.065  0.00  0.00    +0.000 A 
ATOM     11  C   UNL     1       4.214   3.114  19.256  0.00  0.00    +0.000 A 
ATOM     12  C   UNL     1       3.026   2.379  19.198  0.00  0.00    +0.000 A 
ATOM     13  C   UNL     1       1.818   3.030  18.957  0.00  0.00    +0.000 A 
ATOM     14 CL   UNL     1       0.364   2.118  18.847  0.00  0.00    +0.000 Cl
ATOM     15  C   UNL     1       1.785   4.412  18.793  0.00  0.00    +0.000 A 
ATOM     16  C   UNL     1       2.973   5.147  18.846  0.00  0.00    +0.000 A 
ENDBRANCH   9  10
ENDBRANCH   3   9
TORSDOF 3
ENDMDL
MODEL 3
REMARK VINA RESULT:      -6.7      2.244      2.963
REMARK  Name = 
REMARK  3 active torsions:
REMARK  status: ('A' for Active; 'I' for Inactive)
REMARK    1  A    between atoms: N_2  and  C_4
REMARK    2  A    between atoms: N_6  and  C_7
REMARK    3  A    between atoms: C_7  and  C_8
REMARK                            x       y       z     vdW  Elec       q    Type
REMARK                         _______ _______ _______ _____ _____    ______ ____
ROOT
ATOM      1  C   UNL     1       6.935   5.959  17.241  0.00  0.00    +0.000 A 
ATOM      2  C   UNL     1       5.588   5.702  17.403  0.00  0.00    +0.000 A 
ATOM      3  N   UNL     1       5.353   4.585  16.645  0.00  0.00    +0.000 N 
ATOM      4  C   UNL     1       6.541   4.202  16.085  0.00  0.00    +0.000 A 
ATOM      5  N   UNL     1       7.520   5.014  16.416  0.00  0.00    +0.000 NA
ENDROOT
BRANCH   1   7
ATOM      6  O   UNL     1       8.218   6.873  18.899  0.00  0.00    +0.000 OA
ATOM      7  N   UNL     1       7.703   7.059  17.788  0.00  0.00    +0.000 N 
ATOM      8  O   UNL     1       7.784   8.101  17.120  0.00  0.00    +0.000 OA
ENDBRANCH   1   7
BRANCH   3   9
ATOM      9  C   UNL     1       4.061   3.973  16.367  0.00  0.00    +0.000 C 
BRANCH   9  10
ATOM     10  C   UNL     1       3.323   3.623  17.633  0.00  0.00    +0.000 A 
ATOM     11  C   UNL     1       2.135   4.287  17.973  0.00  0.00    +0.000 A 
ATOM     12  C   UNL     1       1.483   4.006  19.177  0.00  0.00    +0.000 A 
ATOM     13  C   UNL     1       2.011   3.053  20.046  0.00  0.00    +0.000 A 
ATOM     14 CL   UNL     1       1.229   2.737  21.545  0.00  0.00    +0.000 Cl
ATOM     15  C   UNL     1       3.173   2.364  19.711  0.00  0.00    +0.000 A 
ATOM     16  C   UNL     1       3.828   2.648  18.509  0.00  0.00    +0.000 A 
ENDBRANCH   9  10
ENDBRANCH   3   9
TORSDOF 3
ENDMDL
MODEL 4
REMARK VINA RESULT:      -6.7      2.230      2.718
REMARK  Name = 
REMARK  3 active torsions:
REMARK  status: ('A' for Active; 'I' for Inactive)
REMARK    1  A    between atoms: N_2  and  C_4
REMARK    2  A    between atoms: N_6  and  C_7
REMARK    3  A    between atoms: C_7  and  C_8
REMARK                            x       y       z     vdW  Elec       q    Type
REMARK                         _______ _______ _______ _____ _____    ______ ____
ROOT
ATOM      1  C   UNL     1       6.950   6.041  17.246  0.00  0.00    +0.000 A 
ATOM      2  C   UNL     1       5.652   5.666  17.534  0.00  0.00    +0.000 A 
ATOM      3  N   UNL     1       5.419   4.576  16.738  0.00  0.00    +0.000 N 
ATOM      4  C   UNL     1       6.564   4.321  16.033  0.00  0.00    +0.000 A 
ATOM      5  N   UNL     1       7.509   5.192  16.307  0.00  0.00    +0.000 NA
ENDROOT
BRANCH   1   7
ATOM      6  O   UNL     1       8.299   6.980  18.836  0.00  0.00    +0.000 OA
ATOM      7  N   UNL     1       7.689   7.169  17.775  0.00  0.00    +0.000 N 
ATOM      8  O   UNL     1       7.654   8.236  17.142  0.00  0.00    +0.000 OA
ENDBRANCH   1   7
BRANCH   3   9
ATOM      9  C   UNL     1       4.155   3.875  16.562  0.00  0.00    +0.000 C 
BRANCH   9  10
ATOM     10  C   UNL     1       3.462   3.632  17.878  0.00  0.00    +0.000 A 
ATOM     11  C   UNL     1       4.046   2.804  18.848  0.00  0.00    +0.000 A 
ATOM     12  C   UNL     1       3.376   2.529  20.044  0.00  0.00    +0.000 A 
ATOM     13  C   UNL     1       2.121   3.086  20.280  0.00  0.00    +0.000 A 
ATOM     14 CL   UNL     1       1.281   2.714  21.734  0.00  0.00    +0.000 Cl
ATOM     15  C   UNL     1       1.539   3.932  19.340  0.00  0.00    +0.000 A 
ATOM     16  C   UNL     1       2.207   4.205  18.143  0.00  0.00    +0.000 A 
ENDBRANCH   9  10
ENDBRANCH   3   9
TORSDOF 3
ENDMDL
MODEL 5
REMARK VINA RESULT:      -6.7      1.266      1.891
REMARK  Name = 
REMARK  3 active torsions:
REMARK  status: ('A' for Active; 'I' for Inactive)
REMARK    1  A    between atoms: N_2  and  C_4
REMARK    2  A    between atoms: N_6  and  C_7
REMARK    3  A    between atoms: C_7  and  C_8
REMARK                            x       y       z     vdW  Elec       q    Type
REMARK                         _______ _______ _______ _____ _____    ______ ____
ROOT
ATOM      1  C   UNL     1       6.452   5.241  15.209  0.00  0.00    +0.000 A 
ATOM      2  C   UNL     1       6.742   4.740  16.463  0.00  0.00    +0.000 A 
ATOM      3  N   UNL     1       5.941   5.454  17.316  0.00  0.00    +0.000 N 
ATOM      4  C   UNL     1       5.197   6.321  16.564  0.00  0.00    +0.000 A 
ATOM      5  N   UNL     1       5.484   6.228  15.285  0.00  0.00    +0.000 NA
ENDROOT
BRANCH   1   7
ATOM      6  O   UNL     1       8.034   5.536  13.584  0.00  0.00    +0.000 OA
ATOM      7  N   UNL     1       7.052   4.872  13.943  0.00  0.00    +0.000 N 
ATOM      8  O   UNL     1       6.543   3.936  13.308  0.00  0.00    +0.000 OA
ENDBRANCH   1   7
BRANCH   3   9
ATOM      9  C   UNL     1       5.953   5.406  18.772  0.00  0.00    +0.000 C 
BRANCH   9  10
ATOM     10  C   UNL     1       4.713   4.748  19.320  0.00  0.00    +0.000 A 
ATOM     11  C   UNL     1       3.622   5.524  19.741  0.00  0.00    +0.000 A 
ATOM     12  C   UNL     1       2.497   4.919  20.307  0.00  0.00    +0.000 A 
ATOM     13  C   UNL     1       2.451   3.533  20.448  0.00  0.00    +0.000 A 
ATOM     14 CL   UNL     1       1.082   2.793  21.180  0.00  0.00    +0.000 Cl
ATOM     15  C   UNL     1       3.512   2.747  20.009  0.00  0.00    +0.000 A 
ATOM     16  C   UNL     1       4.641   3.352  19.448  0.00  0.00    +0.000 A 
ENDBRANCH   9  10
ENDBRANCH   3   9
TORSDOF 3
ENDMDL
MODEL 6
REMARK VINA RESULT:      -6.5      1.209      1.228
REMARK  Name = 
REMARK  3 active torsions:
REMARK  status: ('A' for Active; 'I' for Inactive)
REMARK    1  A    between atoms: N_2  and  C_4
REMARK    2  A    between atoms: N_6  and  C_7
REMARK    3  A    between atoms: C_7  and  C_8
REMARK                            x       y       z     vdW  Elec       q    Type
REMARK                         _______ _______ _______ _____ _____    ______ ____
ROOT
ATOM      1  C   UNL     1       6.474   5.240  15.177  0.00  0.00    +0.000 A 
ATOM      2  C   UNL     1       6.781   4.753  16.432  0.00  0.00    +0.000 A 
ATOM      3  N   UNL     1       5.978   5.463  17.286  0.00  0.00    +0.000 N 
ATOM      4  C   UNL     1       5.215   6.314  16.533  0.00  0.00    +0.000 A 
ATOM      5  N   UNL     1       5.493   6.214  15.253  0.00  0.00    +0.000 NA
ENDROOT
BRANCH   1   7
ATOM      6  O   UNL     1       6.556   3.909  13.318  0.00  0.00    +0.000 OA
ATOM      7  N   UNL     1       7.069   4.869  13.909  0.00  0.00    +0.000 N 
ATOM      8  O   UNL     1       8.044   5.524  13.510  0.00  0.00    +0.000 OA
ENDBRANCH   1   7
BRANCH   3   9
ATOM      9  C   UNL     1       6.002   5.427  18.742  0.00  0.00    +0.000 C 
BRANCH   9  10
ATOM     10  C   UNL     1       4.754   4.799  19.308  0.00  0.00    +0.000 A 
ATOM     11  C   UNL     1       4.632   3.404  19.391  0.00  0.00    +0.000 A 
ATOM     12  C   UNL     1       3.452   2.820  19.858  0.00  0.00    +0.000 A 
ATOM     13  C   UNL     1       2.387   3.628  20.252  0.00  0.00    +0.000 A 
ATOM     14 CL   UNL     1       0.920   2.907  20.789  0.00  0.00    +0.000 Cl
ATOM     15  C   UNL     1       2.501   5.015  20.203  0.00  0.00    +0.000 A 
ATOM     16  C   UNL     1       3.680   5.599  19.732  0.00  0.00    +0.000 A 
ENDBRANCH   9  10
ENDBRANCH   3   9
TORSDOF 3
ENDMDL
MODEL 7
REMARK VINA RESULT:      -6.5      1.623      1.940
REMARK  Name = 
REMARK  3 active torsions:
REMARK  status: ('A' for Active; 'I' for Inactive)
REMARK    1  A    between atoms: N_2  and  C_4
REMARK    2  A    between atoms: N_6  and  C_7
REMARK    3  A    between atoms: C_7  and  C_8
REMARK                            x       y       z     vdW  Elec       q    Type
REMARK                         _______ _______ _______ _____ _____    ______ ____
ROOT
ATOM      1  C   UNL     1       6.261   5.184  15.340  0.00  0.00    +0.000 A 
ATOM      2  C   UNL     1       5.303   6.155  15.554  0.00  0.00    +0.000 A 
ATOM      3  N   UNL     1       4.927   5.992  16.861  0.00  0.00    +0.000 N 
ATOM      4  C   UNL     1       5.670   4.968  17.385  0.00  0.00    +0.000 A 
ATOM      5  N   UNL     1       6.482   4.449  16.492  0.00  0.00    +0.000 NA
ENDROOT
BRANCH   1   7
ATOM      6  O   UNL     1       6.517   3.935  13.441  0.00  0.00    +0.000 OA
ATOM      7  N   UNL     1       6.960   4.879  14.108  0.00  0.00    +0.000 N 
ATOM      8  O   UNL     1       7.948   5.570  13.813  0.00  0.00    +0.000 OA
ENDBRANCH   1   7
BRANCH   3   9
ATOM      9  C   UNL     1       3.848   6.682  17.554  0.00  0.00    +0.000 C 
BRANCH   9  10
ATOM     10  C   UNL     1       3.054   5.746  18.428  0.00  0.00    +0.000 A 
ATOM     11  C   UNL     1       3.133   5.836  19.825  0.00  0.00    +0.000 A 
ATOM     12  C   UNL     1       2.445   4.929  20.636  0.00  0.00    +0.000 A 
ATOM     13  C   UNL     1       1.667   3.930  20.054  0.00  0.00    +0.000 A 
ATOM     14 CL   UNL     1       0.853   2.790  21.052  0.00  0.00    +0.000 Cl
ATOM     15  C   UNL     1       1.554   3.844  18.669  0.00  0.00    +0.000 A 
ATOM     16  C   UNL     1       2.246   4.749  17.858  0.00  0.00    +0.000 A 
ENDBRANCH   9  10
ENDBRANCH   3   9
TORSDOF 3
ENDMDL
MODEL 8
REMARK VINA RESULT:      -6.5      2.074      2.442
REMARK  Name = 
REMARK  3 active torsions:
REMARK  status: ('A' for Active; 'I' for Inactive)
REMARK    1  A    between atoms: N_2  and  C_4
REMARK    2  A    between atoms: N_6  and  C_7
REMARK    3  A    between atoms: C_7  and  C_8
REMARK                            x       y       z     vdW  Elec       q    Type
REMARK                         _______ _______ _______ _____ _____    ______ ____
ROOT
ATOM      1  C   UNL     1       6.791   4.672  14.886  0.00  0.00    +0.000 A 
ATOM      2  C   UNL     1       5.502   4.243  15.133  0.00  0.00    +0.000 A 
ATOM      3  N   UNL     1       5.427   4.133  16.497  0.00  0.00    +0.000 N 
ATOM      4  C   UNL     1       6.635   4.514  17.014  0.00  0.00    +0.000 A 
ATOM      5  N   UNL     1       7.489   4.839  16.070  0.00  0.00    +0.000 NA
ENDROOT
BRANCH   1   7
ATOM      6  O   UNL     1       6.987   4.246  12.648  0.00  0.00    +0.000 OA
ATOM      7  N   UNL     1       7.421   4.905  13.603  0.00  0.00    +0.000 N 
ATOM      8  O   UNL     1       8.346   5.730  13.549  0.00  0.00    +0.000 OA
ENDBRANCH   1   7
BRANCH   3   9
ATOM      9  C   UNL     1       4.318   3.592  17.271  0.00  0.00    +0.000 C 
BRANCH   9  10
ATOM     10  C   UNL     1       3.679   4.642  18.143  0.00  0.00    +0.000 A 
ATOM     11  C   UNL     1       3.174   4.308  19.408  0.00  0.00    +0.000 A 
ATOM     12  C   UNL     1       2.527   5.267  20.191  0.00  0.00    +0.000 A 
ATOM     13  C   UNL     1       2.386   6.570  19.717  0.00  0.00    +0.000 A 
ATOM     14 CL   UNL     1       1.554   7.740  20.665  0.00  0.00    +0.000 Cl
ATOM     15  C   UNL     1       2.906   6.926  18.476  0.00  0.00    +0.000 A 
ATOM     16  C   UNL     1       3.550   5.966  17.690  0.00  0.00    +0.000 A 
ENDBRANCH   9  10
ENDBRANCH   3   9
TORSDOF 3
ENDMDL
MODEL 9
REMARK VINA RESULT:      -6.5      2.154      2.688
REMARK  Name = 
REMARK  3 active torsions:
REMARK  status: ('A' for Active; 'I' for Inactive)
REMARK    1  A    between atoms: N_2  and  C_4
REMARK    2  A    between atoms: N_6  and  C_7
REMARK    3  A    between atoms: C_7  and  C_8
REMARK                            x       y       z     vdW  Elec       q    Type
REMARK                         _______ _______ _______ _____ _____    ______ ____
ROOT
ATOM      1  C   UNL     1       6.075   5.365  17.224  0.00  0.00    +0.000 A 
ATOM      2  C   UNL     1       4.806   4.822  17.246  0.00  0.00    +0.000 A 
ATOM      3  N   UNL     1       3.970   5.896  17.402  0.00  0.00    +0.000 N 
ATOM      4  C   UNL     1       4.743   7.024  17.444  0.00  0.00    +0.000 A 
ATOM      5  N   UNL     1       6.023   6.742  17.347  0.00  0.00    +0.000 NA
ENDROOT
BRANCH   1   7
ATOM      6  O   UNL     1       7.868   4.328  18.195  0.00  0.00    +0.000 OA
ATOM      7  N   UNL     1       7.341   4.666  17.127  0.00  0.00    +0.000 N 
ATOM      8  O   UNL     1       7.809   4.464  15.996  0.00  0.00    +0.000 OA
ENDBRANCH   1   7
BRANCH   3   9
ATOM      9  C   UNL     1       2.530   5.860  17.616  0.00  0.00    +0.000 C 
BRANCH   9  10
ATOM     10  C   UNL     1       2.159   4.979  18.782  0.00  0.00    +0.000 A 
ATOM     11  C   UNL     1       2.595   5.291  20.078  0.00  0.00    +0.000 A 
ATOM     12  C   UNL     1       2.303   4.443  21.149  0.00  0.00    +0.000 A 
ATOM     13  C   UNL     1       1.566   3.280  20.933  0.00  0.00    +0.000 A 
ATOM     14 CL   UNL     1       1.241   2.217  22.245  0.00  0.00    +0.000 Cl
ATOM     15  C   UNL     1       1.100   2.971  19.658  0.00  0.00    +0.000 A 
ATOM     16  C   UNL     1       1.396   3.817  18.585  0.00  0.00    +0.000 A 
ENDBRANCH   9  10
ENDBRANCH   3   9
TORSDOF 3
ENDMDL
