MODEL 1
REMARK VINA RESULT:      -5.5      0.000      0.000
REMARK  Name = 
REMARK  15 active torsions:
REMARK  status: ('A' for Active; 'I' for Inactive)
REMARK    1  A    between atoms: C_1  and  C_2
REMARK    2  A    between atoms: C_2  and  C_3
REMARK    3  A    between atoms: C_3  and  N_4
REMARK    4  A    between atoms: N_4  and  C_5
REMARK    5  A    between atoms: C_5  and  C_6
REMARK    6  A    between atoms: C_6  and  C_7
REMARK    7  A    between atoms: C_7  and  C_8
REMARK    8  A    between atoms: C_8  and  C_9
REMARK    9  A    between atoms: C_9  and  C_10
REMARK   10  A    between atoms: C_10  and  N_11
REMARK   11  A    between atoms: N_11  and  C_12
REMARK   12  A    between atoms: N_11  and  N_15
REMARK   13  A    between atoms: C_12  and  C_13
REMARK   14  A    between atoms: C_13  and  C_14
REMARK   15  A    between atoms: N_17  and  O_18
REMARK                            x       y       z     vdW  Elec       q    Type
REMARK                         _______ _______ _______ _____ _____    ______ ____
ROOT
ATOM      1  C   UNL     1       6.376   5.146  19.071  0.00  0.00    +0.000 C 
ENDROOT
BRANCH   1   2
ATOM      2  C   UNL     1       5.109   4.358  19.434  0.00  0.00    +0.000 C 
BRANCH   2   3
ATOM      3  C   UNL     1       4.482   3.666  18.223  0.00  0.00    +0.000 C 
BRANCH   3   4
ATOM      4  C   UNL     1       3.876   2.306  18.570  0.00  0.00    +0.000 C 
BRANCH   4   5
ATOM      5  C   UNL     1       2.535   2.135  17.850  0.00  0.00    +0.000 C 
BRANCH   5   6
ATOM      6  N   UNL     1       1.518   1.672  18.789  0.00  0.00    +0.000 NA
ATOM      7  H   UNL     1       0.966   0.930  18.359  0.00  0.00    +0.000 HD
BRANCH   6   8
ATOM      8  C   UNL     1       0.640   2.766  19.198  0.00  0.00    +0.000 C 
BRANCH   8  10
ATOM      9  C   UNL     1       1.513   4.741  20.495  0.00  0.00    +0.000 C 
ATOM     10  C   UNL     1       1.083   3.284  20.564  0.00  0.00    +0.000 C 
ENDBRANCH   8  10
ENDBRANCH   6   8
ENDBRANCH   5   6
ENDBRANCH   4   5
ENDBRANCH   3   4
ENDBRANCH   2   3
ENDBRANCH   1   2
BRANCH   1  11
ATOM     11  C   UNL     1       7.056   4.644  17.793  0.00  0.00    +0.000 C 
BRANCH  11  12
ATOM     12  N   UNL     1       6.765   5.477  16.632  0.00  0.00    +0.000 N 
BRANCH  12  13
ATOM     13  N   UNL     1       6.883   4.911  15.348  0.00  0.00    +0.000 N 
ATOM     14  O   UNL     1       7.669   5.492  14.528  0.00  0.00    +0.000 OA
ATOM     15  N   UNL     1       6.201   3.860  15.087  0.00  0.00    +0.000 NA
BRANCH  15  16
ATOM     16  O   UNL     1       6.457   3.439  13.764  0.00  0.00    +0.000 OA
ATOM     17  H   UNL     1       6.151   2.520  13.774  0.00  0.00    +0.000 HD
ENDBRANCH  15  16
ENDBRANCH  12  13
BRANCH  12  18
ATOM     18  C   UNL     1       6.159   6.790  16.809  0.00  0.00    +0.000 C 
BRANCH  18  19
ATOM     19  C   UNL     1       4.687   6.860  16.395  0.00  0.00    +0.000 C 
ATOM     20  C   UNL     1       3.750   7.281  17.520  0.00  0.00    +0.000 C 
ENDBRANCH  18  19
ENDBRANCH  12  18
ENDBRANCH  11  12
ENDBRANCH   1  11
TORSDOF 13
ENDMDL
MODEL 2
REMARK VINA RESULT:      -5.4      2.489      3.314
REMARK  Name = 
REMARK  15 active torsions:
REMARK  status: ('A' for Active; 'I' for Inactive)
REMARK    1  A    between atoms: C_1  and  C_2
REMARK    2  A    between atoms: C_2  and  C_3
REMARK    3  A    between atoms: C_3  and  N_4
REMARK    4  A    between atoms: N_4  and  C_5
REMARK    5  A    between atoms: C_5  and  C_6
REMARK    6  A    between atoms: C_6  and  C_7
REMARK    7  A    between atoms: C_7  and  C_8
REMARK    8  A    between atoms: C_8  and  C_9
REMARK    9  A    between atoms: C_9  and  C_10
REMARK   10  A    between atoms: C_10  and  N_11
REMARK   11  A    between atoms: N_11  and  C_12
REMARK   12  A    between atoms: N_11  and  N_15
REMARK   13  A    between atoms: C_12  and  C_13
REMARK   14  A    between atoms: C_13  and  C_14
REMARK   15  A    between atoms: N_17  and  O_18
REMARK                            x       y       z     vdW  Elec       q    Type
REMARK                         _______ _______ _______ _____ _____    ______ ____
ROOT
ATOM      1  C   UNL     1       4.572   6.317  18.205  0.00  0.00    +0.000 C 
ENDROOT
BRANCH   1   2
ATOM      2  C   UNL     1       3.124   6.464  17.715  0.00  0.00    +0.000 C 
BRANCH   2   3
ATOM      3  C   UNL     1       2.162   5.521  18.438  0.00  0.00    +0.000 C 
BRANCH   3   4
ATOM      4  C   UNL     1       1.727   4.341  17.569  0.00  0.00    +0.000 C 
BRANCH   4   5
ATOM      5  C   UNL     1       2.796   3.245  17.609  0.00  0.00    +0.000 C 
BRANCH   5   6
ATOM      6  N   UNL     1       2.190   1.969  17.975  0.00  0.00    +0.000 NA
ATOM      7  H   UNL     1       1.600   1.636  17.211  0.00  0.00    +0.000 HD
BRANCH   6   8
ATOM      8  C   UNL     1       1.392   2.093  19.193  0.00  0.00    +0.000 C 
BRANCH   8  10
ATOM      9  C   UNL     1       1.529   2.776  21.614  0.00  0.00    +0.000 C 
ATOM     10  C   UNL     1       2.316   2.387  20.373  0.00  0.00    +0.000 C 
ENDBRANCH   8  10
ENDBRANCH   6   8
ENDBRANCH   5   6
ENDBRANCH   4   5
ENDBRANCH   3   4
ENDBRANCH   2   3
ENDBRANCH   1   2
BRANCH   1  11
ATOM     11  C   UNL     1       5.612   6.606  17.117  0.00  0.00    +0.000 C 
BRANCH  11  12
ATOM     12  N   UNL     1       6.814   5.792  17.252  0.00  0.00    +0.000 N 
BRANCH  12  13
ATOM     13  N   UNL     1       7.621   5.964  18.392  0.00  0.00    +0.000 N 
ATOM     14  O   UNL     1       8.195   7.095  18.532  0.00  0.00    +0.000 OA
ATOM     15  N   UNL     1       7.727   4.985  19.210  0.00  0.00    +0.000 NA
BRANCH  15  16
ATOM     16  O   UNL     1       8.564   5.349  20.287  0.00  0.00    +0.000 OA
ATOM     17  H   UNL     1       8.047   5.069  21.058  0.00  0.00    +0.000 HD
ENDBRANCH  15  16
ENDBRANCH  12  13
BRANCH  12  18
ATOM     18  C   UNL     1       7.050   4.682  16.338  0.00  0.00    +0.000 C 
BRANCH  18  19
ATOM     19  C   UNL     1       5.840   4.314  15.476  0.00  0.00    +0.000 C 
ATOM     20  C   UNL     1       6.197   3.926  14.047  0.00  0.00    +0.000 C 
ENDBRANCH  18  19
ENDBRANCH  12  18
ENDBRANCH  11  12
ENDBRANCH   1  11
TORSDOF 13
ENDMDL
MODEL 3
REMARK VINA RESULT:      -5.4      2.502      3.360
REMARK  Name = 
REMARK  15 active torsions:
REMARK  status: ('A' for Active; 'I' for Inactive)
REMARK    1  A    between atoms: C_1  and  C_2
REMARK    2  A    between atoms: C_2  and  C_3
REMARK    3  A    between atoms: C_3  and  N_4
REMARK    4  A    between atoms: N_4  and  C_5
REMARK    5  A    between atoms: C_5  and  C_6
REMARK    6  A    between atoms: C_6  and  C_7
REMARK    7  A    between atoms: C_7  and  C_8
REMARK    8  A    between atoms: C_8  and  C_9
REMARK    9  A    between atoms: C_9  and  C_10
REMARK   10  A    between atoms: C_10  and  N_11
REMARK   11  A    between atoms: N_11  and  C_12
REMARK   12  A    between atoms: N_11  and  N_15
REMARK   13  A    between atoms: C_12  and  C_13
REMARK   14  A    between atoms: C_13  and  C_14
REMARK   15  A    between atoms: N_17  and  O_18
REMARK                            x       y       z     vdW  Elec       q    Type
REMARK                         _______ _______ _______ _____ _____    ______ ____
ROOT
ATOM      1  C   UNL     1       4.485   4.087  17.843  0.00  0.00    +0.000 C 
ENDROOT
BRANCH   1   2
ATOM      2  C   UNL     1       3.243   3.531  17.131  0.00  0.00    +0.000 C 
BRANCH   2   3
ATOM      3  C   UNL     1       2.722   2.247  17.776  0.00  0.00    +0.000 C 
BRANCH   3   4
ATOM      4  C   UNL     1       2.328   2.441  19.240  0.00  0.00    +0.000 C 
BRANCH   4   5
ATOM      5  C   UNL     1       0.882   2.940  19.327  0.00  0.00    +0.000 C 
BRANCH   5   6
ATOM      6  N   UNL     1       0.739   3.862  20.450  0.00  0.00    +0.000 NA
ATOM      7  H   UNL     1       0.056   4.583  20.216  0.00  0.00    +0.000 HD
BRANCH   6   8
ATOM      8  C   UNL     1       2.016   4.485  20.788  0.00  0.00    +0.000 C 
BRANCH   8  10
ATOM      9  C   UNL     1       1.522   6.955  20.754  0.00  0.00    +0.000 C 
ATOM     10  C   UNL     1       2.161   5.792  20.012  0.00  0.00    +0.000 C 
ENDBRANCH   8  10
ENDBRANCH   6   8
ENDBRANCH   5   6
ENDBRANCH   4   5
ENDBRANCH   3   4
ENDBRANCH   2   3
ENDBRANCH   1   2
BRANCH   1  11
ATOM     11  C   UNL     1       5.125   5.270  17.109  0.00  0.00    +0.000 C 
BRANCH  11  12
ATOM     12  N   UNL     1       6.537   5.055  16.812  0.00  0.00    +0.000 N 
BRANCH  12  13
ATOM     13  N   UNL     1       7.442   4.938  17.883  0.00  0.00    +0.000 N 
ATOM     14  O   UNL     1       8.389   4.092  17.753  0.00  0.00    +0.000 OA
ATOM     15  N   UNL     1       7.261   5.681  18.910  0.00  0.00    +0.000 NA
BRANCH  15  16
ATOM     16  O   UNL     1       8.267   5.429  19.867  0.00  0.00    +0.000 OA
ATOM     17  H   UNL     1       8.886   6.160  19.717  0.00  0.00    +0.000 HD
ENDBRANCH  15  16
ENDBRANCH  12  13
BRANCH  12  18
ATOM     18  C   UNL     1       6.958   4.752  15.450  0.00  0.00    +0.000 C 
BRANCH  18  19
ATOM     19  C   UNL     1       5.995   3.840  14.686  0.00  0.00    +0.000 C 
ATOM     20  C   UNL     1       6.249   3.796  13.185  0.00  0.00    +0.000 C 
ENDBRANCH  18  19
ENDBRANCH  12  18
ENDBRANCH  11  12
ENDBRANCH   1  11
TORSDOF 13
ENDMDL
MODEL 4
REMARK VINA RESULT:      -5.4      2.592      3.368
REMARK  Name = 
REMARK  15 active torsions:
REMARK  status: ('A' for Active; 'I' for Inactive)
REMARK    1  A    between atoms: C_1  and  C_2
REMARK    2  A    between atoms: C_2  and  C_3
REMARK    3  A    between atoms: C_3  and  N_4
REMARK    4  A    between atoms: N_4  and  C_5
REMARK    5  A    between atoms: C_5  and  C_6
REMARK    6  A    between atoms: C_6  and  C_7
REMARK    7  A    between atoms: C_7  and  C_8
REMARK    8  A    between atoms: C_8  and  C_9
REMARK    9  A    between atoms: C_9  and  C_10
REMARK   10  A    between atoms: C_10  and  N_11
REMARK   11  A    between atoms: N_11  and  C_12
REMARK   12  A    between atoms: N_11  and  N_15
REMARK   13  A    between atoms: C_12  and  C_13
REMARK   14  A    between atoms: C_13  and  C_14
REMARK   15  A    between atoms: N_17  and  O_18
REMARK                            x       y       z     vdW  Elec       q    Type
REMARK                         _______ _______ _______ _____ _____    ______ ____
ROOT
ATOM      1  C   UNL     1       3.952   5.829  17.938  0.00  0.00    +0.000 C 
ENDROOT
BRANCH   1   2
ATOM      2  C   UNL     1       3.433   4.759  16.967  0.00  0.00    +0.000 C 
BRANCH   2   3
ATOM      3  C   UNL     1       2.714   3.615  17.684  0.00  0.00    +0.000 C 
BRANCH   3   4
ATOM      4  C   UNL     1       3.572   2.354  17.789  0.00  0.00    +0.000 C 
BRANCH   4   5
ATOM      5  C   UNL     1       3.551   1.831  19.229  0.00  0.00    +0.000 C 
BRANCH   5   6
ATOM      6  N   UNL     1       3.591   2.948  20.168  0.00  0.00    +0.000 NA
ATOM      7  H   UNL     1       4.555   3.123  20.452  0.00  0.00    +0.000 HD
BRANCH   6   8
ATOM      8  C   UNL     1       2.772   2.675  21.347  0.00  0.00    +0.000 C 
BRANCH   8  10
ATOM      9  C   UNL     1       1.192   4.493  20.609  0.00  0.00    +0.000 C 
ATOM     10  C   UNL     1       1.320   3.044  21.048  0.00  0.00    +0.000 C 
ENDBRANCH   8  10
ENDBRANCH   6   8
ENDBRANCH   5   6
ENDBRANCH   4   5
ENDBRANCH   3   4
ENDBRANCH   2   3
ENDBRANCH   1   2
BRANCH   1  11
ATOM     11  C   UNL     1       5.183   6.577  17.414  0.00  0.00    +0.000 C 
BRANCH  11  12
ATOM     12  N   UNL     1       6.401   5.778  17.480  0.00  0.00    +0.000 N 
BRANCH  12  13
ATOM     13  N   UNL     1       6.827   5.301  18.733  0.00  0.00    +0.000 N 
ATOM     14  O   UNL     1       6.271   4.238  19.169  0.00  0.00    +0.000 OA
ATOM     15  N   UNL     1       7.737   5.956  19.352  0.00  0.00    +0.000 NA
BRANCH  15  16
ATOM     16  O   UNL     1       8.035   5.322  20.577  0.00  0.00    +0.000 OA
ATOM     17  H   UNL     1       7.275   5.562  21.128  0.00  0.00    +0.000 HD
ENDBRANCH  15  16
ENDBRANCH  12  13
BRANCH  12  18
ATOM     18  C   UNL     1       7.034   5.309  16.255  0.00  0.00    +0.000 C 
BRANCH  18  19
ATOM     19  C   UNL     1       6.431   4.019  15.694  0.00  0.00    +0.000 C 
ATOM     20  C   UNL     1       5.975   4.131  14.245  0.00  0.00    +0.000 C 
ENDBRANCH  18  19
ENDBRANCH  12  18
ENDBRANCH  11  12
ENDBRANCH   1  11
TORSDOF 13
ENDMDL
MODEL 5
REMARK VINA RESULT:      -5.4      2.314      2.995
REMARK  Name = 
REMARK  15 active torsions:
REMARK  status: ('A' for Active; 'I' for Inactive)
REMARK    1  A    between atoms: C_1  and  C_2
REMARK    2  A    between atoms: C_2  and  C_3
REMARK    3  A    between atoms: C_3  and  N_4
REMARK    4  A    between atoms: N_4  and  C_5
REMARK    5  A    between atoms: C_5  and  C_6
REMARK    6  A    between atoms: C_6  and  C_7
REMARK    7  A    between atoms: C_7  and  C_8
REMARK    8  A    between atoms: C_8  and  C_9
REMARK    9  A    between atoms: C_9  and  C_10
REMARK   10  A    between atoms: C_10  and  N_11
REMARK   11  A    between atoms: N_11  and  C_12
REMARK   12  A    between atoms: N_11  and  N_15
REMARK   13  A    between atoms: C_12  and  C_13
REMARK   14  A    between atoms: C_13  and  C_14
REMARK   15  A    between atoms: N_17  and  O_18
REMARK                            x       y       z     vdW  Elec       q    Type
REMARK                         _______ _______ _______ _____ _____    ______ ____
ROOT
ATOM      1  C   UNL     1       4.708   5.540  18.856  0.00  0.00    +0.000 C 
ENDROOT
BRANCH   1   2
ATOM      2  C   UNL     1       3.800   5.783  17.642  0.00  0.00    +0.000 C 
BRANCH   2   3
ATOM      3  C   UNL     1       2.514   4.958  17.696  0.00  0.00    +0.000 C 
BRANCH   3   4
ATOM      4  C   UNL     1       2.709   3.528  17.194  0.00  0.00    +0.000 C 
BRANCH   4   5
ATOM      5  C   UNL     1       2.808   2.568  18.383  0.00  0.00    +0.000 C 
BRANCH   5   6
ATOM      6  N   UNL     1       1.550   1.846  18.550  0.00  0.00    +0.000 NA
ATOM      7  H   UNL     1       1.103   1.722  17.641  0.00  0.00    +0.000 HD
BRANCH   6   8
ATOM      8  C   UNL     1       0.647   2.561  19.450  0.00  0.00    +0.000 C 
BRANCH   8  10
ATOM      9  C   UNL     1       1.505   2.498  21.818  0.00  0.00    +0.000 C 
ATOM     10  C   UNL     1       1.466   3.284  20.516  0.00  0.00    +0.000 C 
ENDBRANCH   8  10
ENDBRANCH   6   8
ENDBRANCH   5   6
ENDBRANCH   4   5
ENDBRANCH   3   4
ENDBRANCH   2   3
ENDBRANCH   1   2
BRANCH   1  11
ATOM     11  C   UNL     1       5.923   4.663  18.538  0.00  0.00    +0.000 C 
BRANCH  11  12
ATOM     12  N   UNL     1       6.818   5.268  17.558  0.00  0.00    +0.000 N 
BRANCH  12  13
ATOM     13  N   UNL     1       7.446   6.486  17.881  0.00  0.00    +0.000 N 
ATOM     14  O   UNL     1       8.135   6.517  18.955  0.00  0.00    +0.000 OA
ATOM     15  N   UNL     1       7.289   7.476  17.084  0.00  0.00    +0.000 NA
BRANCH  15  16
ATOM     16  O   UNL     1       7.997   8.597  17.568  0.00  0.00    +0.000 OA
ATOM     17  H   UNL     1       7.657   9.315  17.013  0.00  0.00    +0.000 HD
ENDBRANCH  15  16
ENDBRANCH  12  13
BRANCH  12  18
ATOM     18  C   UNL     1       7.215   4.521  16.372  0.00  0.00    +0.000 C 
BRANCH  18  19
ATOM     19  C   UNL     1       6.066   3.774  15.691  0.00  0.00    +0.000 C 
ATOM     20  C   UNL     1       5.526   4.474  14.451  0.00  0.00    +0.000 C 
ENDBRANCH  18  19
ENDBRANCH  12  18
ENDBRANCH  11  12
ENDBRANCH   1  11
TORSDOF 13
ENDMDL
MODEL 6
REMARK VINA RESULT:      -5.4      2.411      3.338
REMARK  Name = 
REMARK  15 active torsions:
REMARK  status: ('A' for Active; 'I' for Inactive)
REMARK    1  A    between atoms: C_1  and  C_2
REMARK    2  A    between atoms: C_2  and  C_3
REMARK    3  A    between atoms: C_3  and  N_4
REMARK    4  A    between atoms: N_4  and  C_5
REMARK    5  A    between atoms: C_5  and  C_6
REMARK    6  A    between atoms: C_6  and  C_7
REMARK    7  A    between atoms: C_7  and  C_8
REMARK    8  A    between atoms: C_8  and  C_9
REMARK    9  A    between atoms: C_9  and  C_10
REMARK   10  A    between atoms: C_10  and  N_11
REMARK   11  A    between atoms: N_11  and  C_12
REMARK   12  A    between atoms: N_11  and  N_15
REMARK   13  A    between atoms: C_12  and  C_13
REMARK   14  A    between atoms: C_13  and  C_14
REMARK   15  A    between atoms: N_17  and  O_18
REMARK                            x       y       z     vdW  Elec       q    Type
REMARK                         _______ _______ _______ _____ _____    ______ ____
ROOT
ATOM      1  C   UNL     1       3.901   5.730  18.273  0.00  0.00    +0.000 C 
ENDROOT
BRANCH   1   2
ATOM      2  C   UNL     1       2.389   5.794  18.014  0.00  0.00    +0.000 C 
BRANCH   2   3
ATOM      3  C   UNL     1       1.789   4.422  17.700  0.00  0.00    +0.000 C 
BRANCH   3   4
ATOM      4  C   UNL     1       2.848   3.391  17.310  0.00  0.00    +0.000 C 
BRANCH   4   5
ATOM      5  C   UNL     1       2.676   2.124  18.153  0.00  0.00    +0.000 C 
BRANCH   5   6
ATOM      6  N   UNL     1       3.905   1.840  18.887  0.00  0.00    +0.000 NA
ATOM      7  H   UNL     1       3.953   0.844  19.104  0.00  0.00    +0.000 HD
BRANCH   6   8
ATOM      8  C   UNL     1       3.972   2.616  20.124  0.00  0.00    +0.000 C 
BRANCH   8  10
ATOM      9  C   UNL     1       2.187   3.873  21.381  0.00  0.00    +0.000 C 
ATOM     10  C   UNL     1       2.634   2.519  20.853  0.00  0.00    +0.000 C 
ENDBRANCH   8  10
ENDBRANCH   6   8
ENDBRANCH   5   6
ENDBRANCH   4   5
ENDBRANCH   3   4
ENDBRANCH   2   3
ENDBRANCH   1   2
BRANCH   1  11
ATOM     11  C   UNL     1       4.738   6.282  17.114  0.00  0.00    +0.000 C 
BRANCH  11  12
ATOM     12  N   UNL     1       6.132   5.857  17.169  0.00  0.00    +0.000 N 
BRANCH  12  13
ATOM     13  N   UNL     1       7.082   6.733  17.727  0.00  0.00    +0.000 N 
ATOM     14  O   UNL     1       7.732   6.314  18.742  0.00  0.00    +0.000 OA
ATOM     15  N   UNL     1       7.233   7.883  17.187  0.00  0.00    +0.000 NA
BRANCH  15  16
ATOM     16  O   UNL     1       8.229   8.609  17.875  0.00  0.00    +0.000 OA
ATOM     17  H   UNL     1       7.952   9.528  17.736  0.00  0.00    +0.000 HD
ENDBRANCH  15  16
ENDBRANCH  12  13
BRANCH  12  18
ATOM     18  C   UNL     1       6.489   4.480  16.856  0.00  0.00    +0.000 C 
BRANCH  18  19
ATOM     19  C   UNL     1       6.023   4.014  15.474  0.00  0.00    +0.000 C 
ATOM     20  C   UNL     1       6.733   4.707  14.318  0.00  0.00    +0.000 C 
ENDBRANCH  18  19
ENDBRANCH  12  18
ENDBRANCH  11  12
ENDBRANCH   1  11
TORSDOF 13
ENDMDL
MODEL 7
REMARK VINA RESULT:      -5.4      1.481      2.564
REMARK  Name = 
REMARK  15 active torsions:
REMARK  status: ('A' for Active; 'I' for Inactive)
REMARK    1  A    between atoms: C_1  and  C_2
REMARK    2  A    between atoms: C_2  and  C_3
REMARK    3  A    between atoms: C_3  and  N_4
REMARK    4  A    between atoms: N_4  and  C_5
REMARK    5  A    between atoms: C_5  and  C_6
REMARK    6  A    between atoms: C_6  and  C_7
REMARK    7  A    between atoms: C_7  and  C_8
REMARK    8  A    between atoms: C_8  and  C_9
REMARK    9  A    between atoms: C_9  and  C_10
REMARK   10  A    between atoms: C_10  and  N_11
REMARK   11  A    between atoms: N_11  and  C_12
REMARK   12  A    between atoms: N_11  and  N_15
REMARK   13  A    between atoms: C_12  and  C_13
REMARK   14  A    between atoms: C_13  and  C_14
REMARK   15  A    between atoms: N_17  and  O_18
REMARK                            x       y       z     vdW  Elec       q    Type
REMARK                         _______ _______ _______ _____ _____    ______ ____
ROOT
ATOM      1  C   UNL     1       4.338   4.132  16.978  0.00  0.00    +0.000 C 
ENDROOT
BRANCH   1   2
ATOM      2  C   UNL     1       4.110   3.171  18.153  0.00  0.00    +0.000 C 
BRANCH   2   3
ATOM      3  C   UNL     1       3.020   2.139  17.864  0.00  0.00    +0.000 C 
BRANCH   3   4
ATOM      4  C   UNL     1       2.067   1.941  19.042  0.00  0.00    +0.000 C 
BRANCH   4   5
ATOM      5  C   UNL     1       1.006   3.046  19.044  0.00  0.00    +0.000 C 
BRANCH   5   6
ATOM      6  N   UNL     1       0.697   3.441  20.415  0.00  0.00    +0.000 NA
ATOM      7  H   UNL     1      -0.227   3.872  20.449  0.00  0.00    +0.000 HD
BRANCH   6   8
ATOM      8  C   UNL     1       1.695   4.374  20.934  0.00  0.00    +0.000 C 
BRANCH   8  10
ATOM      9  C   UNL     1       3.184   6.069  19.813  0.00  0.00    +0.000 C 
ATOM     10  C   UNL     1       1.754   5.603  20.029  0.00  0.00    +0.000 C 
ENDBRANCH   8  10
ENDBRANCH   6   8
ENDBRANCH   5   6
ENDBRANCH   4   5
ENDBRANCH   3   4
ENDBRANCH   2   3
ENDBRANCH   1   2
BRANCH   1  11
ATOM     11  C   UNL     1       5.376   3.623  15.972  0.00  0.00    +0.000 C 
BRANCH  11  12
ATOM     12  N   UNL     1       6.438   4.590  15.717  0.00  0.00    +0.000 N 
BRANCH  12  13
ATOM     13  N   UNL     1       6.905   4.746  14.398  0.00  0.00    +0.000 N 
ATOM     14  O   UNL     1       6.340   4.043  13.495  0.00  0.00    +0.000 OA
ATOM     15  N   UNL     1       7.857   5.575  14.190  0.00  0.00    +0.000 NA
BRANCH  15  16
ATOM     16  O   UNL     1       8.179   5.600  12.815  0.00  0.00    +0.000 OA
ATOM     17  H   UNL     1       7.311   5.503  12.395  0.00  0.00    +0.000 HD
ENDBRANCH  15  16
ENDBRANCH  12  13
BRANCH  12  18
ATOM     18  C   UNL     1       6.847   5.518  16.762  0.00  0.00    +0.000 C 
BRANCH  18  19
ATOM     19  C   UNL     1       7.631   4.867  17.904  0.00  0.00    +0.000 C 
ATOM     20  C   UNL     1       7.714   5.724  19.161  0.00  0.00    +0.000 C 
ENDBRANCH  18  19
ENDBRANCH  12  18
ENDBRANCH  11  12
ENDBRANCH   1  11
TORSDOF 13
ENDMDL
MODEL 8
REMARK VINA RESULT:      -5.3      1.734      2.291
REMARK  Name = 
REMARK  15 active torsions:
REMARK  status: ('A' for Active; 'I' for Inactive)
REMARK    1  A    between atoms: C_1  and  C_2
REMARK    2  A    between atoms: C_2  and  C_3
REMARK    3  A    between atoms: C_3  and  N_4
REMARK    4  A    between atoms: N_4  and  C_5
REMARK    5  A    between atoms: C_5  and  C_6
REMARK    6  A    between atoms: C_6  and  C_7
REMARK    7  A    between atoms: C_7  and  C_8
REMARK    8  A    between atoms: C_8  and  C_9
REMARK    9  A    between atoms: C_9  and  C_10
REMARK   10  A    between atoms: C_10  and  N_11
REMARK   11  A    between atoms: N_11  and  C_12
REMARK   12  A    between atoms: N_11  and  N_15
REMARK   13  A    between atoms: C_12  and  C_13
REMARK   14  A    between atoms: C_13  and  C_14
REMARK   15  A    between atoms: N_17  and  O_18
REMARK                            x       y       z     vdW  Elec       q    Type
REMARK                         _______ _______ _______ _____ _____    ______ ____
ROOT
ATOM      1  C   UNL     1       5.901   4.307  18.461  0.00  0.00    +0.000 C 
ENDROOT
BRANCH   1   2
ATOM      2  C   UNL     1       4.459   3.936  18.836  0.00  0.00    +0.000 C 
BRANCH   2   3
ATOM      3  C   UNL     1       3.442   4.413  17.799  0.00  0.00    +0.000 C 
BRANCH   3   4
ATOM      4  C   UNL     1       2.572   3.278  17.261  0.00  0.00    +0.000 C 
BRANCH   4   5
ATOM      5  C   UNL     1       2.709   2.046  18.161  0.00  0.00    +0.000 C 
BRANCH   5   6
ATOM      6  N   UNL     1       1.438   1.766  18.822  0.00  0.00    +0.000 NA
ATOM      7  H   UNL     1       0.768   1.409  18.140  0.00  0.00    +0.000 HD
BRANCH   6   8
ATOM      8  C   UNL     1       0.899   2.964  19.461  0.00  0.00    +0.000 C 
BRANCH   8  10
ATOM      9  C   UNL     1       2.245   3.493  21.524  0.00  0.00    +0.000 C 
ATOM     10  C   UNL     1       0.999   2.815  20.977  0.00  0.00    +0.000 C 
ENDBRANCH   8  10
ENDBRANCH   6   8
ENDBRANCH   5   6
ENDBRANCH   4   5
ENDBRANCH   3   4
ENDBRANCH   2   3
ENDBRANCH   1   2
BRANCH   1  11
ATOM     11  C   UNL     1       6.281   5.738  18.857  0.00  0.00    +0.000 C 
BRANCH  11  12
ATOM     12  N   UNL     1       7.098   6.406  17.850  0.00  0.00    +0.000 N 
BRANCH  12  13
ATOM     13  N   UNL     1       6.750   6.262  16.494  0.00  0.00    +0.000 N 
ATOM     14  O   UNL     1       5.631   6.753  16.127  0.00  0.00    +0.000 OA
ATOM     15  N   UNL     1       7.569   5.653  15.722  0.00  0.00    +0.000 NA
BRANCH  15  16
ATOM     16  O   UNL     1       7.053   5.616  14.409  0.00  0.00    +0.000 OA
ATOM     17  H   UNL     1       7.784   5.980  13.887  0.00  0.00    +0.000 HD
ENDBRANCH  15  16
ENDBRANCH  12  13
BRANCH  12  18
ATOM     18  C   UNL     1       8.112   7.370  18.255  0.00  0.00    +0.000 C 
BRANCH  18  19
ATOM     19  C   UNL     1       7.904   8.774  17.682  0.00  0.00    +0.000 C 
ATOM     20  C   UNL     1       8.767   9.843  18.341  0.00  0.00    +0.000 C 
ENDBRANCH  18  19
ENDBRANCH  12  18
ENDBRANCH  11  12
ENDBRANCH   1  11
TORSDOF 13
ENDMDL
MODEL 9
REMARK VINA RESULT:      -5.3      2.492      3.282
REMARK  Name = 
REMARK  15 active torsions:
REMARK  status: ('A' for Active; 'I' for Inactive)
REMARK    1  A    between atoms: C_1  and  C_2
REMARK    2  A    between atoms: C_2  and  C_3
REMARK    3  A    between atoms: C_3  and  N_4
REMARK    4  A    between atoms: N_4  and  C_5
REMARK    5  A    between atoms: C_5  and  C_6
REMARK    6  A    between atoms: C_6  and  C_7
REMARK    7  A    between atoms: C_7  and  C_8
REMARK    8  A    between atoms: C_8  and  C_9
REMARK    9  A    between atoms: C_9  and  C_10
REMARK   10  A    between atoms: C_10  and  N_11
REMARK   11  A    between atoms: N_11  and  C_12
REMARK   12  A    between atoms: N_11  and  N_15
REMARK   13  A    between atoms: C_12  and  C_13
REMARK   14  A    between atoms: C_13  and  C_14
REMARK   15  A    between atoms: N_17  and  O_18
REMARK                            x       y       z     vdW  Elec       q    Type
REMARK                         _______ _______ _______ _____ _____    ______ ____
ROOT
ATOM      1  C   UNL     1       4.597   6.371  18.229  0.00  0.00    +0.000 C 
ENDROOT
BRANCH   1   2
ATOM      2  C   UNL     1       3.200   6.316  17.593  0.00  0.00    +0.000 C 
BRANCH   2   3
ATOM      3  C   UNL     1       2.571   4.925  17.679  0.00  0.00    +0.000 C 
BRANCH   3   4
ATOM      4  C   UNL     1       3.585   3.804  17.456  0.00  0.00    +0.000 C 
BRANCH   4   5
ATOM      5  C   UNL     1       3.507   2.795  18.605  0.00  0.00    +0.000 C 
BRANCH   5   6
ATOM      6  N   UNL     1       2.119   2.617  19.020  0.00  0.00    +0.000 NA
ATOM      7  H   UNL     1       1.571   3.434  18.748  0.00  0.00    +0.000 HD
BRANCH   6   8
ATOM      8  C   UNL     1       2.021   2.418  20.465  0.00  0.00    +0.000 C 
BRANCH   8  10
ATOM      9  C   UNL     1       1.286   4.816  20.697  0.00  0.00    +0.000 C 
ATOM     10  C   UNL     1       2.258   3.749  21.174  0.00  0.00    +0.000 C 
ENDBRANCH   8  10
ENDBRANCH   6   8
ENDBRANCH   5   6
ENDBRANCH   4   5
ENDBRANCH   3   4
ENDBRANCH   2   3
ENDBRANCH   1   2
BRANCH   1  11
ATOM     11  C   UNL     1       5.716   6.607  17.210  0.00  0.00    +0.000 C 
BRANCH  11  12
ATOM     12  N   UNL     1       6.897   5.790  17.466  0.00  0.00    +0.000 N 
BRANCH  12  13
ATOM     13  N   UNL     1       7.594   5.972  18.675  0.00  0.00    +0.000 N 
ATOM     14  O   UNL     1       8.300   7.030  18.783  0.00  0.00    +0.000 OA
ATOM     15  N   UNL     1       7.478   5.075  19.580  0.00  0.00    +0.000 NA
BRANCH  15  16
ATOM     16  O   UNL     1       8.238   5.436  20.714  0.00  0.00    +0.000 OA
ATOM     17  H   UNL     1       7.768   6.218  21.040  0.00  0.00    +0.000 HD
ENDBRANCH  15  16
ENDBRANCH  12  13
BRANCH  12  18
ATOM     18  C   UNL     1       7.212   4.668  16.591  0.00  0.00    +0.000 C 
BRANCH  18  19
ATOM     19  C   UNL     1       6.966   4.946  15.106  0.00  0.00    +0.000 C 
ATOM     20  C   UNL     1       5.901   4.055  14.481  0.00  0.00    +0.000 C 
ENDBRANCH  18  19
ENDBRANCH  12  18
ENDBRANCH  11  12
ENDBRANCH   1  11
TORSDOF 13
ENDMDL
