MODEL 1
REMARK VINA RESULT:      -7.8      0.000      0.000
REMARK  Name = 
REMARK  8 active torsions:
REMARK  status: ('A' for Active; 'I' for Inactive)
REMARK    1  A    between atoms: C_1  and  C_2
REMARK    2  A    between atoms: C_4  and  C_5
REMARK    3  A    between atoms: C_7  and  N_8
REMARK    4  A    between atoms: N_8  and  C_9
REMARK    5  A    between atoms: C_9  and  C_10
REMARK    6  A    between atoms: C_10  and  C_11
REMARK    7  A    between atoms: C_13  and  C_15
REMARK    8  A    between atoms: C_15  and  N_16
REMARK                            x       y       z     vdW  Elec       q    Type
REMARK                         _______ _______ _______ _____ _____    ______ ____
ROOT
ATOM      1  N   UNL     1       6.089   5.057  15.955  0.00  0.00    +0.000 N 
ATOM      2  C   UNL     1       5.335   6.202  16.269  0.00  0.00    +0.000 C 
ATOM      3  O   UNL     1       4.861   6.939  15.399  0.00  0.00    +0.000 OA
ENDROOT
BRANCH   1  10
ATOM      4  C   UNL     1       5.476   2.422  11.724  0.00  0.00    +0.000 C 
ATOM      5  C   UNL     1       6.158   3.508  12.509  0.00  0.00    +0.000 A 
ATOM      6  C   UNL     1       7.130   4.307  11.889  0.00  0.00    +0.000 A 
ATOM      7  C   UNL     1       7.740   5.353  12.587  0.00  0.00    +0.000 A 
ATOM      8  C   UNL     1       8.791   6.198  11.922  0.00  0.00    +0.000 C 
ATOM      9  C   UNL     1       7.361   5.605  13.917  0.00  0.00    +0.000 A 
ATOM     10  C   UNL     1       6.411   4.801  14.570  0.00  0.00    +0.000 A 
ATOM     11  C   UNL     1       5.816   3.749  13.855  0.00  0.00    +0.000 A 
ENDBRANCH   1  10
BRANCH   1  12
ATOM     12  C   UNL     1       6.616   4.166  17.009  0.00  0.00    +0.000 C 
BRANCH  12  13
ATOM     13  C   UNL     1       7.916   4.566  17.639  0.00  0.00    +0.000 C 
BRANCH  13  14
ATOM     14  C   UNL     1       7.845   5.062  19.074  0.00  0.00    +0.000 C 
ATOM     15  N   UNL     1       7.786   5.474  20.265  0.00  0.00    +0.000 NA
ENDBRANCH  13  14
ENDBRANCH  12  13
ENDBRANCH   1  12
BRANCH   2  16
ATOM     16  C   UNL     1       5.055   6.516  17.756  0.00  0.00    +0.000 C 
BRANCH  16  17
ATOM     17  N   UNL     1       3.798   5.999  18.266  0.00  0.00    +0.000 N 
ATOM     18  C   UNL     1       2.667   6.751  18.361  0.00  0.00    +0.000 C 
ATOM     19  O   UNL     1       2.490   7.886  17.957  0.00  0.00    +0.000 OA
ATOM     20  N   UNL     1       1.730   6.053  19.086  0.00  0.00    +0.000 N 
ATOM     21  C   UNL     1       2.194   4.755  19.493  0.00  0.00    +0.000 C 
ATOM     22  C   UNL     1       2.055   4.473  20.994  0.00  0.00    +0.000 C 
ATOM     23  C   UNL     1       1.211   3.203  21.097  0.00  0.00    +0.000 C 
ATOM     24  C   UNL     1       1.418   2.492  19.770  0.00  0.00    +0.000 C 
ATOM     25  C   UNL     1       1.452   3.634  18.763  0.00  0.00    +0.000 C 
ATOM     26  C   UNL     1       3.659   4.869  19.027  0.00  0.00    +0.000 C 
ATOM     27  O   UNL     1       4.548   4.070  19.294  0.00  0.00    +0.000 OA
ATOM     28  H   UNL     1       0.817   6.452  19.269  0.00  0.00    +0.000 HD
ENDBRANCH  16  17
ENDBRANCH   2  16
TORSDOF 6
ENDMDL
MODEL 2
REMARK VINA RESULT:      -7.7      0.086      1.658
REMARK  Name = 
REMARK  8 active torsions:
REMARK  status: ('A' for Active; 'I' for Inactive)
REMARK    1  A    between atoms: C_1  and  C_2
REMARK    2  A    between atoms: C_4  and  C_5
REMARK    3  A    between atoms: C_7  and  N_8
REMARK    4  A    between atoms: N_8  and  C_9
REMARK    5  A    between atoms: C_9  and  C_10
REMARK    6  A    between atoms: C_10  and  C_11
REMARK    7  A    between atoms: C_13  and  C_15
REMARK    8  A    between atoms: C_15  and  N_16
REMARK                            x       y       z     vdW  Elec       q    Type
REMARK                         _______ _______ _______ _____ _____    ______ ____
ROOT
ATOM      1  N   UNL     1       6.133   5.059  15.961  0.00  0.00    +0.000 N 
ATOM      2  C   UNL     1       5.358   6.192  16.266  0.00  0.00    +0.000 C 
ATOM      3  O   UNL     1       4.898   6.932  15.392  0.00  0.00    +0.000 OA
ENDROOT
BRANCH   1  10
ATOM      4  C   UNL     1       8.765   6.236  11.848  0.00  0.00    +0.000 C 
ATOM      5  C   UNL     1       7.735   5.398  12.555  0.00  0.00    +0.000 A 
ATOM      6  C   UNL     1       7.105   4.350  11.870  0.00  0.00    +0.000 A 
ATOM      7  C   UNL     1       6.182   3.528  12.523  0.00  0.00    +0.000 A 
ATOM      8  C   UNL     1       5.498   2.413  11.781  0.00  0.00    +0.000 C 
ATOM      9  C   UNL     1       5.897   3.759  13.880  0.00  0.00    +0.000 A 
ATOM     10  C   UNL     1       6.493   4.821  14.581  0.00  0.00    +0.000 A 
ATOM     11  C   UNL     1       7.411   5.640  13.905  0.00  0.00    +0.000 A 
ENDBRANCH   1  10
BRANCH   1  12
ATOM     12  C   UNL     1       6.644   4.162  17.019  0.00  0.00    +0.000 C 
BRANCH  12  13
ATOM     13  C   UNL     1       7.946   4.548  17.654  0.00  0.00    +0.000 C 
BRANCH  13  14
ATOM     14  C   UNL     1       7.872   5.063  19.083  0.00  0.00    +0.000 C 
ATOM     15  N   UNL     1       7.810   5.489  20.268  0.00  0.00    +0.000 NA
ENDBRANCH  13  14
ENDBRANCH  12  13
ENDBRANCH   1  12
BRANCH   2  16
ATOM     16  C   UNL     1       5.037   6.487  17.748  0.00  0.00    +0.000 C 
BRANCH  16  17
ATOM     17  N   UNL     1       3.775   5.949  18.222  0.00  0.00    +0.000 N 
ATOM     18  C   UNL     1       2.626   6.677  18.271  0.00  0.00    +0.000 C 
ATOM     19  O   UNL     1       2.438   7.804  17.849  0.00  0.00    +0.000 OA
ATOM     20  N   UNL     1       1.679   5.967  18.972  0.00  0.00    +0.000 N 
ATOM     21  C   UNL     1       2.157   4.683  19.408  0.00  0.00    +0.000 C 
ATOM     22  C   UNL     1       1.974   4.413  20.906  0.00  0.00    +0.000 C 
ATOM     23  C   UNL     1       1.154   3.126  20.995  0.00  0.00    +0.000 C 
ATOM     24  C   UNL     1       1.420   2.407  19.683  0.00  0.00    +0.000 C 
ATOM     25  C   UNL     1       1.464   3.538  18.666  0.00  0.00    +0.000 C 
ATOM     26  C   UNL     1       3.634   4.823  18.990  0.00  0.00    +0.000 C 
ATOM     27  O   UNL     1       4.531   4.047  19.295  0.00  0.00    +0.000 OA
ATOM     28  H   UNL     1       0.753   6.348  19.120  0.00  0.00    +0.000 HD
ENDBRANCH  16  17
ENDBRANCH   2  16
TORSDOF 6
ENDMDL
MODEL 3
REMARK VINA RESULT:      -7.4      4.892      7.675
REMARK  Name = 
REMARK  8 active torsions:
REMARK  status: ('A' for Active; 'I' for Inactive)
REMARK    1  A    between atoms: C_1  and  C_2
REMARK    2  A    between atoms: C_4  and  C_5
REMARK    3  A    between atoms: C_7  and  N_8
REMARK    4  A    between atoms: N_8  and  C_9
REMARK    5  A    between atoms: C_9  and  C_10
REMARK    6  A    between atoms: C_10  and  C_11
REMARK    7  A    between atoms: C_13  and  C_15
REMARK    8  A    between atoms: C_15  and  N_16
REMARK                            x       y       z     vdW  Elec       q    Type
REMARK                         _______ _______ _______ _____ _____    ______ ____
ROOT
ATOM      1  N   UNL     1       1.955   8.122  19.301  0.00  0.00    +0.000 N 
ATOM      2  C   UNL     1       1.630   9.233  18.503  0.00  0.00    +0.000 C 
ATOM      3  O   UNL     1       1.729   9.213  17.272  0.00  0.00    +0.000 OA
ENDROOT
BRANCH   1  10
ATOM      4  C   UNL     1       5.522   5.975  16.492  0.00  0.00    +0.000 C 
ATOM      5  C   UNL     1       4.236   5.898  17.267  0.00  0.00    +0.000 A 
ATOM      6  C   UNL     1       3.570   4.670  17.388  0.00  0.00    +0.000 A 
ATOM      7  C   UNL     1       2.400   4.568  18.145  0.00  0.00    +0.000 A 
ATOM      8  C   UNL     1       1.682   3.252  18.261  0.00  0.00    +0.000 C 
ATOM      9  C   UNL     1       1.899   5.711  18.793  0.00  0.00    +0.000 A 
ATOM     10  C   UNL     1       2.531   6.960  18.664  0.00  0.00    +0.000 A 
ATOM     11  C   UNL     1       3.701   7.043  17.892  0.00  0.00    +0.000 A 
ENDBRANCH   1  10
BRANCH   1  12
ATOM     12  C   UNL     1       1.793   8.151  20.770  0.00  0.00    +0.000 C 
BRANCH  12  13
ATOM     13  C   UNL     1       0.388   8.225  21.288  0.00  0.00    +0.000 C 
BRANCH  13  14
ATOM     14  C   UNL     1       0.149   9.169  22.454  0.00  0.00    +0.000 C 
ATOM     15  N   UNL     1      -0.049   9.954  23.422  0.00  0.00    +0.000 NA
ENDBRANCH  13  14
ENDBRANCH  12  13
ENDBRANCH   1  12
BRANCH   2  16
ATOM     16  C   UNL     1       1.084  10.503  19.193  0.00  0.00    +0.000 C 
BRANCH  16  17
ATOM     17  N   UNL     1      -0.028  11.142  18.513  0.00  0.00    +0.000 N 
ATOM     18  C   UNL     1      -0.066  12.475  18.239  0.00  0.00    +0.000 C 
ATOM     19  O   UNL     1       0.817  13.297  18.405  0.00  0.00    +0.000 OA
ATOM     20  N   UNL     1      -1.330  12.802  17.806  0.00  0.00    +0.000 N 
ATOM     21  C   UNL     1      -2.208  11.666  17.740  0.00  0.00    +0.000 C 
ATOM     22  C   UNL     1      -3.536  11.846  18.484  0.00  0.00    +0.000 C 
ATOM     23  C   UNL     1      -4.628  11.607  17.441  0.00  0.00    +0.000 C 
ATOM     24  C   UNL     1      -3.968  10.737  16.385  0.00  0.00    +0.000 C 
ATOM     25  C   UNL     1      -2.558  11.303  16.296  0.00  0.00    +0.000 C 
ATOM     26  C   UNL     1      -1.285  10.614  18.386  0.00  0.00    +0.000 C 
ATOM     27  O   UNL     1      -1.627   9.487  18.724  0.00  0.00    +0.000 OA
ATOM     28  H   UNL     1      -1.558  13.756  17.555  0.00  0.00    +0.000 HD
ENDBRANCH  16  17
ENDBRANCH   2  16
TORSDOF 6
ENDMDL
MODEL 4
REMARK VINA RESULT:      -7.3      4.877      7.442
REMARK  Name = 
REMARK  8 active torsions:
REMARK  status: ('A' for Active; 'I' for Inactive)
REMARK    1  A    between atoms: C_1  and  C_2
REMARK    2  A    between atoms: C_4  and  C_5
REMARK    3  A    between atoms: C_7  and  N_8
REMARK    4  A    between atoms: N_8  and  C_9
REMARK    5  A    between atoms: C_9  and  C_10
REMARK    6  A    between atoms: C_10  and  C_11
REMARK    7  A    between atoms: C_13  and  C_15
REMARK    8  A    between atoms: C_15  and  N_16
REMARK                            x       y       z     vdW  Elec       q    Type
REMARK                         _______ _______ _______ _____ _____    ______ ____
ROOT
ATOM      1  N   UNL     1       1.973   8.075  19.229  0.00  0.00    +0.000 N 
ATOM      2  C   UNL     1       1.637   9.204  18.461  0.00  0.00    +0.000 C 
ATOM      3  O   UNL     1       1.740   9.219  17.231  0.00  0.00    +0.000 OA
ENDROOT
BRANCH   1  10
ATOM      4  C   UNL     1       1.963   3.195  18.042  0.00  0.00    +0.000 C 
ATOM      5  C   UNL     1       2.601   4.556  18.003  0.00  0.00    +0.000 A 
ATOM      6  C   UNL     1       3.798   4.741  17.297  0.00  0.00    +0.000 A 
ATOM      7  C   UNL     1       4.381   6.008  17.206  0.00  0.00    +0.000 A 
ATOM      8  C   UNL     1       5.672   6.199  16.460  0.00  0.00    +0.000 C 
ATOM      9  C   UNL     1       3.748   7.101  17.825  0.00  0.00    +0.000 A 
ATOM     10  C   UNL     1       2.563   6.937  18.562  0.00  0.00    +0.000 A 
ATOM     11  C   UNL     1       1.998   5.654  18.648  0.00  0.00    +0.000 A 
ENDBRANCH   1  10
BRANCH   1  12
ATOM     12  C   UNL     1       1.807   8.061  20.698  0.00  0.00    +0.000 C 
BRANCH  12  13
ATOM     13  C   UNL     1       0.414   8.256  21.217  0.00  0.00    +0.000 C 
BRANCH  13  14
ATOM     14  C   UNL     1       0.274   9.110  22.467  0.00  0.00    +0.000 C 
ATOM     15  N   UNL     1       0.158   9.819  23.504  0.00  0.00    +0.000 NA
ENDBRANCH  13  14
ENDBRANCH  12  13
ENDBRANCH   1  12
BRANCH   2  16
ATOM     16  C   UNL     1       1.076  10.448  19.186  0.00  0.00    +0.000 C 
BRANCH  16  17
ATOM     17  N   UNL     1      -0.029  11.105  18.511  0.00  0.00    +0.000 N 
ATOM     18  C   UNL     1      -0.051  12.439  18.243  0.00  0.00    +0.000 C 
ATOM     19  O   UNL     1       0.844  13.249  18.410  0.00  0.00    +0.000 OA
ATOM     20  N   UNL     1      -1.311  12.785  17.814  0.00  0.00    +0.000 N 
ATOM     21  C   UNL     1      -2.204  11.661  17.745  0.00  0.00    +0.000 C 
ATOM     22  C   UNL     1      -3.528  11.855  18.493  0.00  0.00    +0.000 C 
ATOM     23  C   UNL     1      -4.625  11.634  17.452  0.00  0.00    +0.000 C 
ATOM     24  C   UNL     1      -3.979  10.761  16.390  0.00  0.00    +0.000 C 
ATOM     25  C   UNL     1      -2.562  11.308  16.300  0.00  0.00    +0.000 C 
ATOM     26  C   UNL     1      -1.293  10.593  18.384  0.00  0.00    +0.000 C 
ATOM     27  O   UNL     1      -1.650   9.470  18.718  0.00  0.00    +0.000 OA
ATOM     28  H   UNL     1      -1.527  13.743  17.568  0.00  0.00    +0.000 HD
ENDBRANCH  16  17
ENDBRANCH   2  16
TORSDOF 6
ENDMDL
MODEL 5
REMARK VINA RESULT:      -7.3      5.032      8.274
REMARK  Name = 
REMARK  8 active torsions:
REMARK  status: ('A' for Active; 'I' for Inactive)
REMARK    1  A    between atoms: C_1  and  C_2
REMARK    2  A    between atoms: C_4  and  C_5
REMARK    3  A    between atoms: C_7  and  N_8
REMARK    4  A    between atoms: N_8  and  C_9
REMARK    5  A    between atoms: C_9  and  C_10
REMARK    6  A    between atoms: C_10  and  C_11
REMARK    7  A    between atoms: C_13  and  C_15
REMARK    8  A    between atoms: C_15  and  N_16
REMARK                            x       y       z     vdW  Elec       q    Type
REMARK                         _______ _______ _______ _____ _____    ______ ____
ROOT
ATOM      1  N   UNL     1       1.604   8.287  20.122  0.00  0.00    +0.000 N 
ATOM      2  C   UNL     1       1.443   9.218  19.080  0.00  0.00    +0.000 C 
ATOM      3  O   UNL     1       1.580   8.909  17.893  0.00  0.00    +0.000 OA
ENDROOT
BRANCH   1  10
ATOM      4  C   UNL     1       4.293   5.142  17.275  0.00  0.00    +0.000 C 
ATOM      5  C   UNL     1       3.325   5.398  18.397  0.00  0.00    +0.000 A 
ATOM      6  C   UNL     1       2.843   4.322  19.157  0.00  0.00    +0.000 A 
ATOM      7  C   UNL     1       1.981   4.544  20.235  0.00  0.00    +0.000 A 
ATOM      8  C   UNL     1       1.456   3.387  21.038  0.00  0.00    +0.000 C 
ATOM      9  C   UNL     1       1.608   5.861  20.556  0.00  0.00    +0.000 A 
ATOM     10  C   UNL     1       2.054   6.954  19.793  0.00  0.00    +0.000 A 
ATOM     11  C   UNL     1       2.912   6.709  18.709  0.00  0.00    +0.000 A 
ENDBRANCH   1  10
BRANCH   1  12
ATOM     12  C   UNL     1       1.399   8.665  21.536  0.00  0.00    +0.000 C 
BRANCH  12  13
ATOM     13  C   UNL     1      -0.022   8.748  22.009  0.00  0.00    +0.000 C 
BRANCH  13  14
ATOM     14  C   UNL     1      -0.430  10.044  22.691  0.00  0.00    +0.000 C 
ATOM     15  N   UNL     1      -0.768  11.119  23.257  0.00  0.00    +0.000 NA
ENDBRANCH  13  14
ENDBRANCH  12  13
ENDBRANCH   1  12
BRANCH   2  16
ATOM     16  C   UNL     1       1.036  10.664  19.440  0.00  0.00    +0.000 C 
BRANCH  16  17
ATOM     17  N   UNL     1      -0.045  11.213  18.641  0.00  0.00    +0.000 N 
ATOM     18  C   UNL     1      -0.080  12.509  18.227  0.00  0.00    +0.000 C 
ATOM     19  O   UNL     1       0.787  13.356  18.349  0.00  0.00    +0.000 OA
ATOM     20  N   UNL     1      -1.323  12.773  17.698  0.00  0.00    +0.000 N 
ATOM     21  C   UNL     1      -2.187  11.624  17.708  0.00  0.00    +0.000 C 
ATOM     22  C   UNL     1      -3.553  11.864  18.362  0.00  0.00    +0.000 C 
ATOM     23  C   UNL     1      -4.588  11.502  17.297  0.00  0.00    +0.000 C 
ATOM     24  C   UNL     1      -3.868  10.535  16.372  0.00  0.00    +0.000 C 
ATOM     25  C   UNL     1      -2.459  11.107  16.295  0.00  0.00    +0.000 C 
ATOM     26  C   UNL     1      -1.290  10.658  18.508  0.00  0.00    +0.000 C 
ATOM     27  O   UNL     1      -1.640   9.569  18.944  0.00  0.00    +0.000 OA
ATOM     28  H   UNL     1      -1.545  13.692  17.337  0.00  0.00    +0.000 HD
ENDBRANCH  16  17
ENDBRANCH   2  16
TORSDOF 6
ENDMDL
MODEL 6
REMARK VINA RESULT:      -7.3      3.994      8.258
REMARK  Name = 
REMARK  8 active torsions:
REMARK  status: ('A' for Active; 'I' for Inactive)
REMARK    1  A    between atoms: C_1  and  C_2
REMARK    2  A    between atoms: C_4  and  C_5
REMARK    3  A    between atoms: C_7  and  N_8
REMARK    4  A    between atoms: N_8  and  C_9
REMARK    5  A    between atoms: C_9  and  C_10
REMARK    6  A    between atoms: C_10  and  C_11
REMARK    7  A    between atoms: C_13  and  C_15
REMARK    8  A    between atoms: C_15  and  N_16
REMARK                            x       y       z     vdW  Elec       q    Type
REMARK                         _______ _______ _______ _____ _____    ______ ____
ROOT
ATOM      1  N   UNL     1       1.379   8.935  19.498  0.00  0.00    +0.000 N 
ATOM      2  C   UNL     1       2.156   8.199  18.586  0.00  0.00    +0.000 C 
ATOM      3  O   UNL     1       2.271   8.528  17.402  0.00  0.00    +0.000 OA
ENDROOT
BRANCH   1  10
ATOM      4  C   UNL     1       0.706  13.869  18.840  0.00  0.00    +0.000 C 
ATOM      5  C   UNL     1       0.234  12.448  18.703  0.00  0.00    +0.000 A 
ATOM      6  C   UNL     1      -0.990  12.182  18.072  0.00  0.00    +0.000 A 
ATOM      7  C   UNL     1      -1.424  10.865  17.891  0.00  0.00    +0.000 A 
ATOM      8  C   UNL     1      -2.743  10.585  17.225  0.00  0.00    +0.000 C 
ATOM      9  C   UNL     1      -0.615   9.807  18.340  0.00  0.00    +0.000 A 
ATOM     10  C   UNL     1       0.602  10.048  19.001  0.00  0.00    +0.000 A 
ATOM     11  C   UNL     1       1.016  11.378  19.181  0.00  0.00    +0.000 A 
ENDBRANCH   1  10
BRANCH   1  12
ATOM     12  C   UNL     1       1.283   8.549  20.921  0.00  0.00    +0.000 C 
BRANCH  12  13
ATOM     13  C   UNL     1      -0.079   8.619  21.545  0.00  0.00    +0.000 C 
BRANCH  13  14
ATOM     14  C   UNL     1      -0.314   9.760  22.522  0.00  0.00    +0.000 C 
ATOM     15  N   UNL     1      -0.510  10.707  23.332  0.00  0.00    +0.000 NA
ENDBRANCH  13  14
ENDBRANCH  12  13
ENDBRANCH   1  12
BRANCH   2  16
ATOM     16  C   UNL     1       2.926   6.964  19.104  0.00  0.00    +0.000 C 
BRANCH  16  17
ATOM     17  N   UNL     1       3.474   6.104  18.070  0.00  0.00    +0.000 N 
ATOM     18  C   UNL     1       2.900   4.928  17.698  0.00  0.00    +0.000 C 
ATOM     19  O   UNL     1       1.833   4.469  18.064  0.00  0.00    +0.000 OA
ATOM     20  N   UNL     1       3.769   4.250  16.875  0.00  0.00    +0.000 N 
ATOM     21  C   UNL     1       4.983   4.978  16.628  0.00  0.00    +0.000 C 
ATOM     22  C   UNL     1       6.266   4.188  16.913  0.00  0.00    +0.000 C 
ATOM     23  C   UNL     1       7.060   4.206  15.607  0.00  0.00    +0.000 C 
ATOM     24  C   UNL     1       6.565   5.440  14.871  0.00  0.00    +0.000 C 
ATOM     25  C   UNL     1       5.073   5.455  15.177  0.00  0.00    +0.000 C 
ATOM     26  C   UNL     1       4.761   6.152  17.603  0.00  0.00    +0.000 C 
ATOM     27  O   UNL     1       5.602   6.989  17.902  0.00  0.00    +0.000 OA
ATOM     28  H   UNL     1       3.521   3.345  16.496  0.00  0.00    +0.000 HD
ENDBRANCH  16  17
ENDBRANCH   2  16
TORSDOF 6
ENDMDL
MODEL 7
REMARK VINA RESULT:      -7.3      5.008      8.150
REMARK  Name = 
REMARK  8 active torsions:
REMARK  status: ('A' for Active; 'I' for Inactive)
REMARK    1  A    between atoms: C_1  and  C_2
REMARK    2  A    between atoms: C_4  and  C_5
REMARK    3  A    between atoms: C_7  and  N_8
REMARK    4  A    between atoms: N_8  and  C_9
REMARK    5  A    between atoms: C_9  and  C_10
REMARK    6  A    between atoms: C_10  and  C_11
REMARK    7  A    between atoms: C_13  and  C_15
REMARK    8  A    between atoms: C_15  and  N_16
REMARK                            x       y       z     vdW  Elec       q    Type
REMARK                         _______ _______ _______ _____ _____    ______ ____
ROOT
ATOM      1  N   UNL     1       1.608   8.258  20.133  0.00  0.00    +0.000 N 
ATOM      2  C   UNL     1       1.468   9.181  19.082  0.00  0.00    +0.000 C 
ATOM      3  O   UNL     1       1.600   8.858  17.898  0.00  0.00    +0.000 OA
ENDROOT
BRANCH   1  10
ATOM      4  C   UNL     1       1.508   3.312  21.000  0.00  0.00    +0.000 C 
ATOM      5  C   UNL     1       2.029   4.504  20.245  0.00  0.00    +0.000 A 
ATOM      6  C   UNL     1       2.946   4.318  19.201  0.00  0.00    +0.000 A 
ATOM      7  C   UNL     1       3.404   5.408  18.455  0.00  0.00    +0.000 A 
ATOM      8  C   UNL     1       4.398   5.205  17.345  0.00  0.00    +0.000 C 
ATOM      9  C   UNL     1       2.928   6.695  18.758  0.00  0.00    +0.000 A 
ATOM     10  C   UNL     1       2.031   6.912  19.818  0.00  0.00    +0.000 A 
ATOM     11  C   UNL     1       1.590   5.805  20.560  0.00  0.00    +0.000 A 
ENDBRANCH   1  10
BRANCH   1  12
ATOM     12  C   UNL     1       1.408   8.654  21.543  0.00  0.00    +0.000 C 
BRANCH  12  13
ATOM     13  C   UNL     1      -0.010   8.741  22.021  0.00  0.00    +0.000 C 
BRANCH  13  14
ATOM     14  C   UNL     1      -0.413  10.039  22.701  0.00  0.00    +0.000 C 
ATOM     15  N   UNL     1      -0.748  11.116  23.266  0.00  0.00    +0.000 NA
ENDBRANCH  13  14
ENDBRANCH  12  13
ENDBRANCH   1  12
BRANCH   2  16
ATOM     16  C   UNL     1       1.089  10.639  19.426  0.00  0.00    +0.000 C 
BRANCH  16  17
ATOM     17  N   UNL     1       0.003  11.193  18.638  0.00  0.00    +0.000 N 
ATOM     18  C   UNL     1      -0.029  12.488  18.221  0.00  0.00    +0.000 C 
ATOM     19  O   UNL     1       0.845  13.330  18.331  0.00  0.00    +0.000 OA
ATOM     20  N   UNL     1      -1.275  12.759  17.705  0.00  0.00    +0.000 N 
ATOM     21  C   UNL     1      -2.146  11.615  17.727  0.00  0.00    +0.000 C 
ATOM     22  C   UNL     1      -3.504  11.865  18.395  0.00  0.00    +0.000 C 
ATOM     23  C   UNL     1      -4.552  11.507  17.341  0.00  0.00    +0.000 C 
ATOM     24  C   UNL     1      -3.848  10.534  16.411  0.00  0.00    +0.000 C 
ATOM     25  C   UNL     1      -2.437  11.097  16.318  0.00  0.00    +0.000 C 
ATOM     26  C   UNL     1      -1.247  10.645  18.519  0.00  0.00    +0.000 C 
ATOM     27  O   UNL     1      -1.599   9.559  18.962  0.00  0.00    +0.000 OA
ATOM     28  H   UNL     1      -1.496  13.678  17.345  0.00  0.00    +0.000 HD
ENDBRANCH  16  17
ENDBRANCH   2  16
TORSDOF 6
ENDMDL
MODEL 8
REMARK VINA RESULT:      -7.2      4.089      8.140
REMARK  Name = 
REMARK  8 active torsions:
REMARK  status: ('A' for Active; 'I' for Inactive)
REMARK    1  A    between atoms: C_1  and  C_2
REMARK    2  A    between atoms: C_4  and  C_5
REMARK    3  A    between atoms: C_7  and  N_8
REMARK    4  A    between atoms: N_8  and  C_9
REMARK    5  A    between atoms: C_9  and  C_10
REMARK    6  A    between atoms: C_10  and  C_11
REMARK    7  A    between atoms: C_13  and  C_15
REMARK    8  A    between atoms: C_15  and  N_16
REMARK                            x       y       z     vdW  Elec       q    Type
REMARK                         _______ _______ _______ _____ _____    ______ ____
ROOT
ATOM      1  N   UNL     1       1.309   9.017  19.649  0.00  0.00    +0.000 N 
ATOM      2  C   UNL     1       2.002   8.209  18.730  0.00  0.00    +0.000 C 
ATOM      3  O   UNL     1       2.119   8.516  17.540  0.00  0.00    +0.000 OA
ENDROOT
BRANCH   1  10
ATOM      4  C   UNL     1      -2.676  11.169  17.477  0.00  0.00    +0.000 C 
ATOM      5  C   UNL     1      -1.294  11.253  18.066  0.00  0.00    +0.000 A 
ATOM      6  C   UNL     1      -0.650  12.495  18.150  0.00  0.00    +0.000 A 
ATOM      7  C   UNL     1       0.613  12.602  18.738  0.00  0.00    +0.000 A 
ATOM      8  C   UNL     1       1.306  13.934  18.814  0.00  0.00    +0.000 C 
ATOM      9  C   UNL     1       1.230  11.449  19.254  0.00  0.00    +0.000 A 
ATOM     10  C   UNL     1       0.619  10.187  19.156  0.00  0.00    +0.000 A 
ATOM     11  C   UNL     1      -0.647  10.100  18.554  0.00  0.00    +0.000 A 
ENDBRANCH   1  10
BRANCH   1  12
ATOM     12  C   UNL     1       1.211   8.654  21.078  0.00  0.00    +0.000 C 
BRANCH  12  13
ATOM     13  C   UNL     1      -0.153   8.724  21.697  0.00  0.00    +0.000 C 
BRANCH  13  14
ATOM     14  C   UNL     1      -0.434   9.934  22.573  0.00  0.00    +0.000 C 
ATOM     15  N   UNL     1      -0.667  10.938  23.300  0.00  0.00    +0.000 NA
ENDBRANCH  13  14
ENDBRANCH  12  13
ENDBRANCH   1  12
BRANCH   2  16
ATOM     16  C   UNL     1       2.676   6.918  19.246  0.00  0.00    +0.000 C 
BRANCH  16  17
ATOM     17  N   UNL     1       3.265   6.080  18.216  0.00  0.00    +0.000 N 
ATOM     18  C   UNL     1       2.697   4.920  17.786  0.00  0.00    +0.000 C 
ATOM     19  O   UNL     1       1.609   4.465  18.087  0.00  0.00    +0.000 OA
ATOM     20  N   UNL     1       3.598   4.255  16.988  0.00  0.00    +0.000 N 
ATOM     21  C   UNL     1       4.831   4.975  16.820  0.00  0.00    +0.000 C 
ATOM     22  C   UNL     1       6.090   4.162  17.146  0.00  0.00    +0.000 C 
ATOM     23  C   UNL     1       6.947   4.206  15.881  0.00  0.00    +0.000 C 
ATOM     24  C   UNL     1       6.501   5.464  15.156  0.00  0.00    +0.000 C 
ATOM     25  C   UNL     1       4.997   5.489  15.389  0.00  0.00    +0.000 C 
ATOM     26  C   UNL     1       4.573   6.125  17.814  0.00  0.00    +0.000 C 
ATOM     27  O   UNL     1       5.408   6.944  18.177  0.00  0.00    +0.000 OA
ATOM     28  H   UNL     1       3.360   3.363  16.573  0.00  0.00    +0.000 HD
ENDBRANCH  16  17
ENDBRANCH   2  16
TORSDOF 6
ENDMDL
MODEL 9
REMARK VINA RESULT:      -7.0      3.575      5.930
REMARK  Name = 
REMARK  8 active torsions:
REMARK  status: ('A' for Active; 'I' for Inactive)
REMARK    1  A    between atoms: C_1  and  C_2
REMARK    2  A    between atoms: C_4  and  C_5
REMARK    3  A    between atoms: C_7  and  N_8
REMARK    4  A    between atoms: N_8  and  C_9
REMARK    5  A    between atoms: C_9  and  C_10
REMARK    6  A    between atoms: C_10  and  C_11
REMARK    7  A    between atoms: C_13  and  C_15
REMARK    8  A    between atoms: C_15  and  N_16
REMARK                            x       y       z     vdW  Elec       q    Type
REMARK                         _______ _______ _______ _____ _____    ______ ____
ROOT
ATOM      1  N   UNL     1       3.215   5.960  19.017  0.00  0.00    +0.000 N 
ATOM      2  C   UNL     1       2.638   7.233  18.866  0.00  0.00    +0.000 C 
ATOM      3  O   UNL     1       3.087   8.072  18.079  0.00  0.00    +0.000 OA
ENDROOT
BRANCH   1  10
ATOM      4  C   UNL     1       5.646   4.568  14.848  0.00  0.00    +0.000 C 
ATOM      5  C   UNL     1       5.644   4.956  16.301  0.00  0.00    +0.000 A 
ATOM      6  C   UNL     1       6.858   5.049  16.996  0.00  0.00    +0.000 A 
ATOM      7  C   UNL     1       6.882   5.456  18.333  0.00  0.00    +0.000 A 
ATOM      8  C   UNL     1       8.185   5.540  19.079  0.00  0.00    +0.000 C 
ATOM      9  C   UNL     1       5.673   5.781  18.973  0.00  0.00    +0.000 A 
ATOM     10  C   UNL     1       4.441   5.669  18.308  0.00  0.00    +0.000 A 
ATOM     11  C   UNL     1       4.438   5.250  16.967  0.00  0.00    +0.000 A 
ENDBRANCH   1  10
BRANCH   1  12
ATOM     12  C   UNL     1       2.642   4.954  19.935  0.00  0.00    +0.000 C 
BRANCH  12  13
ATOM     13  C   UNL     1       2.672   3.528  19.473  0.00  0.00    +0.000 C 
BRANCH  13  14
ATOM     14  C   UNL     1       3.854   2.694  19.937  0.00  0.00    +0.000 C 
ATOM     15  N   UNL     1       4.835   2.002  20.323  0.00  0.00    +0.000 NA
ENDBRANCH  13  14
ENDBRANCH  12  13
ENDBRANCH   1  12
BRANCH   2  16
ATOM     16  C   UNL     1       1.371   7.570  19.683  0.00  0.00    +0.000 C 
BRANCH  16  17
ATOM     17  N   UNL     1       1.186   8.979  19.977  0.00  0.00    +0.000 N 
ATOM     18  C   UNL     1       1.207   9.486  21.240  0.00  0.00    +0.000 C 
ATOM     19  O   UNL     1       1.479   8.902  22.274  0.00  0.00    +0.000 OA
ATOM     20  N   UNL     1       0.777  10.792  21.202  0.00  0.00    +0.000 N 
ATOM     21  C   UNL     1       0.470  11.238  19.870  0.00  0.00    +0.000 C 
ATOM     22  C   UNL     1      -0.923  11.859  19.714  0.00  0.00    +0.000 C 
ATOM     23  C   UNL     1      -0.689  13.262  19.154  0.00  0.00    +0.000 C 
ATOM     24  C   UNL     1       0.658  13.179  18.457  0.00  0.00    +0.000 C 
ATOM     25  C   UNL     1       1.474  12.281  19.376  0.00  0.00    +0.000 C 
ATOM     26  C   UNL     1       0.627   9.897  19.127  0.00  0.00    +0.000 C 
ATOM     27  O   UNL     1       0.307   9.694  17.962  0.00  0.00    +0.000 OA
ATOM     28  H   UNL     1       0.719  11.341  22.050  0.00  0.00    +0.000 HD
ENDBRANCH  16  17
ENDBRANCH   2  16
TORSDOF 6
ENDMDL
