MODEL 1
REMARK VINA RESULT:      -7.8      0.000      0.000
REMARK  Name = 
REMARK  3 active torsions:
REMARK  status: ('A' for Active; 'I' for Inactive)
REMARK    1  A    between atoms: N_3  and  C_4
REMARK    2  A    between atoms: C_4  and  C_5
REMARK    3  A    between atoms: C_18  and  C_19
REMARK                            x       y       z     vdW  Elec       q    Type
REMARK                         _______ _______ _______ _____ _____    ______ ____
ROOT
ATOM      1  O   UNL     1       4.253   5.841  19.801  0.00  0.00    +0.000 OA
ATOM      2  C   UNL     1       3.178   5.480  19.331  0.00  0.00    +0.000 C 
ATOM      3  N   UNL     1       1.996   6.090  19.662  0.00  0.00    +0.000 N 
ATOM      4  N   UNL     1       3.062   4.421  18.458  0.00  0.00    +0.000 N 
ATOM      5  C   UNL     1       1.853   3.886  17.852  0.00  0.00    +0.000 C 
ATOM      6  C   UNL     1       2.037   2.389  17.990  0.00  0.00    +0.000 C 
ATOM      7  C   UNL     1       3.530   2.196  17.746  0.00  0.00    +0.000 C 
ATOM      8  C   UNL     1       4.183   3.500  18.256  0.00  0.00    +0.000 C 
ATOM      9  H   UNL     1       1.193   5.487  19.691  0.00  0.00    +0.000 HD
ENDROOT
BRANCH   8  10
ATOM     10  C   UNL     1       5.244   4.004  17.295  0.00  0.00    +0.000 A 
ATOM     11  C   UNL     1       5.031   4.068  15.912  0.00  0.00    +0.000 A 
ATOM     12  C   UNL     1       6.073   4.463  15.086  0.00  0.00    +0.000 A 
ATOM     13  N   UNL     1       7.299   4.804  15.531  0.00  0.00    +0.000 NA
ATOM     14  C   UNL     1       7.484   4.762  16.867  0.00  0.00    +0.000 A 
ATOM     15  C   UNL     1       6.506   4.373  17.773  0.00  0.00    +0.000 A 
ENDBRANCH   8  10
BRANCH   3  16
ATOM     16  C   UNL     1       1.959   7.154  20.639  0.00  0.00    +0.000 C 
BRANCH  16  17
ATOM     17  C   UNL     1       1.363   8.404  20.040  0.00  0.00    +0.000 A 
ATOM     18  C   UNL     1       1.697   8.765  18.714  0.00  0.00    +0.000 A 
ATOM     19  C   UNL     1       1.164   9.912  18.120  0.00  0.00    +0.000 A 
ATOM     20  C   UNL     1       0.292  10.674  18.867  0.00  0.00    +0.000 A 
ATOM     21  C   UNL     1      -0.058  10.324  20.149  0.00  0.00    +0.000 A 
ATOM     22  C   UNL     1       0.453   9.198  20.762  0.00  0.00    +0.000 A 
ATOM     23  O   UNL     1      -0.934  11.205  20.704  0.00  0.00    +0.000 OA
ATOM     24  C   UNL     1      -1.064  12.168  19.636  0.00  0.00    +0.000 C 
ATOM     25  O   UNL     1      -0.314  11.819  18.454  0.00  0.00    +0.000 OA
ENDBRANCH  16  17
ENDBRANCH   3  16
TORSDOF 3
ENDMDL
MODEL 2
REMARK VINA RESULT:      -7.6      1.343      2.265
REMARK  Name = 
REMARK  3 active torsions:
REMARK  status: ('A' for Active; 'I' for Inactive)
REMARK    1  A    between atoms: N_3  and  C_4
REMARK    2  A    between atoms: C_4  and  C_5
REMARK    3  A    between atoms: C_18  and  C_19
REMARK                            x       y       z     vdW  Elec       q    Type
REMARK                         _______ _______ _______ _____ _____    ______ ____
ROOT
ATOM      1  O   UNL     1       4.016   7.370  18.449  0.00  0.00    +0.000 OA
ATOM      2  C   UNL     1       2.971   6.787  18.173  0.00  0.00    +0.000 C 
ATOM      3  N   UNL     1       1.794   7.459  17.971  0.00  0.00    +0.000 N 
ATOM      4  N   UNL     1       2.884   5.416  18.071  0.00  0.00    +0.000 N 
ATOM      5  C   UNL     1       1.710   4.611  17.773  0.00  0.00    +0.000 C 
ATOM      6  C   UNL     1       1.813   3.477  18.772  0.00  0.00    +0.000 C 
ATOM      7  C   UNL     1       3.311   3.200  18.834  0.00  0.00    +0.000 C 
ATOM      8  C   UNL     1       3.976   4.567  18.553  0.00  0.00    +0.000 C 
ATOM      9  H   UNL     1       0.965   6.974  18.265  0.00  0.00    +0.000 HD
ENDROOT
BRANCH   8  10
ATOM     10  C   UNL     1       5.140   4.431  17.588  0.00  0.00    +0.000 A 
ATOM     11  C   UNL     1       6.463   4.685  17.972  0.00  0.00    +0.000 A 
ATOM     12  C   UNL     1       7.467   4.619  17.017  0.00  0.00    +0.000 A 
ATOM     13  N   UNL     1       7.255   4.315  15.720  0.00  0.00    +0.000 NA
ATOM     14  C   UNL     1       5.980   4.048  15.370  0.00  0.00    +0.000 A 
ATOM     15  C   UNL     1       4.907   4.095  16.250  0.00  0.00    +0.000 A 
ENDBRANCH   8  10
BRANCH   3  16
ATOM     16  C   UNL     1       1.720   8.892  18.138  0.00  0.00    +0.000 C 
BRANCH  16  17
ATOM     17  C   UNL     1       1.209   9.240  19.515  0.00  0.00    +0.000 A 
ATOM     18  C   UNL     1       1.560   8.421  20.613  0.00  0.00    +0.000 A 
ATOM     19  C   UNL     1       1.112   8.709  21.904  0.00  0.00    +0.000 A 
ATOM     20  C   UNL     1       0.324   9.827  22.074  0.00  0.00    +0.000 A 
ATOM     21  C   UNL     1      -0.007  10.645  21.020  0.00  0.00    +0.000 A 
ATOM     22  C   UNL     1       0.420  10.384  19.734  0.00  0.00    +0.000 A 
ATOM     23  O   UNL     1      -0.784  11.693  21.405  0.00  0.00    +0.000 OA
ATOM     24  C   UNL     1      -0.932  11.420  22.815  0.00  0.00    +0.000 C 
ATOM     25  O   UNL     1      -0.202  10.254  23.252  0.00  0.00    +0.000 OA
ENDBRANCH  16  17
ENDBRANCH   3  16
TORSDOF 3
ENDMDL
MODEL 3
REMARK VINA RESULT:      -7.6      1.451      2.338
REMARK  Name = 
REMARK  3 active torsions:
REMARK  status: ('A' for Active; 'I' for Inactive)
REMARK    1  A    between atoms: N_3  and  C_4
REMARK    2  A    between atoms: C_4  and  C_5
REMARK    3  A    between atoms: C_18  and  C_19
REMARK                            x       y       z     vdW  Elec       q    Type
REMARK                         _______ _______ _______ _____ _____    ______ ____
ROOT
ATOM      1  O   UNL     1       4.111   7.617  18.161  0.00  0.00    +0.000 OA
ATOM      2  C   UNL     1       3.054   7.016  17.986  0.00  0.00    +0.000 C 
ATOM      3  N   UNL     1       1.875   7.671  17.745  0.00  0.00    +0.000 N 
ATOM      4  N   UNL     1       2.957   5.643  18.044  0.00  0.00    +0.000 N 
ATOM      5  C   UNL     1       1.770   4.821  17.877  0.00  0.00    +0.000 C 
ATOM      6  C   UNL     1       1.898   3.806  18.995  0.00  0.00    +0.000 C 
ATOM      7  C   UNL     1       3.396   3.524  19.041  0.00  0.00    +0.000 C 
ATOM      8  C   UNL     1       4.058   4.844  18.585  0.00  0.00    +0.000 C 
ATOM      9  H   UNL     1       1.053   7.231  18.119  0.00  0.00    +0.000 HD
ENDROOT
BRANCH   8  10
ATOM     10  C   UNL     1       5.190   4.589  17.606  0.00  0.00    +0.000 A 
ATOM     11  C   UNL     1       6.536   4.754  17.959  0.00  0.00    +0.000 A 
ATOM     12  C   UNL     1       7.514   4.580  16.990  0.00  0.00    +0.000 A 
ATOM     13  N   UNL     1       7.254   4.251  15.709  0.00  0.00    +0.000 NA
ATOM     14  C   UNL     1       5.956   4.071  15.389  0.00  0.00    +0.000 A 
ATOM     15  C   UNL     1       4.907   4.228  16.284  0.00  0.00    +0.000 A 
ENDBRANCH   8  10
BRANCH   3  16
ATOM     16  C   UNL     1       1.814   9.115  17.751  0.00  0.00    +0.000 C 
BRANCH  16  17
ATOM     17  C   UNL     1       1.037   9.609  18.946  0.00  0.00    +0.000 A 
ATOM     18  C   UNL     1       0.138  10.689  18.791  0.00  0.00    +0.000 A 
ATOM     19  C   UNL     1      -0.604  11.175  19.871  0.00  0.00    +0.000 A 
ATOM     20  C   UNL     1      -0.439  10.557  21.091  0.00  0.00    +0.000 A 
ATOM     21  C   UNL     1       0.415   9.491  21.252  0.00  0.00    +0.000 A 
ATOM     22  C   UNL     1       1.162   8.992  20.204  0.00  0.00    +0.000 A 
ATOM     23  O   UNL     1       0.424   9.026  22.531  0.00  0.00    +0.000 OA
ATOM     24  C   UNL     1      -0.494   9.945  23.161  0.00  0.00    +0.000 C 
ATOM     25  O   UNL     1      -1.071  10.898  22.245  0.00  0.00    +0.000 OA
ENDBRANCH  16  17
ENDBRANCH   3  16
TORSDOF 3
ENDMDL
MODEL 4
REMARK VINA RESULT:      -7.4      2.719      8.355
REMARK  Name = 
REMARK  3 active torsions:
REMARK  status: ('A' for Active; 'I' for Inactive)
REMARK    1  A    between atoms: N_3  and  C_4
REMARK    2  A    between atoms: C_4  and  C_5
REMARK    3  A    between atoms: C_18  and  C_19
REMARK                            x       y       z     vdW  Elec       q    Type
REMARK                         _______ _______ _______ _____ _____    ______ ____
ROOT
ATOM      1  O   UNL     1       1.053   9.576  17.995  0.00  0.00    +0.000 OA
ATOM      2  C   UNL     1       1.372   9.096  19.079  0.00  0.00    +0.000 C 
ATOM      3  N   UNL     1       2.161   7.981  19.179  0.00  0.00    +0.000 N 
ATOM      4  N   UNL     1       0.943   9.616  20.281  0.00  0.00    +0.000 N 
ATOM      5  C   UNL     1       1.230   9.130  21.621  0.00  0.00    +0.000 C 
ATOM      6  C   UNL     1      -0.118   9.210  22.308  0.00  0.00    +0.000 C 
ATOM      7  C   UNL     1      -0.724  10.490  21.742  0.00  0.00    +0.000 C 
ATOM      8  C   UNL     1      -0.135  10.607  20.318  0.00  0.00    +0.000 C 
ATOM      9  H   UNL     1       1.958   7.377  19.955  0.00  0.00    +0.000 HD
ENDROOT
BRANCH   8  10
ATOM     10  C   UNL     1       0.307  12.027  20.013  0.00  0.00    +0.000 A 
ATOM     11  C   UNL     1      -0.353  12.830  19.075  0.00  0.00    +0.000 A 
ATOM     12  C   UNL     1       0.154  14.090  18.789  0.00  0.00    +0.000 A 
ATOM     13  N   UNL     1       1.255  14.608  19.369  0.00  0.00    +0.000 NA
ATOM     14  C   UNL     1       1.866  13.834  20.290  0.00  0.00    +0.000 A 
ATOM     15  C   UNL     1       1.441  12.558  20.638  0.00  0.00    +0.000 A 
ENDBRANCH   8  10
BRANCH   3  16
ATOM     16  C   UNL     1       2.604   7.278  17.996  0.00  0.00    +0.000 C 
BRANCH  16  17
ATOM     17  C   UNL     1       2.743   5.802  18.277  0.00  0.00    +0.000 A 
ATOM     18  C   UNL     1       1.715   4.919  17.872  0.00  0.00    +0.000 A 
ATOM     19  C   UNL     1       1.805   3.545  18.109  0.00  0.00    +0.000 A 
ATOM     20  C   UNL     1       2.937   3.077  18.740  0.00  0.00    +0.000 A 
ATOM     21  C   UNL     1       3.954   3.920  19.120  0.00  0.00    +0.000 A 
ATOM     22  C   UNL     1       3.891   5.281  18.901  0.00  0.00    +0.000 A 
ATOM     23  O   UNL     1       4.978   3.255  19.719  0.00  0.00    +0.000 OA
ATOM     24  C   UNL     1       4.472   1.903  19.705  0.00  0.00    +0.000 C 
ATOM     25  O   UNL     1       3.190   1.779  19.055  0.00  0.00    +0.000 OA
ENDBRANCH  16  17
ENDBRANCH   3  16
TORSDOF 3
ENDMDL
MODEL 5
REMARK VINA RESULT:      -7.3      3.121      8.449
REMARK  Name = 
REMARK  3 active torsions:
REMARK  status: ('A' for Active; 'I' for Inactive)
REMARK    1  A    between atoms: N_3  and  C_4
REMARK    2  A    between atoms: C_4  and  C_5
REMARK    3  A    between atoms: C_18  and  C_19
REMARK                            x       y       z     vdW  Elec       q    Type
REMARK                         _______ _______ _______ _____ _____    ______ ____
ROOT
ATOM      1  O   UNL     1      -0.386   9.142  20.670  0.00  0.00    +0.000 OA
ATOM      2  C   UNL     1       0.590   9.400  19.969  0.00  0.00    +0.000 C 
ATOM      3  N   UNL     1       1.711   8.613  19.964  0.00  0.00    +0.000 N 
ATOM      4  N   UNL     1       0.653  10.510  19.156  0.00  0.00    +0.000 N 
ATOM      5  C   UNL     1       1.751  10.933  18.301  0.00  0.00    +0.000 C 
ATOM      6  C   UNL     1       1.831  12.423  18.563  0.00  0.00    +0.000 C 
ATOM      7  C   UNL     1       0.369  12.832  18.707  0.00  0.00    +0.000 C 
ATOM      8  C   UNL     1      -0.333  11.584  19.289  0.00  0.00    +0.000 C 
ATOM      9  H   UNL     1       2.579   9.099  19.828  0.00  0.00    +0.000 HD
ENDROOT
BRANCH   8  10
ATOM     10  C   UNL     1      -1.655  11.314  18.592  0.00  0.00    +0.000 A 
ATOM     11  C   UNL     1      -2.848  11.932  18.987  0.00  0.00    +0.000 A 
ATOM     12  C   UNL     1      -4.033  11.577  18.358  0.00  0.00    +0.000 A 
ATOM     13  N   UNL     1      -4.115  10.666  17.367  0.00  0.00    +0.000 NA
ATOM     14  C   UNL     1      -2.955  10.097  16.979  0.00  0.00    +0.000 A 
ATOM     15  C   UNL     1      -1.722  10.380  17.553  0.00  0.00    +0.000 A 
ENDBRANCH   8  10
BRANCH   3  16
ATOM     16  C   UNL     1       1.818   7.468  20.841  0.00  0.00    +0.000 C 
BRANCH  16  17
ATOM     17  C   UNL     1       1.927   6.195  20.040  0.00  0.00    +0.000 A 
ATOM     18  C   UNL     1       2.444   6.245  18.724  0.00  0.00    +0.000 A 
ATOM     19  C   UNL     1       2.567   5.088  17.950  0.00  0.00    +0.000 A 
ATOM     20  C   UNL     1       2.177   3.894  18.516  0.00  0.00    +0.000 A 
ATOM     21  C   UNL     1       1.693   3.827  19.801  0.00  0.00    +0.000 A 
ATOM     22  C   UNL     1       1.560   4.952  20.588  0.00  0.00    +0.000 A 
ATOM     23  O   UNL     1       1.373   2.556  20.166  0.00  0.00    +0.000 OA
ATOM     24  C   UNL     1       1.678   1.838  18.951  0.00  0.00    +0.000 C 
ATOM     25  O   UNL     1       2.220   2.678  17.910  0.00  0.00    +0.000 OA
ENDBRANCH  16  17
ENDBRANCH   3  16
TORSDOF 3
ENDMDL
MODEL 6
REMARK VINA RESULT:      -7.2      2.742      8.181
REMARK  Name = 
REMARK  3 active torsions:
REMARK  status: ('A' for Active; 'I' for Inactive)
REMARK    1  A    between atoms: N_3  and  C_4
REMARK    2  A    between atoms: C_4  and  C_5
REMARK    3  A    between atoms: C_18  and  C_19
REMARK                            x       y       z     vdW  Elec       q    Type
REMARK                         _______ _______ _______ _____ _____    ______ ____
ROOT
ATOM      1  O   UNL     1       1.614   9.495  17.485  0.00  0.00    +0.000 OA
ATOM      2  C   UNL     1       1.796   8.972  18.581  0.00  0.00    +0.000 C 
ATOM      3  N   UNL     1       2.651   7.915  18.750  0.00  0.00    +0.000 N 
ATOM      4  N   UNL     1       1.139   9.379  19.721  0.00  0.00    +0.000 N 
ATOM      5  C   UNL     1       1.251   8.832  21.064  0.00  0.00    +0.000 C 
ATOM      6  C   UNL     1      -0.191   8.765  21.525  0.00  0.00    +0.000 C 
ATOM      7  C   UNL     1      -0.806  10.029  20.934  0.00  0.00    +0.000 C 
ATOM      8  C   UNL     1      -0.011  10.282  19.633  0.00  0.00    +0.000 C 
ATOM      9  H   UNL     1       2.380   7.249  19.451  0.00  0.00    +0.000 HD
ENDROOT
BRANCH   8  10
ATOM     10  C   UNL     1       0.352  11.748  19.478  0.00  0.00    +0.000 A 
ATOM     11  C   UNL     1       1.394  12.341  20.202  0.00  0.00    +0.000 A 
ATOM     12  C   UNL     1       1.617  13.704  20.070  0.00  0.00    +0.000 A 
ATOM     13  N   UNL     1       0.892  14.512  19.270  0.00  0.00    +0.000 NA
ATOM     14  C   UNL     1      -0.092  13.923  18.559  0.00  0.00    +0.000 A 
ATOM     15  C   UNL     1      -0.398  12.570  18.630  0.00  0.00    +0.000 A 
ENDBRANCH   8  10
BRANCH   3  16
ATOM     16  C   UNL     1       3.334   7.325  17.622  0.00  0.00    +0.000 C 
BRANCH  16  17
ATOM     17  C   UNL     1       3.292   5.820  17.704  0.00  0.00    +0.000 A 
ATOM     18  C   UNL     1       4.313   5.062  17.083  0.00  0.00    +0.000 A 
ATOM     19  C   UNL     1       4.314   3.666  17.139  0.00  0.00    +0.000 A 
ATOM     20  C   UNL     1       3.293   3.051  17.830  0.00  0.00    +0.000 A 
ATOM     21  C   UNL     1       2.306   3.775  18.456  0.00  0.00    +0.000 A 
ATOM     22  C   UNL     1       2.278   5.154  18.417  0.00  0.00    +0.000 A 
ATOM     23  O   UNL     1       1.401   2.977  19.085  0.00  0.00    +0.000 OA
ATOM     24  C   UNL     1       1.913   1.669  18.750  0.00  0.00    +0.000 C 
ATOM     25  O   UNL     1       3.132   1.710  17.981  0.00  0.00    +0.000 OA
ENDBRANCH  16  17
ENDBRANCH   3  16
TORSDOF 3
ENDMDL
MODEL 7
REMARK VINA RESULT:      -7.2      2.736      8.378
REMARK  Name = 
REMARK  3 active torsions:
REMARK  status: ('A' for Active; 'I' for Inactive)
REMARK    1  A    between atoms: N_3  and  C_4
REMARK    2  A    between atoms: C_4  and  C_5
REMARK    3  A    between atoms: C_18  and  C_19
REMARK                            x       y       z     vdW  Elec       q    Type
REMARK                         _______ _______ _______ _____ _____    ______ ____
ROOT
ATOM      1  O   UNL     1       1.401   9.570  17.538  0.00  0.00    +0.000 OA
ATOM      2  C   UNL     1       1.578   9.139  18.674  0.00  0.00    +0.000 C 
ATOM      3  N   UNL     1       2.343   8.030  18.922  0.00  0.00    +0.000 N 
ATOM      4  N   UNL     1       1.003   9.711  19.788  0.00  0.00    +0.000 N 
ATOM      5  C   UNL     1       1.117   9.286  21.174  0.00  0.00    +0.000 C 
ATOM      6  C   UNL     1      -0.307   9.394  21.681  0.00  0.00    +0.000 C 
ATOM      7  C   UNL     1      -0.831  10.647  20.987  0.00  0.00    +0.000 C 
ATOM      8  C   UNL     1      -0.067  10.701  19.645  0.00  0.00    +0.000 C 
ATOM      9  H   UNL     1       2.042   7.461  19.692  0.00  0.00    +0.000 HD
ENDROOT
BRANCH   8  10
ATOM     10  C   UNL     1       0.416  12.107  19.336  0.00  0.00    +0.000 A 
ATOM     11  C   UNL     1       1.728  12.522  19.600  0.00  0.00    +0.000 A 
ATOM     12  C   UNL     1       2.077  13.845  19.367  0.00  0.00    +0.000 A 
ATOM     13  N   UNL     1       1.227  14.775  18.887  0.00  0.00    +0.000 NA
ATOM     14  C   UNL     1      -0.026  14.355  18.613  0.00  0.00    +0.000 A 
ATOM     15  C   UNL     1      -0.472  13.057  18.820  0.00  0.00    +0.000 A 
ENDBRANCH   8  10
BRANCH   3  16
ATOM     16  C   UNL     1       2.930   7.277  17.837  0.00  0.00    +0.000 C 
BRANCH  16  17
ATOM     17  C   UNL     1       2.973   5.807  18.175  0.00  0.00    +0.000 A 
ATOM     18  C   UNL     1       1.881   4.981  17.820  0.00  0.00    +0.000 A 
ATOM     19  C   UNL     1       1.883   3.614  18.110  0.00  0.00    +0.000 A 
ATOM     20  C   UNL     1       2.990   3.095  18.745  0.00  0.00    +0.000 A 
ATOM     21  C   UNL     1       4.068   3.882  19.076  0.00  0.00    +0.000 A 
ATOM     22  C   UNL     1       4.094   5.234  18.803  0.00  0.00    +0.000 A 
ATOM     23  O   UNL     1       5.055   3.173  19.688  0.00  0.00    +0.000 OA
ATOM     24  C   UNL     1       4.458   1.859  19.735  0.00  0.00    +0.000 C 
ATOM     25  O   UNL     1       3.160   1.796  19.108  0.00  0.00    +0.000 OA
ENDBRANCH  16  17
ENDBRANCH   3  16
TORSDOF 3
ENDMDL
MODEL 8
REMARK VINA RESULT:      -7.2      3.213      8.435
REMARK  Name = 
REMARK  3 active torsions:
REMARK  status: ('A' for Active; 'I' for Inactive)
REMARK    1  A    between atoms: N_3  and  C_4
REMARK    2  A    between atoms: C_4  and  C_5
REMARK    3  A    between atoms: C_18  and  C_19
REMARK                            x       y       z     vdW  Elec       q    Type
REMARK                         _______ _______ _______ _____ _____    ______ ____
ROOT
ATOM      1  O   UNL     1       0.656   9.715  18.712  0.00  0.00    +0.000 OA
ATOM      2  C   UNL     1       1.049   9.357  19.819  0.00  0.00    +0.000 C 
ATOM      3  N   UNL     1       1.880   8.280  19.983  0.00  0.00    +0.000 N 
ATOM      4  N   UNL     1       0.668   9.982  20.985  0.00  0.00    +0.000 N 
ATOM      5  C   UNL     1       1.044   9.643  22.348  0.00  0.00    +0.000 C 
ATOM      6  C   UNL     1      -0.267   9.754  23.100  0.00  0.00    +0.000 C 
ATOM      7  C   UNL     1      -0.946  10.952  22.445  0.00  0.00    +0.000 C 
ATOM      8  C   UNL     1      -0.439  10.941  20.985  0.00  0.00    +0.000 C 
ATOM      9  H   UNL     1       1.741   7.752  20.826  0.00  0.00    +0.000 HD
ENDROOT
BRANCH   8  10
ATOM     10  C   UNL     1      -0.063  12.335  20.517  0.00  0.00    +0.000 A 
ATOM     11  C   UNL     1      -0.909  13.106  19.710  0.00  0.00    +0.000 A 
ATOM     12  C   UNL     1      -0.467  14.340  19.253  0.00  0.00    +0.000 A 
ATOM     13  N   UNL     1       0.742  14.861  19.544  0.00  0.00    +0.000 NA
ATOM     14  C   UNL     1       1.536  14.120  20.343  0.00  0.00    +0.000 A 
ATOM     15  C   UNL     1       1.187  12.872  20.843  0.00  0.00    +0.000 A 
ENDBRANCH   8  10
BRANCH   3  16
ATOM     16  C   UNL     1       2.283   7.474  18.853  0.00  0.00    +0.000 C 
BRANCH  16  17
ATOM     17  C   UNL     1       2.160   6.006  19.177  0.00  0.00    +0.000 A 
ATOM     18  C   UNL     1       2.031   5.071  18.124  0.00  0.00    +0.000 A 
ATOM     19  C   UNL     1       1.919   3.702  18.380  0.00  0.00    +0.000 A 
ATOM     20  C   UNL     1       1.950   3.292  19.695  0.00  0.00    +0.000 A 
ATOM     21  C   UNL     1       2.097   4.187  20.728  0.00  0.00    +0.000 A 
ATOM     22  C   UNL     1       2.208   5.544  20.505  0.00  0.00    +0.000 A 
ATOM     23  O   UNL     1       2.109   3.575  21.943  0.00  0.00    +0.000 OA
ATOM     24  C   UNL     1       1.918   2.197  21.556  0.00  0.00    +0.000 C 
ATOM     25  O   UNL     1       1.849   2.007  20.128  0.00  0.00    +0.000 OA
ENDBRANCH  16  17
ENDBRANCH   3  16
TORSDOF 3
ENDMDL
MODEL 9
REMARK VINA RESULT:      -7.2      2.981      8.210
REMARK  Name = 
REMARK  3 active torsions:
REMARK  status: ('A' for Active; 'I' for Inactive)
REMARK    1  A    between atoms: N_3  and  C_4
REMARK    2  A    between atoms: C_4  and  C_5
REMARK    3  A    between atoms: C_18  and  C_19
REMARK                            x       y       z     vdW  Elec       q    Type
REMARK                         _______ _______ _______ _____ _____    ______ ____
ROOT
ATOM      1  O   UNL     1       2.201   9.929  17.442  0.00  0.00    +0.000 OA
ATOM      2  C   UNL     1       1.917   9.362  18.494  0.00  0.00    +0.000 C 
ATOM      3  N   UNL     1       2.272   8.062  18.739  0.00  0.00    +0.000 N 
ATOM      4  N   UNL     1       1.199   9.970  19.501  0.00  0.00    +0.000 N 
ATOM      5  C   UNL     1       0.786   9.404  20.774  0.00  0.00    +0.000 C 
ATOM      6  C   UNL     1      -0.650   9.871  20.904  0.00  0.00    +0.000 C 
ATOM      7  C   UNL     1      -0.614  11.280  20.322  0.00  0.00    +0.000 C 
ATOM      8  C   UNL     1       0.504  11.235  19.255  0.00  0.00    +0.000 C 
ATOM      9  H   UNL     1       1.623   7.535  19.295  0.00  0.00    +0.000 HD
ENDROOT
BRANCH   8  10
ATOM     10  C   UNL     1       1.392  12.464  19.328  0.00  0.00    +0.000 A 
ATOM     11  C   UNL     1       1.729  13.212  18.192  0.00  0.00    +0.000 A 
ATOM     12  C   UNL     1       2.610  14.277  18.321  0.00  0.00    +0.000 A 
ATOM     13  N   UNL     1       3.170  14.653  19.489  0.00  0.00    +0.000 NA
ATOM     14  C   UNL     1       2.817  13.941  20.579  0.00  0.00    +0.000 A 
ATOM     15  C   UNL     1       1.951  12.856  20.550  0.00  0.00    +0.000 A 
ENDBRANCH   8  10
BRANCH   3  16
ATOM     16  C   UNL     1       2.946   7.274  17.732  0.00  0.00    +0.000 C 
BRANCH  16  17
ATOM     17  C   UNL     1       2.978   5.819  18.130  0.00  0.00    +0.000 A 
ATOM     18  C   UNL     1       1.860   4.999  17.849  0.00  0.00    +0.000 A 
ATOM     19  C   UNL     1       1.850   3.646  18.196  0.00  0.00    +0.000 A 
ATOM     20  C   UNL     1       2.971   3.133  18.812  0.00  0.00    +0.000 A 
ATOM     21  C   UNL     1       4.073   3.913  19.071  0.00  0.00    +0.000 A 
ATOM     22  C   UNL     1       4.111   5.253  18.741  0.00  0.00    +0.000 A 
ATOM     23  O   UNL     1       5.070   3.213  19.676  0.00  0.00    +0.000 OA
ATOM     24  C   UNL     1       4.454   1.913  19.799  0.00  0.00    +0.000 C 
ATOM     25  O   UNL     1       3.133   1.848  19.222  0.00  0.00    +0.000 OA
ENDBRANCH  16  17
ENDBRANCH   3  16
TORSDOF 3
ENDMDL
