MODEL 1
REMARK VINA RESULT:      -7.9      0.000      0.000
REMARK  Name = 
REMARK  8 active torsions:
REMARK  status: ('A' for Active; 'I' for Inactive)
REMARK    1  A    between atoms: O_1  and  C_2
REMARK    2  A    between atoms: C_2  and  C_3
REMARK    3  A    between atoms: C_2  and  C_20
REMARK    4  A    between atoms: C_3  and  O_4
REMARK    5  A    between atoms: O_4  and  C_5
REMARK    6  A    between atoms: C_5  and  C_6
REMARK    7  A    between atoms: C_5  and  C_13
REMARK    8  A    between atoms: C_20  and  N_21
REMARK                            x       y       z     vdW  Elec       q    Type
REMARK                         _______ _______ _______ _____ _____    ______ ____
ROOT
ATOM      1  C   UNL     1       2.474   8.464  18.469  0.00  0.00    +0.000 C 
ENDROOT
BRANCH   1   2
ATOM      2  C   UNL     1       1.441   9.445  17.871  0.00  0.00    +0.000 C 
BRANCH   2   3
ATOM      3  O   UNL     1       2.142  10.549  17.290  0.00  0.00    +0.000 OA
ATOM      4  H   UNL     1       3.095  10.397  17.414  0.00  0.00    +0.000 HD
ENDBRANCH   2   3
BRANCH   2   5
ATOM      5  C   UNL     1       0.464   9.935  18.973  0.00  0.00    +0.000 C 
BRANCH   5   6
ATOM      6  N   UNL     1       0.781  11.214  19.652  0.00  0.00    +0.000 NA
ATOM      7  C   UNL     1      -0.152  12.319  19.346  0.00  0.00    +0.000 C 
ATOM      8  C   UNL     1      -1.598  12.058  19.806  0.00  0.00    +0.000 C 
ATOM      9  N   UNL     1      -1.678  11.702  21.226  0.00  0.00    +0.000 N 
ATOM     10  C   UNL     1      -2.252  12.634  22.078  0.00  0.00    +0.000 A 
ATOM     11  C   UNL     1      -2.837  12.215  23.276  0.00  0.00    +0.000 A 
ATOM     12  C   UNL     1      -3.529  13.131  24.071  0.00  0.00    +0.000 A 
ATOM     13  C   UNL     1      -3.608  14.452  23.667  0.00  0.00    +0.000 A 
ATOM     14  C   UNL     1      -2.989  14.800  22.482  0.00  0.00    +0.000 A 
ATOM     15  N   UNL     1      -2.331  13.924  21.689  0.00  0.00    +0.000 NA
ATOM     16  C   UNL     1      -0.647  10.792  21.755  0.00  0.00    +0.000 C 
ATOM     17  C   UNL     1       0.755  11.031  21.127  0.00  0.00    +0.000 C 
ENDBRANCH   5   6
ENDBRANCH   2   5
ENDBRANCH   1   2
BRANCH   1  18
ATOM     18  O   UNL     1       2.523   7.168  17.873  0.00  0.00    +0.000 OA
BRANCH  18  19
ATOM     19  C   UNL     1       3.533   6.276  18.367  0.00  0.00    +0.000 C 
BRANCH  19  20
ATOM     20  C   UNL     1       2.974   5.240  19.330  0.00  0.00    +0.000 A 
ATOM     21  C   UNL     1       3.800   4.283  19.939  0.00  0.00    +0.000 A 
ATOM     22  C   UNL     1       3.262   3.328  20.807  0.00  0.00    +0.000 A 
ATOM     23  C   UNL     1       1.893   3.318  21.064  0.00  0.00    +0.000 A 
ATOM     24 CL   UNL     1       1.230   2.140  22.127  0.00  0.00    +0.000 Cl
ATOM     25  C   UNL     1       1.057   4.255  20.462  0.00  0.00    +0.000 A 
ATOM     26  C   UNL     1       1.595   5.214  19.602  0.00  0.00    +0.000 A 
ENDBRANCH  19  20
BRANCH  19  27
ATOM     27  C   UNL     1       4.276   5.662  17.185  0.00  0.00    +0.000 A 
ATOM     28  C   UNL     1       4.932   6.499  16.266  0.00  0.00    +0.000 A 
ATOM     29  C   UNL     1       5.581   5.964  15.150  0.00  0.00    +0.000 A 
ATOM     30  C   UNL     1       5.589   4.585  14.949  0.00  0.00    +0.000 A 
ATOM     31 CL   UNL     1       6.361   3.929  13.559  0.00  0.00    +0.000 Cl
ATOM     32  C   UNL     1       4.967   3.737  15.861  0.00  0.00    +0.000 A 
ATOM     33  C   UNL     1       4.316   4.273  16.975  0.00  0.00    +0.000 A 
ENDBRANCH  19  27
ENDBRANCH  18  19
ENDBRANCH   1  18
TORSDOF 8
ENDMDL
MODEL 2
REMARK VINA RESULT:      -7.8      1.154      4.339
REMARK  Name = 
REMARK  8 active torsions:
REMARK  status: ('A' for Active; 'I' for Inactive)
REMARK    1  A    between atoms: O_1  and  C_2
REMARK    2  A    between atoms: C_2  and  C_3
REMARK    3  A    between atoms: C_2  and  C_20
REMARK    4  A    between atoms: C_3  and  O_4
REMARK    5  A    between atoms: O_4  and  C_5
REMARK    6  A    between atoms: C_5  and  C_6
REMARK    7  A    between atoms: C_5  and  C_13
REMARK    8  A    between atoms: C_20  and  N_21
REMARK                            x       y       z     vdW  Elec       q    Type
REMARK                         _______ _______ _______ _____ _____    ______ ____
ROOT
ATOM      1  C   UNL     1       1.469   8.326  19.004  0.00  0.00    +0.000 C 
ENDROOT
BRANCH   1   2
ATOM      2  C   UNL     1       1.243   9.563  18.108  0.00  0.00    +0.000 C 
BRANCH   2   3
ATOM      3  O   UNL     1       2.379   9.723  17.252  0.00  0.00    +0.000 OA
ATOM      4  H   UNL     1       3.159   9.379  17.723  0.00  0.00    +0.000 HD
ENDBRANCH   2   3
BRANCH   2   5
ATOM      5  C   UNL     1       1.033  10.829  18.981  0.00  0.00    +0.000 C 
BRANCH   5   6
ATOM      6  N   UNL     1      -0.325  11.425  19.010  0.00  0.00    +0.000 NA
ATOM      7  C   UNL     1      -1.229  10.844  20.024  0.00  0.00    +0.000 C 
ATOM      8  C   UNL     1      -0.754  11.051  21.474  0.00  0.00    +0.000 C 
ATOM      9  N   UNL     1      -0.485  12.459  21.778  0.00  0.00    +0.000 N 
ATOM     10  C   UNL     1      -1.359  13.094  22.649  0.00  0.00    +0.000 A 
ATOM     11  C   UNL     1      -0.927  14.198  23.388  0.00  0.00    +0.000 A 
ATOM     12  C   UNL     1      -1.761  14.757  24.359  0.00  0.00    +0.000 A 
ATOM     13  C   UNL     1      -3.018  14.216  24.561  0.00  0.00    +0.000 A 
ATOM     14  C   UNL     1      -3.387  13.139  23.781  0.00  0.00    +0.000 A 
ATOM     15  N   UNL     1      -2.588  12.571  22.849  0.00  0.00    +0.000 NA
ATOM     16  C   UNL     1       0.196  13.258  20.744  0.00  0.00    +0.000 C 
ATOM     17  C   UNL     1      -0.238  12.880  19.300  0.00  0.00    +0.000 C 
ENDBRANCH   5   6
ENDBRANCH   2   5
ENDBRANCH   1   2
BRANCH   1  18
ATOM     18  O   UNL     1       2.667   7.588  18.762  0.00  0.00    +0.000 OA
BRANCH  18  19
ATOM     19  C   UNL     1       2.513   6.312  18.126  0.00  0.00    +0.000 C 
BRANCH  19  20
ATOM     20  C   UNL     1       3.735   5.919  17.309  0.00  0.00    +0.000 A 
ATOM     21  C   UNL     1       4.642   6.880  16.838  0.00  0.00    +0.000 A 
ATOM     22  C   UNL     1       5.749   6.499  16.073  0.00  0.00    +0.000 A 
ATOM     23  C   UNL     1       5.950   5.154  15.767  0.00  0.00    +0.000 A 
ATOM     24 CL   UNL     1       7.308   4.685  14.821  0.00  0.00    +0.000 Cl
ATOM     25  C   UNL     1       5.055   4.188  16.219  0.00  0.00    +0.000 A 
ATOM     26  C   UNL     1       3.955   4.567  16.990  0.00  0.00    +0.000 A 
ENDBRANCH  19  20
BRANCH  19  27
ATOM     27  C   UNL     1       2.131   5.275  19.176  0.00  0.00    +0.000 A 
ATOM     28  C   UNL     1       2.704   5.339  20.458  0.00  0.00    +0.000 A 
ATOM     29  C   UNL     1       2.405   4.374  21.423  0.00  0.00    +0.000 A 
ATOM     30  C   UNL     1       1.521   3.341  21.119  0.00  0.00    +0.000 A 
ATOM     31 CL   UNL     1       1.177   2.137  22.298  0.00  0.00    +0.000 Cl
ATOM     32  C   UNL     1       0.922   3.274  19.864  0.00  0.00    +0.000 A 
ATOM     33  C   UNL     1       1.224   4.237  18.898  0.00  0.00    +0.000 A 
ENDBRANCH  19  27
ENDBRANCH  18  19
ENDBRANCH   1  18
TORSDOF 8
ENDMDL
MODEL 3
REMARK VINA RESULT:      -7.8      2.680      5.086
REMARK  Name = 
REMARK  8 active torsions:
REMARK  status: ('A' for Active; 'I' for Inactive)
REMARK    1  A    between atoms: O_1  and  C_2
REMARK    2  A    between atoms: C_2  and  C_3
REMARK    3  A    between atoms: C_2  and  C_20
REMARK    4  A    between atoms: C_3  and  O_4
REMARK    5  A    between atoms: O_4  and  C_5
REMARK    6  A    between atoms: C_5  and  C_6
REMARK    7  A    between atoms: C_5  and  C_13
REMARK    8  A    between atoms: C_20  and  N_21
REMARK                            x       y       z     vdW  Elec       q    Type
REMARK                         _______ _______ _______ _____ _____    ______ ____
ROOT
ATOM      1  C   UNL     1       1.502   8.456  17.894  0.00  0.00    +0.000 C 
ENDROOT
BRANCH   1   2
ATOM      2  C   UNL     1       1.011   9.650  18.742  0.00  0.00    +0.000 C 
BRANCH   2   3
ATOM      3  O   UNL     1       1.355   9.411  20.111  0.00  0.00    +0.000 OA
ATOM      4  H   UNL     1       1.505  10.274  20.536  0.00  0.00    +0.000 HD
ENDBRANCH   2   3
BRANCH   2   5
ATOM      5  C   UNL     1      -0.523   9.828  18.584  0.00  0.00    +0.000 C 
BRANCH   5   6
ATOM      6  N   UNL     1      -0.999  10.900  17.676  0.00  0.00    +0.000 NA
ATOM      7  C   UNL     1      -2.208  10.553  16.900  0.00  0.00    +0.000 C 
ATOM      8  C   UNL     1      -3.451  10.287  17.767  0.00  0.00    +0.000 C 
ATOM      9  N   UNL     1      -3.737  11.391  18.689  0.00  0.00    +0.000 N 
ATOM     10  C   UNL     1      -4.868  12.151  18.430  0.00  0.00    +0.000 A 
ATOM     11  C   UNL     1      -5.499  12.838  19.470  0.00  0.00    +0.000 A 
ATOM     12  C   UNL     1      -6.709  13.496  19.238  0.00  0.00    +0.000 A 
ATOM     13  C   UNL     1      -7.256  13.475  17.967  0.00  0.00    +0.000 A 
ATOM     14  C   UNL     1      -6.568  12.794  16.983  0.00  0.00    +0.000 A 
ATOM     15  N   UNL     1      -5.405  12.135  17.191  0.00  0.00    +0.000 NA
ATOM     16  C   UNL     1      -2.590  12.025  19.362  0.00  0.00    +0.000 C 
ATOM     17  C   UNL     1      -1.330  12.121  18.457  0.00  0.00    +0.000 C 
ENDBRANCH   5   6
ENDBRANCH   2   5
ENDBRANCH   1   2
BRANCH   1  18
ATOM     18  O   UNL     1       2.334   7.511  18.565  0.00  0.00    +0.000 OA
BRANCH  18  19
ATOM     19  C   UNL     1       2.385   6.192  18.003  0.00  0.00    +0.000 C 
BRANCH  19  20
ATOM     20  C   UNL     1       3.709   5.904  17.314  0.00  0.00    +0.000 A 
ATOM     21  C   UNL     1       4.661   6.914  17.103  0.00  0.00    +0.000 A 
ATOM     22  C   UNL     1       5.866   6.631  16.451  0.00  0.00    +0.000 A 
ATOM     23  C   UNL     1       6.121   5.339  15.997  0.00  0.00    +0.000 A 
ATOM     24 CL   UNL     1       7.600   4.992  15.189  0.00  0.00    +0.000 Cl
ATOM     25  C   UNL     1       5.185   4.327  16.189  0.00  0.00    +0.000 A 
ATOM     26  C   UNL     1       3.986   4.606  16.848  0.00  0.00    +0.000 A 
ENDBRANCH  19  20
BRANCH  19  27
ATOM     27  C   UNL     1       2.034   5.176  19.085  0.00  0.00    +0.000 A 
ATOM     28  C   UNL     1       2.528   5.352  20.390  0.00  0.00    +0.000 A 
ATOM     29  C   UNL     1       2.260   4.412  21.388  0.00  0.00    +0.000 A 
ATOM     30  C   UNL     1       1.485   3.292  21.093  0.00  0.00    +0.000 A 
ATOM     31 CL   UNL     1       1.181   2.119  22.314  0.00  0.00    +0.000 Cl
ATOM     32  C   UNL     1       0.965   3.112  19.814  0.00  0.00    +0.000 A 
ATOM     33  C   UNL     1       1.236   4.051  18.816  0.00  0.00    +0.000 A 
ENDBRANCH  19  27
ENDBRANCH  18  19
ENDBRANCH   1  18
TORSDOF 8
ENDMDL
MODEL 4
REMARK VINA RESULT:      -7.8      2.207      4.905
REMARK  Name = 
REMARK  8 active torsions:
REMARK  status: ('A' for Active; 'I' for Inactive)
REMARK    1  A    between atoms: O_1  and  C_2
REMARK    2  A    between atoms: C_2  and  C_3
REMARK    3  A    between atoms: C_2  and  C_20
REMARK    4  A    between atoms: C_3  and  O_4
REMARK    5  A    between atoms: O_4  and  C_5
REMARK    6  A    between atoms: C_5  and  C_6
REMARK    7  A    between atoms: C_5  and  C_13
REMARK    8  A    between atoms: C_20  and  N_21
REMARK                            x       y       z     vdW  Elec       q    Type
REMARK                         _______ _______ _______ _____ _____    ______ ____
ROOT
ATOM      1  C   UNL     1       1.747   8.375  19.164  0.00  0.00    +0.000 C 
ENDROOT
BRANCH   1   2
ATOM      2  C   UNL     1       1.201   9.327  18.077  0.00  0.00    +0.000 C 
BRANCH   2   3
ATOM      3  O   UNL     1       2.291   9.758  17.256  0.00  0.00    +0.000 OA
ATOM      4  H   UNL     1       2.019  10.575  16.803  0.00  0.00    +0.000 HD
ENDBRANCH   2   3
BRANCH   2   5
ATOM      5  C   UNL     1       0.495  10.544  18.733  0.00  0.00    +0.000 C 
BRANCH   5   6
ATOM      6  N   UNL     1      -0.629  10.267  19.661  0.00  0.00    +0.000 NA
ATOM      7  C   UNL     1      -1.258  11.472  20.240  0.00  0.00    +0.000 C 
ATOM      8  C   UNL     1      -1.918  12.393  19.198  0.00  0.00    +0.000 C 
ATOM      9  N   UNL     1      -2.874  11.678  18.347  0.00  0.00    +0.000 N 
ATOM     10  C   UNL     1      -4.218  11.975  18.521  0.00  0.00    +0.000 A 
ATOM     11  C   UNL     1      -5.118  11.776  17.471  0.00  0.00    +0.000 A 
ATOM     12  C   UNL     1      -6.444  12.195  17.600  0.00  0.00    +0.000 A 
ATOM     13  C   UNL     1      -6.852  12.787  18.782  0.00  0.00    +0.000 A 
ATOM     14  C   UNL     1      -5.915  12.935  19.784  0.00  0.00    +0.000 A 
ATOM     15  N   UNL     1      -4.622  12.553  19.672  0.00  0.00    +0.000 NA
ATOM     16  C   UNL     1      -2.496  10.330  17.886  0.00  0.00    +0.000 C 
ATOM     17  C   UNL     1      -1.704   9.523  18.954  0.00  0.00    +0.000 C 
ENDBRANCH   5   6
ENDBRANCH   2   5
ENDBRANCH   1   2
BRANCH   1  18
ATOM     18  O   UNL     1       2.874   7.582  18.793  0.00  0.00    +0.000 OA
BRANCH  18  19
ATOM     19  C   UNL     1       2.591   6.345  18.124  0.00  0.00    +0.000 C 
BRANCH  19  20
ATOM     20  C   UNL     1       3.737   5.891  17.232  0.00  0.00    +0.000 A 
ATOM     21  C   UNL     1       4.051   4.532  17.076  0.00  0.00    +0.000 A 
ATOM     22  C   UNL     1       5.120   4.138  16.265  0.00  0.00    +0.000 A 
ATOM     23  C   UNL     1       5.888   5.102  15.613  0.00  0.00    +0.000 A 
ATOM     24 CL   UNL     1       7.206   4.617  14.621  0.00  0.00    +0.000 Cl
ATOM     25  C   UNL     1       5.596   6.454  15.764  0.00  0.00    +0.000 A 
ATOM     26  C   UNL     1       4.523   6.848  16.566  0.00  0.00    +0.000 A 
ENDBRANCH  19  20
BRANCH  19  27
ATOM     27  C   UNL     1       2.184   5.301  19.159  0.00  0.00    +0.000 A 
ATOM     28  C   UNL     1       2.742   5.346  20.449  0.00  0.00    +0.000 A 
ATOM     29  C   UNL     1       2.421   4.375  21.401  0.00  0.00    +0.000 A 
ATOM     30  C   UNL     1       1.528   3.356  21.075  0.00  0.00    +0.000 A 
ATOM     31 CL   UNL     1       1.156   2.144  22.237  0.00  0.00    +0.000 Cl
ATOM     32  C   UNL     1       0.944   3.308  19.813  0.00  0.00    +0.000 A 
ATOM     33  C   UNL     1       1.269   4.277  18.860  0.00  0.00    +0.000 A 
ENDBRANCH  19  27
ENDBRANCH  18  19
ENDBRANCH   1  18
TORSDOF 8
ENDMDL
MODEL 5
REMARK VINA RESULT:      -7.8      1.085      4.232
REMARK  Name = 
REMARK  8 active torsions:
REMARK  status: ('A' for Active; 'I' for Inactive)
REMARK    1  A    between atoms: O_1  and  C_2
REMARK    2  A    between atoms: C_2  and  C_3
REMARK    3  A    between atoms: C_2  and  C_20
REMARK    4  A    between atoms: C_3  and  O_4
REMARK    5  A    between atoms: O_4  and  C_5
REMARK    6  A    between atoms: C_5  and  C_6
REMARK    7  A    between atoms: C_5  and  C_13
REMARK    8  A    between atoms: C_20  and  N_21
REMARK                            x       y       z     vdW  Elec       q    Type
REMARK                         _______ _______ _______ _____ _____    ______ ____
ROOT
ATOM      1  C   UNL     1       1.839   8.508  18.315  0.00  0.00    +0.000 C 
ENDROOT
BRANCH   1   2
ATOM      2  C   UNL     1       1.364   9.479  19.418  0.00  0.00    +0.000 C 
BRANCH   2   3
ATOM      3  O   UNL     1       0.962   8.714  20.559  0.00  0.00    +0.000 OA
ATOM      4  H   UNL     1       1.764   8.347  20.970  0.00  0.00    +0.000 HD
ENDBRANCH   2   3
BRANCH   2   5
ATOM      5  C   UNL     1       0.188  10.349  18.899  0.00  0.00    +0.000 C 
BRANCH   5   6
ATOM      6  N   UNL     1       0.230  11.803  19.190  0.00  0.00    +0.000 NA
ATOM      7  C   UNL     1      -1.025  12.524  18.891  0.00  0.00    +0.000 C 
ATOM      8  C   UNL     1      -2.226  12.060  19.734  0.00  0.00    +0.000 C 
ATOM      9  N   UNL     1      -1.948  12.096  21.173  0.00  0.00    +0.000 N 
ATOM     10  C   UNL     1      -2.611  13.059  21.919  0.00  0.00    +0.000 A 
ATOM     11  C   UNL     1      -2.828  12.856  23.284  0.00  0.00    +0.000 A 
ATOM     12  C   UNL     1      -3.607  13.760  24.009  0.00  0.00    +0.000 A 
ATOM     13  C   UNL     1      -4.139  14.862  23.363  0.00  0.00    +0.000 A 
ATOM     14  C   UNL     1      -3.868  15.011  22.017  0.00  0.00    +0.000 A 
ATOM     15  N   UNL     1      -3.132  14.137  21.294  0.00  0.00    +0.000 NA
ATOM     16  C   UNL     1      -0.619  11.640  21.617  0.00  0.00    +0.000 C 
ATOM     17  C   UNL     1       0.518  12.027  20.630  0.00  0.00    +0.000 C 
ENDBRANCH   5   6
ENDBRANCH   2   5
ENDBRANCH   1   2
BRANCH   1  18
ATOM     18  O   UNL     1       2.711   7.459  18.737  0.00  0.00    +0.000 OA
BRANCH  18  19
ATOM     19  C   UNL     1       2.536   6.187  18.097  0.00  0.00    +0.000 C 
BRANCH  19  20
ATOM     20  C   UNL     1       3.747   5.780  17.273  0.00  0.00    +0.000 A 
ATOM     21  C   UNL     1       4.660   6.730  16.791  0.00  0.00    +0.000 A 
ATOM     22  C   UNL     1       5.758   6.335  16.020  0.00  0.00    +0.000 A 
ATOM     23  C   UNL     1       5.943   4.988  15.716  0.00  0.00    +0.000 A 
ATOM     24 CL   UNL     1       7.289   4.503  14.762  0.00  0.00    +0.000 Cl
ATOM     25  C   UNL     1       5.042   4.032  16.178  0.00  0.00    +0.000 A 
ATOM     26  C   UNL     1       3.951   4.425  16.956  0.00  0.00    +0.000 A 
ENDBRANCH  19  20
BRANCH  19  27
ATOM     27  C   UNL     1       2.144   5.152  19.146  0.00  0.00    +0.000 A 
ATOM     28  C   UNL     1       2.597   5.297  20.469  0.00  0.00    +0.000 A 
ATOM     29  C   UNL     1       2.290   4.338  21.438  0.00  0.00    +0.000 A 
ATOM     30  C   UNL     1       1.517   3.231  21.096  0.00  0.00    +0.000 A 
ATOM     31 CL   UNL     1       1.166   2.035  22.282  0.00  0.00    +0.000 Cl
ATOM     32  C   UNL     1       1.037   3.082  19.798  0.00  0.00    +0.000 A 
ATOM     33  C   UNL     1       1.347   4.039  18.828  0.00  0.00    +0.000 A 
ENDBRANCH  19  27
ENDBRANCH  18  19
ENDBRANCH   1  18
TORSDOF 8
ENDMDL
MODEL 6
REMARK VINA RESULT:      -7.8      0.984      4.408
REMARK  Name = 
REMARK  8 active torsions:
REMARK  status: ('A' for Active; 'I' for Inactive)
REMARK    1  A    between atoms: O_1  and  C_2
REMARK    2  A    between atoms: C_2  and  C_3
REMARK    3  A    between atoms: C_2  and  C_20
REMARK    4  A    between atoms: C_3  and  O_4
REMARK    5  A    between atoms: O_4  and  C_5
REMARK    6  A    between atoms: C_5  and  C_6
REMARK    7  A    between atoms: C_5  and  C_13
REMARK    8  A    between atoms: C_20  and  N_21
REMARK                            x       y       z     vdW  Elec       q    Type
REMARK                         _______ _______ _______ _____ _____    ______ ____
ROOT
ATOM      1  C   UNL     1       1.750   8.269  19.171  0.00  0.00    +0.000 C 
ENDROOT
BRANCH   1   2
ATOM      2  C   UNL     1       1.308   9.235  18.050  0.00  0.00    +0.000 C 
BRANCH   2   3
ATOM      3  O   UNL     1       2.475   9.733  17.387  0.00  0.00    +0.000 OA
ATOM      4  H   UNL     1       3.032  10.172  18.054  0.00  0.00    +0.000 HD
ENDBRANCH   2   3
BRANCH   2   5
ATOM      5  C   UNL     1       0.474  10.402  18.642  0.00  0.00    +0.000 C 
BRANCH   5   6
ATOM      6  N   UNL     1      -0.824  10.066  19.275  0.00  0.00    +0.000 NA
ATOM      7  C   UNL     1      -0.798  10.037  20.752  0.00  0.00    +0.000 C 
ATOM      8  C   UNL     1      -0.466  11.394  21.397  0.00  0.00    +0.000 C 
ATOM      9  N   UNL     1      -1.346  12.468  20.924  0.00  0.00    +0.000 N 
ATOM     10  C   UNL     1      -2.259  12.981  21.834  0.00  0.00    +0.000 A 
ATOM     11  C   UNL     1      -2.743  14.282  21.677  0.00  0.00    +0.000 A 
ATOM     12  C   UNL     1      -3.560  14.845  22.660  0.00  0.00    +0.000 A 
ATOM     13  C   UNL     1      -3.895  14.092  23.772  0.00  0.00    +0.000 A 
ATOM     14  C   UNL     1      -3.397  12.807  23.852  0.00  0.00    +0.000 A 
ATOM     15  N   UNL     1      -2.590  12.250  22.920  0.00  0.00    +0.000 NA
ATOM     16  C   UNL     1      -1.681  12.487  19.489  0.00  0.00    +0.000 C 
ATOM     17  C   UNL     1      -1.855  11.064  18.887  0.00  0.00    +0.000 C 
ENDBRANCH   5   6
ENDBRANCH   2   5
ENDBRANCH   1   2
BRANCH   1  18
ATOM     18  O   UNL     1       2.875   7.441  18.877  0.00  0.00    +0.000 OA
BRANCH  18  19
ATOM     19  C   UNL     1       2.598   6.203  18.207  0.00  0.00    +0.000 C 
BRANCH  19  20
ATOM     20  C   UNL     1       3.724   5.783  17.275  0.00  0.00    +0.000 A 
ATOM     21  C   UNL     1       4.011   4.430  17.036  0.00  0.00    +0.000 A 
ATOM     22  C   UNL     1       5.062   4.065  16.189  0.00  0.00    +0.000 A 
ATOM     23  C   UNL     1       5.840   5.051  15.584  0.00  0.00    +0.000 A 
ATOM     24 CL   UNL     1       7.137   4.602  14.548  0.00  0.00    +0.000 Cl
ATOM     25  C   UNL     1       5.575   6.397  15.817  0.00  0.00    +0.000 A 
ATOM     26  C   UNL     1       4.519   6.763  16.656  0.00  0.00    +0.000 A 
ENDBRANCH  19  20
BRANCH  19  27
ATOM     27  C   UNL     1       2.248   5.143  19.246  0.00  0.00    +0.000 A 
ATOM     28  C   UNL     1       1.329   4.129  18.922  0.00  0.00    +0.000 A 
ATOM     29  C   UNL     1       0.956   3.173  19.870  0.00  0.00    +0.000 A 
ATOM     30  C   UNL     1       1.507   3.215  21.149  0.00  0.00    +0.000 A 
ATOM     31 CL   UNL     1       1.025   2.056  22.325  0.00  0.00    +0.000 Cl
ATOM     32  C   UNL     1       2.438   4.195  21.482  0.00  0.00    +0.000 A 
ATOM     33  C   UNL     1       2.808   5.153  20.535  0.00  0.00    +0.000 A 
ENDBRANCH  19  27
ENDBRANCH  18  19
ENDBRANCH   1  18
TORSDOF 8
ENDMDL
MODEL 7
REMARK VINA RESULT:      -7.8      1.188      4.365
REMARK  Name = 
REMARK  8 active torsions:
REMARK  status: ('A' for Active; 'I' for Inactive)
REMARK    1  A    between atoms: O_1  and  C_2
REMARK    2  A    between atoms: C_2  and  C_3
REMARK    3  A    between atoms: C_2  and  C_20
REMARK    4  A    between atoms: C_3  and  O_4
REMARK    5  A    between atoms: O_4  and  C_5
REMARK    6  A    between atoms: C_5  and  C_6
REMARK    7  A    between atoms: C_5  and  C_13
REMARK    8  A    between atoms: C_20  and  N_21
REMARK                            x       y       z     vdW  Elec       q    Type
REMARK                         _______ _______ _______ _____ _____    ______ ____
ROOT
ATOM      1  C   UNL     1       1.868   8.473  17.563  0.00  0.00    +0.000 C 
ENDROOT
BRANCH   1   2
ATOM      2  C   UNL     1       1.347   9.776  18.209  0.00  0.00    +0.000 C 
BRANCH   2   3
ATOM      3  O   UNL     1       2.283  10.825  17.942  0.00  0.00    +0.000 OA
ATOM      4  H   UNL     1       2.465  10.826  16.986  0.00  0.00    +0.000 HD
ENDBRANCH   2   3
BRANCH   2   5
ATOM      5  C   UNL     1       1.163   9.581  19.738  0.00  0.00    +0.000 C 
BRANCH   5   6
ATOM      6  N   UNL     1      -0.200   9.263  20.230  0.00  0.00    +0.000 NA
ATOM      7  C   UNL     1      -0.384   9.444  21.686  0.00  0.00    +0.000 C 
ATOM      8  C   UNL     1      -0.198  10.895  22.162  0.00  0.00    +0.000 C 
ATOM      9  N   UNL     1      -1.041  11.839  21.421  0.00  0.00    +0.000 N 
ATOM     10  C   UNL     1      -2.093  12.421  22.112  0.00  0.00    +0.000 A 
ATOM     11  C   UNL     1      -2.598  13.657  21.700  0.00  0.00    +0.000 A 
ATOM     12  C   UNL     1      -3.567  14.305  22.469  0.00  0.00    +0.000 A 
ATOM     13  C   UNL     1      -4.030  13.699  23.623  0.00  0.00    +0.000 A 
ATOM     14  C   UNL     1      -3.502  12.468  23.959  0.00  0.00    +0.000 A 
ATOM     15  N   UNL     1      -2.549  11.833  23.238  0.00  0.00    +0.000 NA
ATOM     16  C   UNL     1      -1.167  11.637  19.967  0.00  0.00    +0.000 C 
ATOM     17  C   UNL     1      -1.200  10.136  19.563  0.00  0.00    +0.000 C 
ENDBRANCH   5   6
ENDBRANCH   2   5
ENDBRANCH   1   2
BRANCH   1  18
ATOM     18  O   UNL     1       2.320   7.464  18.465  0.00  0.00    +0.000 OA
BRANCH  18  19
ATOM     19  C   UNL     1       2.397   6.129  17.944  0.00  0.00    +0.000 C 
BRANCH  19  20
ATOM     20  C   UNL     1       3.737   5.838  17.288  0.00  0.00    +0.000 A 
ATOM     21  C   UNL     1       4.040   4.569  16.768  0.00  0.00    +0.000 A 
ATOM     22  C   UNL     1       5.285   4.318  16.185  0.00  0.00    +0.000 A 
ATOM     23  C   UNL     1       6.241   5.330  16.128  0.00  0.00    +0.000 A 
ATOM     24 CL   UNL     1       7.776   5.019  15.416  0.00  0.00    +0.000 Cl
ATOM     25  C   UNL     1       5.962   6.592  16.646  0.00  0.00    +0.000 A 
ATOM     26  C   UNL     1       4.715   6.847  17.220  0.00  0.00    +0.000 A 
ENDBRANCH  19  20
BRANCH  19  27
ATOM     27  C   UNL     1       2.039   5.142  19.049  0.00  0.00    +0.000 A 
ATOM     28  C   UNL     1       2.518   5.354  20.354  0.00  0.00    +0.000 A 
ATOM     29  C   UNL     1       2.243   4.440  21.374  0.00  0.00    +0.000 A 
ATOM     30  C   UNL     1       1.476   3.310  21.102  0.00  0.00    +0.000 A 
ATOM     31 CL   UNL     1       1.163   2.169  22.351  0.00  0.00    +0.000 Cl
ATOM     32  C   UNL     1       0.969   3.094  19.823  0.00  0.00    +0.000 A 
ATOM     33  C   UNL     1       1.248   4.006  18.803  0.00  0.00    +0.000 A 
ENDBRANCH  19  27
ENDBRANCH  18  19
ENDBRANCH   1  18
TORSDOF 8
ENDMDL
MODEL 8
REMARK VINA RESULT:      -7.8      4.117      7.024
REMARK  Name = 
REMARK  8 active torsions:
REMARK  status: ('A' for Active; 'I' for Inactive)
REMARK    1  A    between atoms: O_1  and  C_2
REMARK    2  A    between atoms: C_2  and  C_3
REMARK    3  A    between atoms: C_2  and  C_20
REMARK    4  A    between atoms: C_3  and  O_4
REMARK    5  A    between atoms: O_4  and  C_5
REMARK    6  A    between atoms: C_5  and  C_6
REMARK    7  A    between atoms: C_5  and  C_13
REMARK    8  A    between atoms: C_20  and  N_21
REMARK                            x       y       z     vdW  Elec       q    Type
REMARK                         _______ _______ _______ _____ _____    ______ ____
ROOT
ATOM      1  C   UNL     1       5.607   3.871  19.581  0.00  0.00    +0.000 C 
ENDROOT
BRANCH   1   2
ATOM      2  C   UNL     1       4.471   2.874  19.902  0.00  0.00    +0.000 C 
BRANCH   2   3
ATOM      3  O   UNL     1       5.023   1.555  19.965  0.00  0.00    +0.000 OA
ATOM      4  H   UNL     1       5.825   1.540  19.413  0.00  0.00    +0.000 HD
ENDBRANCH   2   3
BRANCH   2   5
ATOM      5  C   UNL     1       3.363   2.954  18.819  0.00  0.00    +0.000 C 
BRANCH   5   6
ATOM      6  N   UNL     1       2.059   3.541  19.213  0.00  0.00    +0.000 NA
ATOM      7  C   UNL     1       2.125   4.460  20.368  0.00  0.00    +0.000 C 
ATOM      8  C   UNL     1       2.982   5.714  20.120  0.00  0.00    +0.000 C 
ATOM      9  N   UNL     1       2.575   6.440  18.913  0.00  0.00    +0.000 N 
ATOM     10  C   UNL     1       1.967   7.674  19.096  0.00  0.00    +0.000 A 
ATOM     11  C   UNL     1       2.023   8.635  18.084  0.00  0.00    +0.000 A 
ATOM     12  C   UNL     1       1.526   9.920  18.313  0.00  0.00    +0.000 A 
ATOM     13  C   UNL     1       0.964  10.216  19.543  0.00  0.00    +0.000 A 
ATOM     14  C   UNL     1       0.923   9.212  20.489  0.00  0.00    +0.000 A 
ATOM     15  N   UNL     1       1.416   7.968  20.293  0.00  0.00    +0.000 NA
ATOM     16  C   UNL     1       2.223   5.640  17.727  0.00  0.00    +0.000 C 
ATOM     17  C   UNL     1       1.486   4.318  18.083  0.00  0.00    +0.000 C 
ENDBRANCH   5   6
ENDBRANCH   2   5
ENDBRANCH   1   2
BRANCH   1  18
ATOM     18  O   UNL     1       5.464   4.614  18.371  0.00  0.00    +0.000 OA
BRANCH  18  19
ATOM     19  C   UNL     1       6.646   4.772  17.575  0.00  0.00    +0.000 C 
BRANCH  19  20
ATOM     20  C   UNL     1       6.404   4.463  16.106  0.00  0.00    +0.000 A 
ATOM     21  C   UNL     1       7.375   4.736  15.129  0.00  0.00    +0.000 A 
ATOM     22  C   UNL     1       7.124   4.460  13.782  0.00  0.00    +0.000 A 
ATOM     23  C   UNL     1       5.897   3.921  13.401  0.00  0.00    +0.000 A 
ATOM     24 CL   UNL     1       5.586   3.589  11.742  0.00  0.00    +0.000 Cl
ATOM     25  C   UNL     1       4.919   3.653  14.355  0.00  0.00    +0.000 A 
ATOM     26  C   UNL     1       5.172   3.919  15.702  0.00  0.00    +0.000 A 
ENDBRANCH  19  20
BRANCH  19  27
ATOM     27  C   UNL     1       7.223   6.164  17.812  0.00  0.00    +0.000 A 
ATOM     28  C   UNL     1       8.153   6.365  18.848  0.00  0.00    +0.000 A 
ATOM     29  C   UNL     1       8.661   7.638  19.114  0.00  0.00    +0.000 A 
ATOM     30  C   UNL     1       8.254   8.722  18.339  0.00  0.00    +0.000 A 
ATOM     31 CL   UNL     1       8.857  10.295  18.687  0.00  0.00    +0.000 Cl
ATOM     32  C   UNL     1       7.355   8.541  17.292  0.00  0.00    +0.000 A 
ATOM     33  C   UNL     1       6.844   7.267  17.028  0.00  0.00    +0.000 A 
ENDBRANCH  19  27
ENDBRANCH  18  19
ENDBRANCH   1  18
TORSDOF 8
ENDMDL
MODEL 9
REMARK VINA RESULT:      -7.8      1.165      4.243
REMARK  Name = 
REMARK  8 active torsions:
REMARK  status: ('A' for Active; 'I' for Inactive)
REMARK    1  A    between atoms: O_1  and  C_2
REMARK    2  A    between atoms: C_2  and  C_3
REMARK    3  A    between atoms: C_2  and  C_20
REMARK    4  A    between atoms: C_3  and  O_4
REMARK    5  A    between atoms: O_4  and  C_5
REMARK    6  A    between atoms: C_5  and  C_6
REMARK    7  A    between atoms: C_5  and  C_13
REMARK    8  A    between atoms: C_20  and  N_21
REMARK                            x       y       z     vdW  Elec       q    Type
REMARK                         _______ _______ _______ _____ _____    ______ ____
ROOT
ATOM      1  C   UNL     1       1.498   8.287  19.088  0.00  0.00    +0.000 C 
ENDROOT
BRANCH   1   2
ATOM      2  C   UNL     1       1.317   9.610  18.312  0.00  0.00    +0.000 C 
BRANCH   2   3
ATOM      3  O   UNL     1       2.231   9.622  17.210  0.00  0.00    +0.000 OA
ATOM      4  H   UNL     1       1.780   9.225  16.444  0.00  0.00    +0.000 HD
ENDBRANCH   2   3
BRANCH   2   5
ATOM      5  C   UNL     1       1.571  10.822  19.248  0.00  0.00    +0.000 C 
BRANCH   5   6
ATOM      6  N   UNL     1       0.755  12.041  19.028  0.00  0.00    +0.000 NA
ATOM      7  C   UNL     1      -0.660  11.779  18.689  0.00  0.00    +0.000 C 
ATOM      8  C   UNL     1      -1.444  11.061  19.801  0.00  0.00    +0.000 C 
ATOM      9  N   UNL     1      -1.348  11.753  21.090  0.00  0.00    +0.000 N 
ATOM     10  C   UNL     1      -2.498  12.372  21.560  0.00  0.00    +0.000 A 
ATOM     11  C   UNL     1      -2.665  12.583  22.931  0.00  0.00    +0.000 A 
ATOM     12  C   UNL     1      -3.874  13.087  23.416  0.00  0.00    +0.000 A 
ATOM     13  C   UNL     1      -4.887  13.389  22.523  0.00  0.00    +0.000 A 
ATOM     14  C   UNL     1      -4.645  13.174  21.181  0.00  0.00    +0.000 A 
ATOM     15  N   UNL     1      -3.488  12.671  20.692  0.00  0.00    +0.000 NA
ATOM     16  C   UNL     1      -0.036  12.307  21.465  0.00  0.00    +0.000 C 
ATOM     17  C   UNL     1       0.751  12.881  20.254  0.00  0.00    +0.000 C 
ENDBRANCH   5   6
ENDBRANCH   2   5
ENDBRANCH   1   2
BRANCH   1  18
ATOM     18  O   UNL     1       2.683   7.547  18.798  0.00  0.00    +0.000 OA
BRANCH  18  19
ATOM     19  C   UNL     1       2.501   6.280  18.148  0.00  0.00    +0.000 C 
BRANCH  19  20
ATOM     20  C   UNL     1       3.703   5.882  17.305  0.00  0.00    +0.000 A 
ATOM     21  C   UNL     1       4.001   4.536  17.044  0.00  0.00    +0.000 A 
ATOM     22  C   UNL     1       5.121   4.190  16.281  0.00  0.00    +0.000 A 
ATOM     23  C   UNL     1       5.956   5.189  15.784  0.00  0.00    +0.000 A 
ATOM     24 CL   UNL     1       7.337   4.765  14.851  0.00  0.00    +0.000 Cl
ATOM     25  C   UNL     1       5.680   6.530  16.041  0.00  0.00    +0.000 A 
ATOM     26  C   UNL     1       4.557   6.875  16.794  0.00  0.00    +0.000 A 
ENDBRANCH  19  20
BRANCH  19  27
ATOM     27  C   UNL     1       2.124   5.235  19.192  0.00  0.00    +0.000 A 
ATOM     28  C   UNL     1       2.692   5.299  20.477  0.00  0.00    +0.000 A 
ATOM     29  C   UNL     1       2.398   4.327  21.437  0.00  0.00    +0.000 A 
ATOM     30  C   UNL     1       1.524   3.288  21.125  0.00  0.00    +0.000 A 
ATOM     31 CL   UNL     1       1.187   2.075  22.297  0.00  0.00    +0.000 Cl
ATOM     32  C   UNL     1       0.931   3.221  19.867  0.00  0.00    +0.000 A 
ATOM     33  C   UNL     1       1.228   4.191  18.907  0.00  0.00    +0.000 A 
ENDBRANCH  19  27
ENDBRANCH  18  19
ENDBRANCH   1  18
TORSDOF 8
ENDMDL
