MODEL 1
REMARK VINA RESULT:      -8.2      0.000      0.000
REMARK  Name = 
REMARK  4 active torsions:
REMARK  status: ('A' for Active; 'I' for Inactive)
REMARK    1  A    between atoms: C_2  and  C_9
REMARK    2  A    between atoms: N_3  and  C_4
REMARK    3  A    between atoms: C_10  and  C_11
REMARK    4  A    between atoms: C_25  and  C_27
REMARK                            x       y       z     vdW  Elec       q    Type
REMARK                         _______ _______ _______ _____ _____    ______ ____
ROOT
ATOM      1  C   UNL     1      -1.408  12.198  20.268  0.00  0.00    +0.000 C 
ATOM      2  C   UNL     1      -2.801  12.164  19.638  0.00  0.00    +0.000 C 
ATOM      3  N   UNL     1      -3.854  12.537  20.304  0.00  0.00    +0.000 NA
ATOM      4  C   UNL     1      -3.633  12.888  21.645  0.00  0.00    +0.000 A 
ATOM      5  C   UNL     1      -4.500  13.810  22.228  0.00  0.00    +0.000 A 
ATOM      6  C   UNL     1      -4.331  14.170  23.558  0.00  0.00    +0.000 A 
ATOM      7  C   UNL     1      -3.337  13.554  24.321  0.00  0.00    +0.000 A 
ATOM      8  C   UNL     1      -2.473  12.607  23.751  0.00  0.00    +0.000 A 
ATOM      9  C   UNL     1      -2.573  12.308  22.392  0.00  0.00    +0.000 A 
ATOM     10  N   UNL     1      -1.570  11.577  21.628  0.00  0.00    +0.000 N 
ATOM     11  C   UNL     1      -0.574  10.769  22.185  0.00  0.00    +0.000 C 
ATOM     12  O   UNL     1      -0.297  10.713  23.380  0.00  0.00    +0.000 OA
ENDROOT
BRANCH  11  13
ATOM     13  C   UNL     1       0.271   9.937  21.280  0.00  0.00    +0.000 A 
ATOM     14  C   UNL     1       0.472   8.584  21.586  0.00  0.00    +0.000 A 
ATOM     15  C   UNL     1       1.186   7.769  20.706  0.00  0.00    +0.000 A 
ATOM     16 CL   UNL     1       1.421   6.106  21.081  0.00  0.00    +0.000 Cl
ATOM     17  C   UNL     1       1.702   8.286  19.521  0.00  0.00    +0.000 A 
ATOM     18  C   UNL     1       1.501   9.631  19.222  0.00  0.00    +0.000 A 
ATOM     19 CL   UNL     1       2.136  10.283  17.763  0.00  0.00    +0.000 Cl
ATOM     20  C   UNL     1       0.782  10.460  20.087  0.00  0.00    +0.000 A 
ENDBRANCH  11  13
BRANCH   2  21
ATOM     21  C   UNL     1      -3.006  11.571  18.284  0.00  0.00    +0.000 A 
ATOM     22  C   UNL     1      -1.988  10.762  17.754  0.00  0.00    +0.000 A 
ATOM     23  C   UNL     1      -2.126  10.177  16.495  0.00  0.00    +0.000 A 
ATOM     24  C   UNL     1      -3.286  10.397  15.755  0.00  0.00    +0.000 A 
ATOM     25  C   UNL     1      -4.298  11.207  16.271  0.00  0.00    +0.000 A 
ATOM     26  C   UNL     1      -4.164  11.794  17.537  0.00  0.00    +0.000 A 
ENDBRANCH   2  21
BRANCH   1  28
ATOM     27  O   UNL     1       0.146  13.864  21.204  0.00  0.00    +0.000 OA
ATOM     28  C   UNL     1      -0.800  13.631  20.457  0.00  0.00    +0.000 C 
ATOM     29  N   UNL     1      -1.519  14.633  19.817  0.00  0.00    +0.000 N 
ATOM     30  H   UNL     1      -2.266  14.347  19.200  0.00  0.00    +0.000 HD
BRANCH  29  31
ATOM     31  C   UNL     1      -1.188  16.041  19.760  0.00  0.00    +0.000 C 
ATOM     32  C   UNL     1      -0.517  16.391  18.426  0.00  0.00    +0.000 C 
ATOM     33  C   UNL     1      -0.763  17.880  18.244  0.00  0.00    +0.000 C 
ATOM     34  C   UNL     1      -2.016  18.203  19.047  0.00  0.00    +0.000 C 
ATOM     35  C   UNL     1      -2.441  16.908  19.731  0.00  0.00    +0.000 C 
ENDBRANCH  29  31
ENDBRANCH   1  28
TORSDOF 4
ENDMDL
MODEL 2
REMARK VINA RESULT:      -8.1      0.259      1.771
REMARK  Name = 
REMARK  4 active torsions:
REMARK  status: ('A' for Active; 'I' for Inactive)
REMARK    1  A    between atoms: C_2  and  C_9
REMARK    2  A    between atoms: N_3  and  C_4
REMARK    3  A    between atoms: C_10  and  C_11
REMARK    4  A    between atoms: C_25  and  C_27
REMARK                            x       y       z     vdW  Elec       q    Type
REMARK                         _______ _______ _______ _____ _____    ______ ____
ROOT
ATOM      1  C   UNL     1      -1.305  12.074  20.117  0.00  0.00    +0.000 C 
ATOM      2  C   UNL     1      -2.711  12.120  19.514  0.00  0.00    +0.000 C 
ATOM      3  N   UNL     1      -3.725  12.563  20.198  0.00  0.00    +0.000 NA
ATOM      4  C   UNL     1      -3.455  12.913  21.531  0.00  0.00    +0.000 A 
ATOM      5  C   UNL     1      -4.251  13.892  22.120  0.00  0.00    +0.000 A 
ATOM      6  C   UNL     1      -4.033  14.253  23.443  0.00  0.00    +0.000 A 
ATOM      7  C   UNL     1      -3.064  13.584  24.192  0.00  0.00    +0.000 A 
ATOM      8  C   UNL     1      -2.271  12.580  23.615  0.00  0.00    +0.000 A 
ATOM      9  C   UNL     1      -2.417  12.275  22.262  0.00  0.00    +0.000 A 
ATOM     10  N   UNL     1      -1.478  11.476  21.486  0.00  0.00    +0.000 N 
ATOM     11  C   UNL     1      -0.521  10.613  22.031  0.00  0.00    +0.000 C 
ATOM     12  O   UNL     1      -0.224  10.551  23.221  0.00  0.00    +0.000 OA
ENDROOT
BRANCH  11  13
ATOM     13  C   UNL     1       0.251   9.722  21.119  0.00  0.00    +0.000 A 
ATOM     14  C   UNL     1       0.790  10.253  19.939  0.00  0.00    +0.000 A 
ATOM     15  C   UNL     1       1.589   9.457  19.117  0.00  0.00    +0.000 A 
ATOM     16 CL   UNL     1       2.257  10.116  17.675  0.00  0.00    +0.000 Cl
ATOM     17  C   UNL     1       1.859   8.134  19.458  0.00  0.00    +0.000 A 
ATOM     18  C   UNL     1       1.321   7.610  20.630  0.00  0.00    +0.000 A 
ATOM     19 CL   UNL     1       1.645   5.977  21.061  0.00  0.00    +0.000 Cl
ATOM     20  C   UNL     1       0.526   8.395  21.469  0.00  0.00    +0.000 A 
ENDBRANCH  11  13
BRANCH   2  21
ATOM     21  C   UNL     1      -2.980  11.528  18.171  0.00  0.00    +0.000 A 
ATOM     22  C   UNL     1      -4.222  11.789  17.570  0.00  0.00    +0.000 A 
ATOM     23  C   UNL     1      -4.528  11.267  16.313  0.00  0.00    +0.000 A 
ATOM     24  C   UNL     1      -3.592  10.480  15.646  0.00  0.00    +0.000 A 
ATOM     25  C   UNL     1      -2.359  10.209  16.241  0.00  0.00    +0.000 A 
ATOM     26  C   UNL     1      -2.048  10.734  17.503  0.00  0.00    +0.000 A 
ENDBRANCH   2  21
BRANCH   1  28
ATOM     27  O   UNL     1       0.425  13.629  20.925  0.00  0.00    +0.000 OA
ATOM     28  C   UNL     1      -0.606  13.468  20.278  0.00  0.00    +0.000 C 
ATOM     29  N   UNL     1      -1.335  14.524  19.747  0.00  0.00    +0.000 N 
ATOM     30  H   UNL     1      -2.158  14.296  19.207  0.00  0.00    +0.000 HD
BRANCH  29  31
ATOM     31  C   UNL     1      -0.939  15.916  19.693  0.00  0.00    +0.000 C 
ATOM     32  C   UNL     1      -0.347  16.263  18.322  0.00  0.00    +0.000 C 
ATOM     33  C   UNL     1      -0.530  17.765  18.186  0.00  0.00    +0.000 C 
ATOM     34  C   UNL     1      -1.705  18.132  19.083  0.00  0.00    +0.000 C 
ATOM     35  C   UNL     1      -2.146  16.843  19.771  0.00  0.00    +0.000 C 
ENDBRANCH  29  31
ENDBRANCH   1  28
TORSDOF 4
ENDMDL
MODEL 3
REMARK VINA RESULT:      -7.9      2.987      6.544
REMARK  Name = 
REMARK  4 active torsions:
REMARK  status: ('A' for Active; 'I' for Inactive)
REMARK    1  A    between atoms: C_2  and  C_9
REMARK    2  A    between atoms: N_3  and  C_4
REMARK    3  A    between atoms: C_10  and  C_11
REMARK    4  A    between atoms: C_25  and  C_27
REMARK                            x       y       z     vdW  Elec       q    Type
REMARK                         _______ _______ _______ _____ _____    ______ ____
ROOT
ATOM      1  C   UNL     1      -1.099  12.274  20.218  0.00  0.00    +0.000 C 
ATOM      2  C   UNL     1      -1.104  12.232  18.688  0.00  0.00    +0.000 C 
ATOM      3  N   UNL     1      -0.122  12.730  17.995  0.00  0.00    +0.000 NA
ATOM      4  C   UNL     1       0.884  13.370  18.737  0.00  0.00    +0.000 A 
ATOM      5  C   UNL     1       2.170  13.394  18.204  0.00  0.00    +0.000 A 
ATOM      6  C   UNL     1       3.191  14.035  18.893  0.00  0.00    +0.000 A 
ATOM      7  C   UNL     1       2.905  14.710  20.082  0.00  0.00    +0.000 A 
ATOM      8  C   UNL     1       1.608  14.712  20.617  0.00  0.00    +0.000 A 
ATOM      9  C   UNL     1       0.595  13.991  19.982  0.00  0.00    +0.000 A 
ATOM     10  N   UNL     1      -0.697  13.677  20.576  0.00  0.00    +0.000 N 
ATOM     11  C   UNL     1      -1.250  14.336  21.679  0.00  0.00    +0.000 C 
ATOM     12  O   UNL     1      -0.652  15.130  22.400  0.00  0.00    +0.000 OA
ENDROOT
BRANCH  11  13
ATOM     13  C   UNL     1      -2.657  14.034  22.070  0.00  0.00    +0.000 A 
ATOM     14  C   UNL     1      -3.696  14.354  21.184  0.00  0.00    +0.000 A 
ATOM     15  C   UNL     1      -5.010  14.000  21.494  0.00  0.00    +0.000 A 
ATOM     16 CL   UNL     1      -6.280  14.385  20.400  0.00  0.00    +0.000 Cl
ATOM     17  C   UNL     1      -5.302  13.327  22.678  0.00  0.00    +0.000 A 
ATOM     18  C   UNL     1      -4.269  13.013  23.555  0.00  0.00    +0.000 A 
ATOM     19 CL   UNL     1      -4.617  12.185  25.022  0.00  0.00    +0.000 Cl
ATOM     20  C   UNL     1      -2.946  13.352  23.257  0.00  0.00    +0.000 A 
ENDBRANCH  11  13
BRANCH   2  21
ATOM     21  C   UNL     1      -2.301  11.739  17.947  0.00  0.00    +0.000 A 
ATOM     22  C   UNL     1      -3.553  11.829  18.577  0.00  0.00    +0.000 A 
ATOM     23  C   UNL     1      -4.709  11.389  17.931  0.00  0.00    +0.000 A 
ATOM     24  C   UNL     1      -4.621  10.855  16.647  0.00  0.00    +0.000 A 
ATOM     25  C   UNL     1      -3.380  10.754  16.018  0.00  0.00    +0.000 A 
ATOM     26  C   UNL     1      -2.217  11.198  16.663  0.00  0.00    +0.000 A 
ENDBRANCH   2  21
BRANCH   1  28
ATOM     27  O   UNL     1       0.297  11.427  22.061  0.00  0.00    +0.000 OA
ATOM     28  C   UNL     1      -0.093  11.287  20.905  0.00  0.00    +0.000 C 
ATOM     29  N   UNL     1       0.428  10.330  20.045  0.00  0.00    +0.000 N 
ATOM     30  H   UNL     1       0.030  10.270  19.118  0.00  0.00    +0.000 HD
BRANCH  29  31
ATOM     31  C   UNL     1       1.336   9.254  20.386  0.00  0.00    +0.000 C 
ATOM     32  C   UNL     1       0.602   8.137  21.139  0.00  0.00    +0.000 C 
ATOM     33  C   UNL     1       1.445   6.894  20.913  0.00  0.00    +0.000 C 
ATOM     34  C   UNL     1       2.207   7.129  19.615  0.00  0.00    +0.000 C 
ATOM     35  C   UNL     1       1.839   8.532  19.142  0.00  0.00    +0.000 C 
ENDBRANCH  29  31
ENDBRANCH   1  28
TORSDOF 4
ENDMDL
MODEL 4
REMARK VINA RESULT:      -7.8      0.888      1.950
REMARK  Name = 
REMARK  4 active torsions:
REMARK  status: ('A' for Active; 'I' for Inactive)
REMARK    1  A    between atoms: C_2  and  C_9
REMARK    2  A    between atoms: N_3  and  C_4
REMARK    3  A    between atoms: C_10  and  C_11
REMARK    4  A    between atoms: C_25  and  C_27
REMARK                            x       y       z     vdW  Elec       q    Type
REMARK                         _______ _______ _______ _____ _____    ______ ____
ROOT
ATOM      1  C   UNL     1      -1.085  11.941  19.906  0.00  0.00    +0.000 C 
ATOM      2  C   UNL     1      -2.500  12.011  19.329  0.00  0.00    +0.000 C 
ATOM      3  N   UNL     1      -3.482  12.529  20.006  0.00  0.00    +0.000 NA
ATOM      4  C   UNL     1      -3.172  12.937  21.314  0.00  0.00    +0.000 A 
ATOM      5  C   UNL     1      -3.917  13.976  21.865  0.00  0.00    +0.000 A 
ATOM      6  C   UNL     1      -3.658  14.396  23.163  0.00  0.00    +0.000 A 
ATOM      7  C   UNL     1      -2.700  13.729  23.929  0.00  0.00    +0.000 A 
ATOM      8  C   UNL     1      -1.959  12.665  23.391  0.00  0.00    +0.000 A 
ATOM      9  C   UNL     1      -2.145  12.297  22.058  0.00  0.00    +0.000 A 
ATOM     10  N   UNL     1      -1.253  11.422  21.308  0.00  0.00    +0.000 N 
ATOM     11  C   UNL     1      -0.320  10.551  21.880  0.00  0.00    +0.000 C 
ATOM     12  O   UNL     1      -0.001  10.539  23.066  0.00  0.00    +0.000 OA
ENDROOT
BRANCH  11  13
ATOM     13  C   UNL     1       0.399   9.584  21.002  0.00  0.00    +0.000 A 
ATOM     14  C   UNL     1       0.919  10.028  19.779  0.00  0.00    +0.000 A 
ATOM     15  C   UNL     1       1.670   9.159  18.985  0.00  0.00    +0.000 A 
ATOM     16 CL   UNL     1       2.316   9.712  17.489  0.00  0.00    +0.000 Cl
ATOM     17  C   UNL     1       1.909   7.851  19.396  0.00  0.00    +0.000 A 
ATOM     18  C   UNL     1       1.389   7.414  20.611  0.00  0.00    +0.000 A 
ATOM     19 CL   UNL     1       1.676   5.799  21.129  0.00  0.00    +0.000 Cl
ATOM     20  C   UNL     1       0.643   8.272  21.423  0.00  0.00    +0.000 A 
ENDBRANCH  11  13
BRANCH   2  21
ATOM     21  C   UNL     1      -2.819  11.362  18.024  0.00  0.00    +0.000 A 
ATOM     22  C   UNL     1      -1.896  10.443  17.498  0.00  0.00    +0.000 A 
ATOM     23  C   UNL     1      -2.144   9.801  16.284  0.00  0.00    +0.000 A 
ATOM     24  C   UNL     1      -3.317  10.074  15.585  0.00  0.00    +0.000 A 
ATOM     25  C   UNL     1      -4.235  10.993  16.096  0.00  0.00    +0.000 A 
ATOM     26  C   UNL     1      -3.991  11.638  17.317  0.00  0.00    +0.000 A 
ENDBRANCH   2  21
BRANCH   1  28
ATOM     27  O   UNL     1       0.589  13.528  20.767  0.00  0.00    +0.000 OA
ATOM     28  C   UNL     1      -0.330  13.312  19.981  0.00  0.00    +0.000 C 
ATOM     29  N   UNL     1      -0.888  14.303  19.183  0.00  0.00    +0.000 N 
ATOM     30  H   UNL     1      -1.624  14.028  18.548  0.00  0.00    +0.000 HD
BRANCH  29  31
ATOM     31  C   UNL     1      -0.395  15.651  18.997  0.00  0.00    +0.000 C 
ATOM     32  C   UNL     1      -0.545  16.471  20.285  0.00  0.00    +0.000 C 
ATOM     33  C   UNL     1       0.487  17.579  20.166  0.00  0.00    +0.000 C 
ATOM     34  C   UNL     1       1.567  17.053  19.229  0.00  0.00    +0.000 C 
ATOM     35  C   UNL     1       1.111  15.670  18.773  0.00  0.00    +0.000 C 
ENDBRANCH  29  31
ENDBRANCH   1  28
TORSDOF 4
ENDMDL
MODEL 5
REMARK VINA RESULT:      -7.8      2.780      3.712
REMARK  Name = 
REMARK  4 active torsions:
REMARK  status: ('A' for Active; 'I' for Inactive)
REMARK    1  A    between atoms: C_2  and  C_9
REMARK    2  A    between atoms: N_3  and  C_4
REMARK    3  A    between atoms: C_10  and  C_11
REMARK    4  A    between atoms: C_25  and  C_27
REMARK                            x       y       z     vdW  Elec       q    Type
REMARK                         _______ _______ _______ _____ _____    ______ ____
ROOT
ATOM      1  C   UNL     1      -3.671  13.218  20.473  0.00  0.00    +0.000 C 
ATOM      2  C   UNL     1      -4.534  12.291  19.614  0.00  0.00    +0.000 C 
ATOM      3  N   UNL     1      -5.724  11.930  19.995  0.00  0.00    +0.000 NA
ATOM      4  C   UNL     1      -6.119  12.378  21.266  0.00  0.00    +0.000 A 
ATOM      5  C   UNL     1      -7.479  12.557  21.499  0.00  0.00    +0.000 A 
ATOM      6  C   UNL     1      -7.916  12.977  22.748  0.00  0.00    +0.000 A 
ATOM      7  C   UNL     1      -6.993  13.151  23.781  0.00  0.00    +0.000 A 
ATOM      8  C   UNL     1      -5.621  12.951  23.564  0.00  0.00    +0.000 A 
ATOM      9  C   UNL     1      -5.162  12.621  22.288  0.00  0.00    +0.000 A 
ATOM     10  N   UNL     1      -3.768  12.670  21.870  0.00  0.00    +0.000 N 
ATOM     11  C   UNL     1      -2.673  12.692  22.740  0.00  0.00    +0.000 C 
ATOM     12  O   UNL     1      -2.740  12.856  23.955  0.00  0.00    +0.000 OA
ENDROOT
BRANCH  11  13
ATOM     13  C   UNL     1      -1.299  12.559  22.175  0.00  0.00    +0.000 A 
ATOM     14  C   UNL     1      -0.913  11.344  21.594  0.00  0.00    +0.000 A 
ATOM     15  C   UNL     1       0.336  11.229  20.983  0.00  0.00    +0.000 A 
ATOM     16 CL   UNL     1       0.801   9.737  20.262  0.00  0.00    +0.000 Cl
ATOM     17  C   UNL     1       1.208  12.313  20.942  0.00  0.00    +0.000 A 
ATOM     18  C   UNL     1       0.822  13.519  21.522  0.00  0.00    +0.000 A 
ATOM     19 CL   UNL     1       1.890  14.865  21.481  0.00  0.00    +0.000 Cl
ATOM     20  C   UNL     1      -0.429  13.654  22.131  0.00  0.00    +0.000 A 
ENDBRANCH  11  13
BRANCH   2  21
ATOM     21  C   UNL     1      -3.978  11.667  18.378  0.00  0.00    +0.000 A 
ATOM     22  C   UNL     1      -4.775  11.665  17.221  0.00  0.00    +0.000 A 
ATOM     23  C   UNL     1      -4.305  11.101  16.034  0.00  0.00    +0.000 A 
ATOM     24  C   UNL     1      -3.034  10.533  15.995  0.00  0.00    +0.000 A 
ATOM     25  C   UNL     1      -2.240  10.524  17.143  0.00  0.00    +0.000 A 
ATOM     26  C   UNL     1      -2.707  11.092  18.336  0.00  0.00    +0.000 A 
ENDBRANCH   2  21
BRANCH   1  28
ATOM     27  O   UNL     1      -3.665  15.545  21.279  0.00  0.00    +0.000 OA
ATOM     28  C   UNL     1      -4.132  14.716  20.503  0.00  0.00    +0.000 C 
ATOM     29  N   UNL     1      -5.216  14.984  19.677  0.00  0.00    +0.000 N 
ATOM     30  H   UNL     1      -5.518  14.250  19.053  0.00  0.00    +0.000 HD
BRANCH  29  31
ATOM     31  C   UNL     1      -5.839  16.271  19.448  0.00  0.00    +0.000 C 
ATOM     32  C   UNL     1      -6.534  16.305  18.081  0.00  0.00    +0.000 C 
ATOM     33  C   UNL     1      -7.590  17.391  18.207  0.00  0.00    +0.000 C 
ATOM     34  C   UNL     1      -7.915  17.496  19.691  0.00  0.00    +0.000 C 
ATOM     35  C   UNL     1      -6.997  16.510  20.408  0.00  0.00    +0.000 C 
ENDBRANCH  29  31
ENDBRANCH   1  28
TORSDOF 4
ENDMDL
MODEL 6
REMARK VINA RESULT:      -7.8      3.019      6.423
REMARK  Name = 
REMARK  4 active torsions:
REMARK  status: ('A' for Active; 'I' for Inactive)
REMARK    1  A    between atoms: C_2  and  C_9
REMARK    2  A    between atoms: N_3  and  C_4
REMARK    3  A    between atoms: C_10  and  C_11
REMARK    4  A    between atoms: C_25  and  C_27
REMARK                            x       y       z     vdW  Elec       q    Type
REMARK                         _______ _______ _______ _____ _____    ______ ____
ROOT
ATOM      1  C   UNL     1      -1.117  12.225  20.162  0.00  0.00    +0.000 C 
ATOM      2  C   UNL     1      -1.090  12.202  18.632  0.00  0.00    +0.000 C 
ATOM      3  N   UNL     1      -0.105  12.729  17.966  0.00  0.00    +0.000 NA
ATOM      4  C   UNL     1       0.872  13.381  18.735  0.00  0.00    +0.000 A 
ATOM      5  C   UNL     1       2.168  13.438  18.229  0.00  0.00    +0.000 A 
ATOM      6  C   UNL     1       3.161  14.092  18.947  0.00  0.00    +0.000 A 
ATOM      7  C   UNL     1       2.838  14.745  20.137  0.00  0.00    +0.000 A 
ATOM      8  C   UNL     1       1.530  14.713  20.646  0.00  0.00    +0.000 A 
ATOM      9  C   UNL     1       0.546  13.981  19.981  0.00  0.00    +0.000 A 
ATOM     10  N   UNL     1      -0.751  13.632  20.546  0.00  0.00    +0.000 N 
ATOM     11  C   UNL     1      -1.340  14.265  21.645  0.00  0.00    +0.000 C 
ATOM     12  O   UNL     1      -0.774  15.064  22.387  0.00  0.00    +0.000 OA
ENDROOT
BRANCH  11  13
ATOM     13  C   UNL     1      -2.748  13.930  22.003  0.00  0.00    +0.000 A 
ATOM     14  C   UNL     1      -3.008  13.271  23.213  0.00  0.00    +0.000 A 
ATOM     15  C   UNL     1      -4.325  13.027  23.605  0.00  0.00    +0.000 A 
ATOM     16 CL   UNL     1      -4.638  12.227  25.096  0.00  0.00    +0.000 Cl
ATOM     17  C   UNL     1      -5.390  13.433  22.805  0.00  0.00    +0.000 A 
ATOM     18  C   UNL     1      -5.128  14.085  21.604  0.00  0.00    +0.000 A 
ATOM     19 CL   UNL     1      -6.434  14.590  20.606  0.00  0.00    +0.000 Cl
ATOM     20  C   UNL     1      -3.816  14.346  21.199  0.00  0.00    +0.000 A 
ENDBRANCH  11  13
BRANCH   2  21
ATOM     21  C   UNL     1      -2.262  11.694  17.861  0.00  0.00    +0.000 A 
ATOM     22  C   UNL     1      -3.534  11.795  18.447  0.00  0.00    +0.000 A 
ATOM     23  C   UNL     1      -4.667  11.342  17.771  0.00  0.00    +0.000 A 
ATOM     24  C   UNL     1      -4.536  10.783  16.501  0.00  0.00    +0.000 A 
ATOM     25  C   UNL     1      -3.274  10.670  15.917  0.00  0.00    +0.000 A 
ATOM     26  C   UNL     1      -2.133  11.128  16.592  0.00  0.00    +0.000 A 
ENDBRANCH   2  21
BRANCH   1  28
ATOM     27  O   UNL     1       0.281  11.402  22.014  0.00  0.00    +0.000 OA
ATOM     28  C   UNL     1      -0.104  11.251  20.859  0.00  0.00    +0.000 C 
ATOM     29  N   UNL     1       0.427  10.293  20.005  0.00  0.00    +0.000 N 
ATOM     30  H   UNL     1       0.032  10.225  19.078  0.00  0.00    +0.000 HD
BRANCH  29  31
ATOM     31  C   UNL     1       1.343   9.227  20.355  0.00  0.00    +0.000 C 
ATOM     32  C   UNL     1       0.616   8.108  21.111  0.00  0.00    +0.000 C 
ATOM     33  C   UNL     1       1.471   6.871  20.894  0.00  0.00    +0.000 C 
ATOM     34  C   UNL     1       2.236   7.106  19.599  0.00  0.00    +0.000 C 
ATOM     35  C   UNL     1       1.856   8.503  19.117  0.00  0.00    +0.000 C 
ENDBRANCH  29  31
ENDBRANCH   1  28
TORSDOF 4
ENDMDL
MODEL 7
REMARK VINA RESULT:      -7.7      2.844      6.458
REMARK  Name = 
REMARK  4 active torsions:
REMARK  status: ('A' for Active; 'I' for Inactive)
REMARK    1  A    between atoms: C_2  and  C_9
REMARK    2  A    between atoms: N_3  and  C_4
REMARK    3  A    between atoms: C_10  and  C_11
REMARK    4  A    between atoms: C_25  and  C_27
REMARK                            x       y       z     vdW  Elec       q    Type
REMARK                         _______ _______ _______ _____ _____    ______ ____
ROOT
ATOM      1  C   UNL     1      -0.716  12.421  19.753  0.00  0.00    +0.000 C 
ATOM      2  C   UNL     1       0.435  13.158  19.063  0.00  0.00    +0.000 C 
ATOM      3  N   UNL     1       1.459  12.514  18.585  0.00  0.00    +0.000 NA
ATOM      4  C   UNL     1       1.471  11.129  18.816  0.00  0.00    +0.000 A 
ATOM      5  C   UNL     1       2.141  10.322  17.901  0.00  0.00    +0.000 A 
ATOM      6  C   UNL     1       2.196   8.949  18.102  0.00  0.00    +0.000 A 
ATOM      7  C   UNL     1       1.638   8.396  19.256  0.00  0.00    +0.000 A 
ATOM      8  C   UNL     1       0.980   9.203  20.197  0.00  0.00    +0.000 A 
ATOM      9  C   UNL     1       0.836  10.570  19.958  0.00  0.00    +0.000 A 
ATOM     10  N   UNL     1      -0.059  11.451  20.696  0.00  0.00    +0.000 N 
ATOM     11  C   UNL     1      -0.613  11.162  21.947  0.00  0.00    +0.000 C 
ATOM     12  O   UNL     1      -0.568  10.068  22.503  0.00  0.00    +0.000 OA
ENDROOT
BRANCH  11  13
ATOM     13  C   UNL     1      -1.365  12.229  22.668  0.00  0.00    +0.000 A 
ATOM     14  C   UNL     1      -2.631  11.936  23.193  0.00  0.00    +0.000 A 
ATOM     15  C   UNL     1      -3.313  12.894  23.945  0.00  0.00    +0.000 A 
ATOM     16 CL   UNL     1      -4.862  12.526  24.597  0.00  0.00    +0.000 Cl
ATOM     17  C   UNL     1      -2.746  14.144  24.182  0.00  0.00    +0.000 A 
ATOM     18  C   UNL     1      -1.490  14.432  23.657  0.00  0.00    +0.000 A 
ATOM     19 CL   UNL     1      -0.780  15.972  23.939  0.00  0.00    +0.000 Cl
ATOM     20  C   UNL     1      -0.789  13.482  22.909  0.00  0.00    +0.000 A 
ENDBRANCH  11  13
BRANCH   2  21
ATOM     21  C   UNL     1       0.476  14.649  19.042  0.00  0.00    +0.000 A 
ATOM     22  C   UNL     1      -0.708  15.348  19.329  0.00  0.00    +0.000 A 
ATOM     23  C   UNL     1      -0.728  16.743  19.330  0.00  0.00    +0.000 A 
ATOM     24  C   UNL     1       0.437  17.451  19.043  0.00  0.00    +0.000 A 
ATOM     25  C   UNL     1       1.614  16.763  18.748  0.00  0.00    +0.000 A 
ATOM     26  C   UNL     1       1.640  15.361  18.749  0.00  0.00    +0.000 A 
ENDBRANCH   2  21
BRANCH   1  28
ATOM     27  O   UNL     1      -2.211  10.568  19.127  0.00  0.00    +0.000 OA
ATOM     28  C   UNL     1      -1.654  11.610  18.794  0.00  0.00    +0.000 C 
ATOM     29  N   UNL     1      -1.680  12.096  17.493  0.00  0.00    +0.000 N 
ATOM     30  H   UNL     1      -1.214  12.975  17.316  0.00  0.00    +0.000 HD
BRANCH  29  31
ATOM     31  C   UNL     1      -2.481  11.600  16.394  0.00  0.00    +0.000 C 
ATOM     32  C   UNL     1      -2.180  10.121  16.122  0.00  0.00    +0.000 C 
ATOM     33  C   UNL     1      -3.420   9.591  15.422  0.00  0.00    +0.000 C 
ATOM     34  C   UNL     1      -4.568  10.494  15.854  0.00  0.00    +0.000 C 
ATOM     35  C   UNL     1      -3.962  11.570  16.751  0.00  0.00    +0.000 C 
ENDBRANCH  29  31
ENDBRANCH   1  28
TORSDOF 4
ENDMDL
MODEL 8
REMARK VINA RESULT:      -7.7      0.837      1.156
REMARK  Name = 
REMARK  4 active torsions:
REMARK  status: ('A' for Active; 'I' for Inactive)
REMARK    1  A    between atoms: C_2  and  C_9
REMARK    2  A    between atoms: N_3  and  C_4
REMARK    3  A    between atoms: C_10  and  C_11
REMARK    4  A    between atoms: C_25  and  C_27
REMARK                            x       y       z     vdW  Elec       q    Type
REMARK                         _______ _______ _______ _____ _____    ______ ____
ROOT
ATOM      1  C   UNL     1      -1.042  11.949  19.924  0.00  0.00    +0.000 C 
ATOM      2  C   UNL     1      -2.450  11.948  19.326  0.00  0.00    +0.000 C 
ATOM      3  N   UNL     1      -3.466  12.419  19.989  0.00  0.00    +0.000 NA
ATOM      4  C   UNL     1      -3.195  12.844  21.299  0.00  0.00    +0.000 A 
ATOM      5  C   UNL     1      -3.997  13.846  21.837  0.00  0.00    +0.000 A 
ATOM      6  C   UNL     1      -3.778  14.282  23.138  0.00  0.00    +0.000 A 
ATOM      7  C   UNL     1      -2.800  13.664  23.918  0.00  0.00    +0.000 A 
ATOM      8  C   UNL     1      -1.999  12.638  23.394  0.00  0.00    +0.000 A 
ATOM      9  C   UNL     1      -2.147  12.257  22.059  0.00  0.00    +0.000 A 
ATOM     10  N   UNL     1      -1.203  11.426  21.324  0.00  0.00    +0.000 N 
ATOM     11  C   UNL     1      -0.236  10.604  21.912  0.00  0.00    +0.000 C 
ATOM     12  O   UNL     1       0.066  10.610  23.102  0.00  0.00    +0.000 OA
ENDROOT
BRANCH  11  13
ATOM     13  C   UNL     1       0.541   9.671  21.047  0.00  0.00    +0.000 A 
ATOM     14  C   UNL     1       0.712   8.341  21.456  0.00  0.00    +0.000 A 
ATOM     15  C   UNL     1       1.361   7.432  20.618  0.00  0.00    +0.000 A 
ATOM     16 CL   UNL     1       1.559   5.799  21.120  0.00  0.00    +0.000 Cl
ATOM     17  C   UNL     1       1.843   7.834  19.375  0.00  0.00    +0.000 A 
ATOM     18  C   UNL     1       1.673   9.155  18.974  0.00  0.00    +0.000 A 
ATOM     19 CL   UNL     1       2.266   9.664  17.442  0.00  0.00    +0.000 Cl
ATOM     20  C   UNL     1       1.018  10.077  19.795  0.00  0.00    +0.000 A 
ENDBRANCH  11  13
BRANCH   2  21
ATOM     21  C   UNL     1      -2.719  11.281  18.019  0.00  0.00    +0.000 A 
ATOM     22  C   UNL     1      -1.799  10.322  17.564  0.00  0.00    +0.000 A 
ATOM     23  C   UNL     1      -2.001   9.661  16.352  0.00  0.00    +0.000 A 
ATOM     24  C   UNL     1      -3.125   9.956  15.583  0.00  0.00    +0.000 A 
ATOM     25  C   UNL     1      -4.037  10.916  16.024  0.00  0.00    +0.000 A 
ATOM     26  C   UNL     1      -3.840  11.579  17.243  0.00  0.00    +0.000 A 
ENDBRANCH   2  21
BRANCH   1  28
ATOM     27  O   UNL     1       0.485  13.643  20.852  0.00  0.00    +0.000 OA
ATOM     28  C   UNL     1      -0.356  13.357  20.005  0.00  0.00    +0.000 C 
ATOM     29  N   UNL     1      -0.891  14.291  19.128  0.00  0.00    +0.000 N 
ATOM     30  H   UNL     1      -1.561  13.960  18.447  0.00  0.00    +0.000 HD
BRANCH  29  31
ATOM     31  C   UNL     1      -0.445  15.654  18.929  0.00  0.00    +0.000 C 
ATOM     32  C   UNL     1      -0.749  16.514  20.163  0.00  0.00    +0.000 C 
ATOM     33  C   UNL     1       0.239  17.666  20.089  0.00  0.00    +0.000 C 
ATOM     34  C   UNL     1       1.422  17.158  19.276  0.00  0.00    +0.000 C 
ATOM     35  C   UNL     1       1.073  15.738  18.840  0.00  0.00    +0.000 C 
ENDBRANCH  29  31
ENDBRANCH   1  28
TORSDOF 4
ENDMDL
MODEL 9
REMARK VINA RESULT:      -7.7      2.832      6.568
REMARK  Name = 
REMARK  4 active torsions:
REMARK  status: ('A' for Active; 'I' for Inactive)
REMARK    1  A    between atoms: C_2  and  C_9
REMARK    2  A    between atoms: N_3  and  C_4
REMARK    3  A    between atoms: C_10  and  C_11
REMARK    4  A    between atoms: C_25  and  C_27
REMARK                            x       y       z     vdW  Elec       q    Type
REMARK                         _______ _______ _______ _____ _____    ______ ____
ROOT
ATOM      1  C   UNL     1      -0.709  12.407  19.822  0.00  0.00    +0.000 C 
ATOM      2  C   UNL     1       0.431  13.158  19.131  0.00  0.00    +0.000 C 
ATOM      3  N   UNL     1       1.451  12.524  18.629  0.00  0.00    +0.000 NA
ATOM      4  C   UNL     1       1.468  11.136  18.837  0.00  0.00    +0.000 A 
ATOM      5  C   UNL     1       2.128  10.346  17.900  0.00  0.00    +0.000 A 
ATOM      6  C   UNL     1       2.189   8.970  18.077  0.00  0.00    +0.000 A 
ATOM      7  C   UNL     1       1.646   8.396  19.229  0.00  0.00    +0.000 A 
ATOM      8  C   UNL     1       0.997   9.185  20.191  0.00  0.00    +0.000 A 
ATOM      9  C   UNL     1       0.849  10.556  19.977  0.00  0.00    +0.000 A 
ATOM     10  N   UNL     1      -0.039  11.423  20.740  0.00  0.00    +0.000 N 
ATOM     11  C   UNL     1      -0.577  11.112  21.994  0.00  0.00    +0.000 C 
ATOM     12  O   UNL     1      -0.523  10.009  22.530  0.00  0.00    +0.000 OA
ENDROOT
BRANCH  11  13
ATOM     13  C   UNL     1      -1.323  12.165  22.741  0.00  0.00    +0.000 A 
ATOM     14  C   UNL     1      -0.752  13.438  22.881  0.00  0.00    +0.000 A 
ATOM     15  C   UNL     1      -1.473  14.460  23.501  0.00  0.00    +0.000 A 
ATOM     16 CL   UNL     1      -0.772  16.023  23.662  0.00  0.00    +0.000 Cl
ATOM     17  C   UNL     1      -2.759  14.230  23.983  0.00  0.00    +0.000 A 
ATOM     18  C   UNL     1      -3.321  12.964  23.843  0.00  0.00    +0.000 A 
ATOM     19 CL   UNL     1      -4.907  12.666  24.436  0.00  0.00    +0.000 Cl
ATOM     20  C   UNL     1      -2.618  11.931  23.217  0.00  0.00    +0.000 A 
ENDBRANCH  11  13
BRANCH   2  21
ATOM     21  C   UNL     1       0.470  14.649  19.134  0.00  0.00    +0.000 A 
ATOM     22  C   UNL     1      -0.683  15.340  19.543  0.00  0.00    +0.000 A 
ATOM     23  C   UNL     1      -0.704  16.735  19.573  0.00  0.00    +0.000 A 
ATOM     24  C   UNL     1       0.429  17.451  19.192  0.00  0.00    +0.000 A 
ATOM     25  C   UNL     1       1.574  16.771  18.776  0.00  0.00    +0.000 A 
ATOM     26  C   UNL     1       1.600  15.370  18.748  0.00  0.00    +0.000 A 
ENDBRANCH   2  21
BRANCH   1  28
ATOM     27  O   UNL     1      -2.231  10.576  19.192  0.00  0.00    +0.000 OA
ATOM     28  C   UNL     1      -1.658  11.610  18.861  0.00  0.00    +0.000 C 
ATOM     29  N   UNL     1      -1.675  12.098  17.560  0.00  0.00    +0.000 N 
ATOM     30  H   UNL     1      -1.196  12.970  17.384  0.00  0.00    +0.000 HD
BRANCH  29  31
ATOM     31  C   UNL     1      -2.481  11.614  16.459  0.00  0.00    +0.000 C 
ATOM     32  C   UNL     1      -2.185  10.136  16.173  0.00  0.00    +0.000 C 
ATOM     33  C   UNL     1      -3.429   9.617  15.473  0.00  0.00    +0.000 C 
ATOM     34  C   UNL     1      -4.573  10.518  15.918  0.00  0.00    +0.000 C 
ATOM     35  C   UNL     1      -3.961  11.584  16.821  0.00  0.00    +0.000 C 
ENDBRANCH  29  31
ENDBRANCH   1  28
TORSDOF 4
ENDMDL
