MODEL 1
REMARK VINA RESULT:      -8.4      0.000      0.000
REMARK  Name = 
REMARK  7 active torsions:
REMARK  status: ('A' for Active; 'I' for Inactive)
REMARK    1  A    between atoms: C_1  and  N_2
REMARK    2  A    between atoms: C_4  and  C_5
REMARK    3  A    between atoms: C_7  and  N_8
REMARK    4  A    between atoms: N_8  and  S_9
REMARK    5  A    between atoms: S_9  and  C_10
REMARK    6  A    between atoms: C_15  and  O_16
REMARK    7  A    between atoms: O_16  and  C_17
REMARK                            x       y       z     vdW  Elec       q    Type
REMARK                         _______ _______ _______ _____ _____    ______ ____
ROOT
ATOM      1  C   UNL     1       3.160   7.492  18.316  0.00  0.00    +0.000 A 
ATOM      2  C   UNL     1       2.820   8.744  17.754  0.00  0.00    +0.000 A 
ATOM      3  C   UNL     1       1.901   9.597  18.364  0.00  0.00    +0.000 A 
ATOM      4  C   UNL     1       1.228   9.190  19.505  0.00  0.00    +0.000 A 
ATOM      5  C   UNL     1       1.493   7.933  20.043  0.00  0.00    +0.000 A 
ATOM      6  C   UNL     1       2.508   7.113  19.511  0.00  0.00    +0.000 A 
ENDROOT
BRANCH   1  10
ATOM      7  C   UNL     1       5.686   5.486  14.531  0.00  0.00    +0.000 C 
ATOM      8  N   UNL     1       5.331   5.810  15.894  0.00  0.00    +0.000 N 
ATOM      9  C   UNL     1       4.226   6.534  16.267  0.00  0.00    +0.000 A 
ATOM     10  C   UNL     1       4.220   6.709  17.651  0.00  0.00    +0.000 A 
ATOM     11  C   UNL     1       5.377   6.015  18.104  0.00  0.00    +0.000 A 
ATOM     12  C   UNL     1       5.953   5.788  19.392  0.00  0.00    +0.000 A 
ATOM     13  C   UNL     1       7.151   5.185  19.501  0.00  0.00    +0.000 A 
ATOM     14  N   UNL     1       7.823   4.726  18.385  0.00  0.00    +0.000 N 
ATOM     15  C   UNL     1       7.328   4.814  17.092  0.00  0.00    +0.000 A 
ATOM     16  O   UNL     1       7.945   4.342  16.140  0.00  0.00    +0.000 OA
ATOM     17  C   UNL     1       6.060   5.505  17.008  0.00  0.00    +0.000 A 
ATOM     18  H   UNL     1       8.722   4.271  18.477  0.00  0.00    +0.000 HD
ENDBRANCH   1  10
BRANCH   3  19
ATOM     19  N   UNL     1       1.723  10.927  17.881  0.00  0.00    +0.000 N 
ATOM     20  H   UNL     1       2.575  11.385  17.558  0.00  0.00    +0.000 HD
BRANCH  19  21
ATOM     21  S   UNL     1       0.913  12.006  18.918  0.00  0.00    +0.000 S 
ATOM     22  C   UNL     1       1.410  13.582  18.261  0.00  0.00    +0.000 C 
ATOM     23  O   UNL     1      -0.517  11.858  18.781  0.00  0.00    +0.000 OA
ATOM     24  O   UNL     1       1.558  11.847  20.207  0.00  0.00    +0.000 OA
ENDBRANCH  19  21
ENDBRANCH   3  19
BRANCH   6  25
ATOM     25  O   UNL     1       2.858   5.930  20.134  0.00  0.00    +0.000 OA
BRANCH  25  26
ATOM     26  C   UNL     1       2.200   4.757  19.827  0.00  0.00    +0.000 A 
ATOM     27  C   UNL     1       1.889   4.553  18.477  0.00  0.00    +0.000 A 
ATOM     28  C   UNL     1       1.246   3.377  18.077  0.00  0.00    +0.000 A 
ATOM     29  C   UNL     1       0.917   2.414  19.024  0.00  0.00    +0.000 A 
ATOM     30  F   UNL     1       0.290   1.295  18.638  0.00  0.00    +0.000 F 
ATOM     31  C   UNL     1       1.233   2.592  20.363  0.00  0.00    +0.000 A 
ATOM     32  C   UNL     1       1.894   3.752  20.755  0.00  0.00    +0.000 A 
ATOM     33  F   UNL     1       2.211   3.888  22.049  0.00  0.00    +0.000 F 
ENDBRANCH  25  26
ENDBRANCH   6  25
TORSDOF 5
ENDMDL
MODEL 2
REMARK VINA RESULT:      -8.4      6.512     10.173
REMARK  Name = 
REMARK  7 active torsions:
REMARK  status: ('A' for Active; 'I' for Inactive)
REMARK    1  A    between atoms: C_1  and  N_2
REMARK    2  A    between atoms: C_4  and  C_5
REMARK    3  A    between atoms: C_7  and  N_8
REMARK    4  A    between atoms: N_8  and  S_9
REMARK    5  A    between atoms: S_9  and  C_10
REMARK    6  A    between atoms: C_15  and  O_16
REMARK    7  A    between atoms: O_16  and  C_17
REMARK                            x       y       z     vdW  Elec       q    Type
REMARK                         _______ _______ _______ _____ _____    ______ ____
ROOT
ATOM      1  C   UNL     1      -1.902  12.581  23.049  0.00  0.00    +0.000 A 
ATOM      2  C   UNL     1      -3.129  12.075  23.538  0.00  0.00    +0.000 A 
ATOM      3  C   UNL     1      -3.955  12.831  24.370  0.00  0.00    +0.000 A 
ATOM      4  C   UNL     1      -3.542  14.078  24.810  0.00  0.00    +0.000 A 
ATOM      5  C   UNL     1      -2.308  14.575  24.398  0.00  0.00    +0.000 A 
ATOM      6  C   UNL     1      -1.520  13.878  23.460  0.00  0.00    +0.000 A 
ENDROOT
BRANCH   1  10
ATOM      7  C   UNL     1       1.169   8.973  21.540  0.00  0.00    +0.000 C 
ATOM      8  N   UNL     1       0.262  10.095  21.455  0.00  0.00    +0.000 N 
ATOM      9  C   UNL     1      -0.276  10.754  22.532  0.00  0.00    +0.000 A 
ATOM     10  C   UNL     1      -1.152  11.746  22.091  0.00  0.00    +0.000 A 
ATOM     11  C   UNL     1      -1.089  11.672  20.671  0.00  0.00    +0.000 A 
ATOM     12  C   UNL     1      -1.718  12.401  19.615  0.00  0.00    +0.000 A 
ATOM     13  C   UNL     1      -1.556  12.013  18.336  0.00  0.00    +0.000 A 
ATOM     14  N   UNL     1      -0.742  10.946  18.011  0.00  0.00    +0.000 N 
ATOM     15  C   UNL     1      -0.015  10.216  18.940  0.00  0.00    +0.000 A 
ATOM     16  O   UNL     1       0.735   9.308  18.591  0.00  0.00    +0.000 OA
ATOM     17  C   UNL     1      -0.247  10.631  20.306  0.00  0.00    +0.000 A 
ATOM     18  H   UNL     1      -0.624  10.665  17.047  0.00  0.00    +0.000 HD
ENDBRANCH   1  10
BRANCH   3  19
ATOM     19  N   UNL     1      -5.267  12.372  24.690  0.00  0.00    +0.000 N 
ATOM     20  H   UNL     1      -5.329  11.385  24.938  0.00  0.00    +0.000 HD
BRANCH  19  21
ATOM     21  S   UNL     1      -6.482  12.699  23.545  0.00  0.00    +0.000 S 
ATOM     22  C   UNL     1      -7.191  14.199  24.187  0.00  0.00    +0.000 C 
ATOM     23  O   UNL     1      -5.896  12.961  22.251  0.00  0.00    +0.000 OA
ATOM     24  O   UNL     1      -7.460  11.643  23.720  0.00  0.00    +0.000 OA
ENDBRANCH  19  21
ENDBRANCH   3  19
BRANCH   6  25
ATOM     25  O   UNL     1      -0.364  14.441  22.952  0.00  0.00    +0.000 OA
BRANCH  25  26
ATOM     26  C   UNL     1      -0.344  14.965  21.676  0.00  0.00    +0.000 A 
ATOM     27  C   UNL     1      -1.441  15.753  21.309  0.00  0.00    +0.000 A 
ATOM     28  C   UNL     1      -1.486  16.344  20.042  0.00  0.00    +0.000 A 
ATOM     29  C   UNL     1      -0.439  16.144  19.150  0.00  0.00    +0.000 A 
ATOM     30  F   UNL     1      -0.492  16.702  17.933  0.00  0.00    +0.000 F 
ATOM     31  C   UNL     1       0.664  15.380  19.503  0.00  0.00    +0.000 A 
ATOM     32  C   UNL     1       0.717  14.813  20.773  0.00  0.00    +0.000 A 
ATOM     33  F   UNL     1       1.804  14.102  21.099  0.00  0.00    +0.000 F 
ENDBRANCH  25  26
ENDBRANCH   6  25
TORSDOF 5
ENDMDL
MODEL 3
REMARK VINA RESULT:      -8.3      1.493      1.655
REMARK  Name = 
REMARK  7 active torsions:
REMARK  status: ('A' for Active; 'I' for Inactive)
REMARK    1  A    between atoms: C_1  and  N_2
REMARK    2  A    between atoms: C_4  and  C_5
REMARK    3  A    between atoms: C_7  and  N_8
REMARK    4  A    between atoms: N_8  and  S_9
REMARK    5  A    between atoms: S_9  and  C_10
REMARK    6  A    between atoms: C_15  and  O_16
REMARK    7  A    between atoms: O_16  and  C_17
REMARK                            x       y       z     vdW  Elec       q    Type
REMARK                         _______ _______ _______ _____ _____    ______ ____
ROOT
ATOM      1  C   UNL     1       2.885   7.366  18.495  0.00  0.00    +0.000 A 
ATOM      2  C   UNL     1       2.347   8.510  17.860  0.00  0.00    +0.000 A 
ATOM      3  C   UNL     1       1.451   9.357  18.513  0.00  0.00    +0.000 A 
ATOM      4  C   UNL     1       0.999   9.043  19.784  0.00  0.00    +0.000 A 
ATOM      5  C   UNL     1       1.461   7.887  20.408  0.00  0.00    +0.000 A 
ATOM      6  C   UNL     1       2.459   7.089  19.814  0.00  0.00    +0.000 A 
ENDROOT
BRANCH   1  10
ATOM      7  C   UNL     1       4.699   3.691  15.677  0.00  0.00    +0.000 C 
ATOM      8  N   UNL     1       4.683   4.893  16.480  0.00  0.00    +0.000 N 
ATOM      9  C   UNL     1       3.580   5.393  17.126  0.00  0.00    +0.000 A 
ATOM     10  C   UNL     1       3.904   6.593  17.759  0.00  0.00    +0.000 A 
ATOM     11  C   UNL     1       5.288   6.778  17.485  0.00  0.00    +0.000 A 
ATOM     12  C   UNL     1       6.241   7.782  17.840  0.00  0.00    +0.000 A 
ATOM     13  C   UNL     1       7.480   7.754  17.318  0.00  0.00    +0.000 A 
ATOM     14  N   UNL     1       7.878   6.733  16.477  0.00  0.00    +0.000 N 
ATOM     15  C   UNL     1       7.071   5.659  16.128  0.00  0.00    +0.000 A 
ATOM     16  O   UNL     1       7.493   4.751  15.417  0.00  0.00    +0.000 OA
ATOM     17  C   UNL     1       5.734   5.745  16.671  0.00  0.00    +0.000 A 
ATOM     18  H   UNL     1       8.814   6.718  16.092  0.00  0.00    +0.000 HD
ENDBRANCH   1  10
BRANCH   3  19
ATOM     19  N   UNL     1       1.076  10.600  17.922  0.00  0.00    +0.000 N 
ATOM     20  H   UNL     1       1.356  10.714  16.947  0.00  0.00    +0.000 HD
BRANCH  19  21
ATOM     21  S   UNL     1       1.532  12.006  18.764  0.00  0.00    +0.000 S 
ATOM     22  C   UNL     1       0.209  13.121  18.350  0.00  0.00    +0.000 C 
ATOM     23  O   UNL     1       1.528  11.763  20.187  0.00  0.00    +0.000 OA
ATOM     24  O   UNL     1       2.727  12.477  18.091  0.00  0.00    +0.000 OA
ENDBRANCH  19  21
ENDBRANCH   3  19
BRANCH   6  25
ATOM     25  O   UNL     1       3.011   6.022  20.498  0.00  0.00    +0.000 OA
BRANCH  25  26
ATOM     26  C   UNL     1       2.630   4.729  20.202  0.00  0.00    +0.000 A 
ATOM     27  C   UNL     1       1.256   4.465  20.226  0.00  0.00    +0.000 A 
ATOM     28  C   UNL     1       0.784   3.186  19.911  0.00  0.00    +0.000 A 
ATOM     29  C   UNL     1       1.684   2.181  19.577  0.00  0.00    +0.000 A 
ATOM     30  F   UNL     1       1.228   0.955  19.288  0.00  0.00    +0.000 F 
ATOM     31  C   UNL     1       3.049   2.430  19.532  0.00  0.00    +0.000 A 
ATOM     32  C   UNL     1       3.513   3.710  19.822  0.00  0.00    +0.000 A 
ATOM     33  F   UNL     1       4.832   3.931  19.746  0.00  0.00    +0.000 F 
ENDBRANCH  25  26
ENDBRANCH   6  25
TORSDOF 5
ENDMDL
MODEL 4
REMARK VINA RESULT:      -8.3      5.132      8.482
REMARK  Name = 
REMARK  7 active torsions:
REMARK  status: ('A' for Active; 'I' for Inactive)
REMARK    1  A    between atoms: C_1  and  N_2
REMARK    2  A    between atoms: C_4  and  C_5
REMARK    3  A    between atoms: C_7  and  N_8
REMARK    4  A    between atoms: N_8  and  S_9
REMARK    5  A    between atoms: S_9  and  C_10
REMARK    6  A    between atoms: C_15  and  O_16
REMARK    7  A    between atoms: O_16  and  C_17
REMARK                            x       y       z     vdW  Elec       q    Type
REMARK                         _______ _______ _______ _____ _____    ______ ____
ROOT
ATOM      1  C   UNL     1      -0.554  12.796  19.435  0.00  0.00    +0.000 A 
ATOM      2  C   UNL     1      -0.167  14.102  19.055  0.00  0.00    +0.000 A 
ATOM      3  C   UNL     1       1.157  14.531  19.150  0.00  0.00    +0.000 A 
ATOM      4  C   UNL     1       2.117  13.703  19.707  0.00  0.00    +0.000 A 
ATOM      5  C   UNL     1       1.752  12.435  20.152  0.00  0.00    +0.000 A 
ATOM      6  C   UNL     1       0.447  11.941  19.948  0.00  0.00    +0.000 A 
ENDROOT
BRANCH   1  10
ATOM      7  C   UNL     1      -5.418  12.377  20.381  0.00  0.00    +0.000 C 
ATOM      8  N   UNL     1      -4.163  12.230  19.678  0.00  0.00    +0.000 N 
ATOM      9  C   UNL     1      -2.944  12.647  20.152  0.00  0.00    +0.000 A 
ATOM     10  C   UNL     1      -1.957  12.403  19.198  0.00  0.00    +0.000 A 
ATOM     11  C   UNL     1      -2.647  11.777  18.122  0.00  0.00    +0.000 A 
ATOM     12  C   UNL     1      -2.240  11.262  16.852  0.00  0.00    +0.000 A 
ATOM     13  C   UNL     1      -3.160  10.830  15.971  0.00  0.00    +0.000 A 
ATOM     14  N   UNL     1      -4.504  10.821  16.289  0.00  0.00    +0.000 N 
ATOM     15  C   UNL     1      -5.012  11.217  17.518  0.00  0.00    +0.000 A 
ATOM     16  O   UNL     1      -6.212  11.140  17.765  0.00  0.00    +0.000 OA
ATOM     17  C   UNL     1      -4.000  11.716  18.423  0.00  0.00    +0.000 A 
ATOM     18  H   UNL     1      -5.188  10.491  15.620  0.00  0.00    +0.000 HD
ENDBRANCH   1  10
BRANCH   3  19
ATOM     19  N   UNL     1       1.551  15.780  18.583  0.00  0.00    +0.000 N 
ATOM     20  H   UNL     1       2.547  15.863  18.378  0.00  0.00    +0.000 HD
BRANCH  19  21
ATOM     21  S   UNL     1       1.072  17.177  19.428  0.00  0.00    +0.000 S 
ATOM     22  C   UNL     1       1.334  16.686  21.117  0.00  0.00    +0.000 C 
ATOM     23  O   UNL     1       1.946  18.281  19.108  0.00  0.00    +0.000 OA
ATOM     24  O   UNL     1      -0.359  17.274  19.218  0.00  0.00    +0.000 OA
ENDBRANCH  19  21
ENDBRANCH   3  19
BRANCH   6  25
ATOM     25  O   UNL     1       0.130  10.633  20.267  0.00  0.00    +0.000 OA
BRANCH  25  26
ATOM     26  C   UNL     1       0.846   9.587  19.724  0.00  0.00    +0.000 A 
ATOM     27  C   UNL     1       1.095   9.652  18.348  0.00  0.00    +0.000 A 
ATOM     28  C   UNL     1       1.838   8.645  17.723  0.00  0.00    +0.000 A 
ATOM     29  C   UNL     1       2.326   7.581  18.473  0.00  0.00    +0.000 A 
ATOM     30  F   UNL     1       3.027   6.613  17.867  0.00  0.00    +0.000 F 
ATOM     31  C   UNL     1       2.103   7.510  19.840  0.00  0.00    +0.000 A 
ATOM     32  C   UNL     1       1.384   8.525  20.464  0.00  0.00    +0.000 A 
ATOM     33  F   UNL     1       1.205   8.446  21.788  0.00  0.00    +0.000 F 
ENDBRANCH  25  26
ENDBRANCH   6  25
TORSDOF 5
ENDMDL
MODEL 5
REMARK VINA RESULT:      -8.2      5.257      8.598
REMARK  Name = 
REMARK  7 active torsions:
REMARK  status: ('A' for Active; 'I' for Inactive)
REMARK    1  A    between atoms: C_1  and  N_2
REMARK    2  A    between atoms: C_4  and  C_5
REMARK    3  A    between atoms: C_7  and  N_8
REMARK    4  A    between atoms: N_8  and  S_9
REMARK    5  A    between atoms: S_9  and  C_10
REMARK    6  A    between atoms: C_15  and  O_16
REMARK    7  A    between atoms: O_16  and  C_17
REMARK                            x       y       z     vdW  Elec       q    Type
REMARK                         _______ _______ _______ _____ _____    ______ ____
ROOT
ATOM      1  C   UNL     1      -0.956  12.705  20.123  0.00  0.00    +0.000 A 
ATOM      2  C   UNL     1      -0.568  14.064  20.159  0.00  0.00    +0.000 A 
ATOM      3  C   UNL     1       0.738  14.446  20.465  0.00  0.00    +0.000 A 
ATOM      4  C   UNL     1       1.673  13.492  20.831  0.00  0.00    +0.000 A 
ATOM      5  C   UNL     1       1.301  12.150  20.870  0.00  0.00    +0.000 A 
ATOM      6  C   UNL     1       0.024  11.737  20.443  0.00  0.00    +0.000 A 
ENDROOT
BRANCH   1  10
ATOM      7  C   UNL     1      -5.921  12.576  20.367  0.00  0.00    +0.000 C 
ATOM      8  N   UNL     1      -4.590  12.356  19.848  0.00  0.00    +0.000 N 
ATOM      9  C   UNL     1      -3.428  12.698  20.494  0.00  0.00    +0.000 A 
ATOM     10  C   UNL     1      -2.332  12.398  19.686  0.00  0.00    +0.000 A 
ATOM     11  C   UNL     1      -2.898  11.818  18.516  0.00  0.00    +0.000 A 
ATOM     12  C   UNL     1      -2.346  11.284  17.311  0.00  0.00    +0.000 A 
ATOM     13  C   UNL     1      -3.156  10.911  16.303  0.00  0.00    +0.000 A 
ATOM     14  N   UNL     1      -4.530  10.982  16.428  0.00  0.00    +0.000 N 
ATOM     15  C   UNL     1      -5.182  11.404  17.577  0.00  0.00    +0.000 A 
ATOM     16  O   UNL     1      -6.408  11.398  17.652  0.00  0.00    +0.000 OA
ATOM     17  C   UNL     1      -4.282  11.838  18.622  0.00  0.00    +0.000 A 
ATOM     18  H   UNL     1      -5.131  10.696  15.666  0.00  0.00    +0.000 HD
ENDBRANCH   1  10
BRANCH   3  19
ATOM     19  N   UNL     1       1.146  15.804  20.306  0.00  0.00    +0.000 N 
ATOM     20  H   UNL     1       0.400  16.492  20.407  0.00  0.00    +0.000 HD
BRANCH  19  21
ATOM     21  S   UNL     1       2.006  16.173  18.884  0.00  0.00    +0.000 S 
ATOM     22  C   UNL     1       3.556  16.749  19.539  0.00  0.00    +0.000 C 
ATOM     23  O   UNL     1       2.228  14.977  18.107  0.00  0.00    +0.000 OA
ATOM     24  O   UNL     1       1.320  17.316  18.314  0.00  0.00    +0.000 OA
ENDBRANCH  19  21
ENDBRANCH   3  19
BRANCH   6  25
ATOM     25  O   UNL     1      -0.291  10.394  20.354  0.00  0.00    +0.000 OA
BRANCH  25  26
ATOM     26  C   UNL     1       0.587   9.507  19.765  0.00  0.00    +0.000 A 
ATOM     27  C   UNL     1       0.858   9.710  18.406  0.00  0.00    +0.000 A 
ATOM     28  C   UNL     1       1.758   8.872  17.740  0.00  0.00    +0.000 A 
ATOM     29  C   UNL     1       2.381   7.839  18.431  0.00  0.00    +0.000 A 
ATOM     30  F   UNL     1       3.233   7.032  17.785  0.00  0.00    +0.000 F 
ATOM     31  C   UNL     1       2.137   7.635  19.781  0.00  0.00    +0.000 A 
ATOM     32  C   UNL     1       1.259   8.485  20.448  0.00  0.00    +0.000 A 
ATOM     33  F   UNL     1       1.061   8.282  21.756  0.00  0.00    +0.000 F 
ENDBRANCH  25  26
ENDBRANCH   6  25
TORSDOF 5
ENDMDL
MODEL 6
REMARK VINA RESULT:      -8.1      4.322      6.711
REMARK  Name = 
REMARK  7 active torsions:
REMARK  status: ('A' for Active; 'I' for Inactive)
REMARK    1  A    between atoms: C_1  and  N_2
REMARK    2  A    between atoms: C_4  and  C_5
REMARK    3  A    between atoms: C_7  and  N_8
REMARK    4  A    between atoms: N_8  and  S_9
REMARK    5  A    between atoms: S_9  and  C_10
REMARK    6  A    between atoms: C_15  and  O_16
REMARK    7  A    between atoms: O_16  and  C_17
REMARK                            x       y       z     vdW  Elec       q    Type
REMARK                         _______ _______ _______ _____ _____    ______ ____
ROOT
ATOM      1  C   UNL     1       0.805  11.688  19.030  0.00  0.00    +0.000 A 
ATOM      2  C   UNL     1       1.763  12.723  19.141  0.00  0.00    +0.000 A 
ATOM      3  C   UNL     1       1.387  14.056  19.305  0.00  0.00    +0.000 A 
ATOM      4  C   UNL     1       0.048  14.408  19.275  0.00  0.00    +0.000 A 
ATOM      5  C   UNL     1      -0.916  13.419  19.100  0.00  0.00    +0.000 A 
ATOM      6  C   UNL     1      -0.560  12.056  19.059  0.00  0.00    +0.000 A 
ENDROOT
BRANCH   1  10
ATOM      7  C   UNL     1       3.277   7.786  17.188  0.00  0.00    +0.000 C 
ATOM      8  N   UNL     1       2.437   8.551  18.082  0.00  0.00    +0.000 N 
ATOM      9  C   UNL     1       2.063   9.857  17.885  0.00  0.00    +0.000 A 
ATOM     10  C   UNL     1       1.303  10.301  18.966  0.00  0.00    +0.000 A 
ATOM     11  C   UNL     1       1.206   9.168  19.823  0.00  0.00    +0.000 A 
ATOM     12  C   UNL     1       0.566   8.930  21.078  0.00  0.00    +0.000 A 
ATOM     13  C   UNL     1       0.758   7.766  21.726  0.00  0.00    +0.000 A 
ATOM     14  N   UNL     1       1.528   6.761  21.174  0.00  0.00    +0.000 N 
ATOM     15  C   UNL     1       2.130   6.843  19.927  0.00  0.00    +0.000 A 
ATOM     16  O   UNL     1       2.762   5.898  19.461  0.00  0.00    +0.000 OA
ATOM     17  C   UNL     1       1.938   8.122  19.279  0.00  0.00    +0.000 A 
ATOM     18  H   UNL     1       1.664   5.888  21.667  0.00  0.00    +0.000 HD
ENDBRANCH   1  10
BRANCH   3  19
ATOM     19  N   UNL     1       2.367  15.048  19.606  0.00  0.00    +0.000 N 
ATOM     20  H   UNL     1       3.158  15.080  18.962  0.00  0.00    +0.000 HD
BRANCH  19  21
ATOM     21  S   UNL     1       2.986  15.043  21.191  0.00  0.00    +0.000 S 
ATOM     22  C   UNL     1       3.051  16.782  21.559  0.00  0.00    +0.000 C 
ATOM     23  O   UNL     1       2.059  14.397  22.090  0.00  0.00    +0.000 OA
ATOM     24  O   UNL     1       4.351  14.572  21.062  0.00  0.00    +0.000 OA
ENDBRANCH  19  21
ENDBRANCH   3  19
BRANCH   6  25
ATOM     25  O   UNL     1      -1.531  11.072  19.024  0.00  0.00    +0.000 OA
BRANCH  25  26
ATOM     26  C   UNL     1      -2.288  10.878  17.887  0.00  0.00    +0.000 A 
ATOM     27  C   UNL     1      -1.755  10.013  16.924  0.00  0.00    +0.000 A 
ATOM     28  C   UNL     1      -2.471   9.741  15.754  0.00  0.00    +0.000 A 
ATOM     29  C   UNL     1      -3.713  10.334  15.551  0.00  0.00    +0.000 A 
ATOM     30  F   UNL     1      -4.390  10.079  14.424  0.00  0.00    +0.000 F 
ATOM     31  C   UNL     1      -4.264  11.180  16.503  0.00  0.00    +0.000 A 
ATOM     32  C   UNL     1      -3.559  11.430  17.677  0.00  0.00    +0.000 A 
ATOM     33  F   UNL     1      -4.124  12.229  18.591  0.00  0.00    +0.000 F 
ENDBRANCH  25  26
ENDBRANCH   6  25
TORSDOF 5
ENDMDL
MODEL 7
REMARK VINA RESULT:      -8.1      5.037      8.530
REMARK  Name = 
REMARK  7 active torsions:
REMARK  status: ('A' for Active; 'I' for Inactive)
REMARK    1  A    between atoms: C_1  and  N_2
REMARK    2  A    between atoms: C_4  and  C_5
REMARK    3  A    between atoms: C_7  and  N_8
REMARK    4  A    between atoms: N_8  and  S_9
REMARK    5  A    between atoms: S_9  and  C_10
REMARK    6  A    between atoms: C_15  and  O_16
REMARK    7  A    between atoms: O_16  and  C_17
REMARK                            x       y       z     vdW  Elec       q    Type
REMARK                         _______ _______ _______ _____ _____    ______ ____
ROOT
ATOM      1  C   UNL     1      -0.513  12.736  19.416  0.00  0.00    +0.000 A 
ATOM      2  C   UNL     1      -0.089  14.027  19.022  0.00  0.00    +0.000 A 
ATOM      3  C   UNL     1       1.246  14.420  19.109  0.00  0.00    +0.000 A 
ATOM      4  C   UNL     1       2.184  13.570  19.673  0.00  0.00    +0.000 A 
ATOM      5  C   UNL     1       1.784  12.318  20.132  0.00  0.00    +0.000 A 
ATOM      6  C   UNL     1       0.466  11.859  19.936  0.00  0.00    +0.000 A 
ENDROOT
BRANCH   1  10
ATOM      7  C   UNL     1      -5.381  12.446  20.386  0.00  0.00    +0.000 C 
ATOM      8  N   UNL     1      -4.134  12.266  19.677  0.00  0.00    +0.000 N 
ATOM      9  C   UNL     1      -2.902  12.651  20.145  0.00  0.00    +0.000 A 
ATOM     10  C   UNL     1      -1.926  12.381  19.186  0.00  0.00    +0.000 A 
ATOM     11  C   UNL     1      -2.638  11.774  18.113  0.00  0.00    +0.000 A 
ATOM     12  C   UNL     1      -2.251  11.249  16.842  0.00  0.00    +0.000 A 
ATOM     13  C   UNL     1      -3.187  10.842  15.965  0.00  0.00    +0.000 A 
ATOM     14  N   UNL     1      -4.529  10.868  16.289  0.00  0.00    +0.000 N 
ATOM     15  C   UNL     1      -5.020  11.277  17.521  0.00  0.00    +0.000 A 
ATOM     16  O   UNL     1      -6.221  11.231  17.775  0.00  0.00    +0.000 OA
ATOM     17  C   UNL     1      -3.991  11.748  18.422  0.00  0.00    +0.000 A 
ATOM     18  H   UNL     1      -5.225  10.556  15.624  0.00  0.00    +0.000 HD
ENDBRANCH   1  10
BRANCH   3  19
ATOM     19  N   UNL     1       1.673  15.651  18.529  0.00  0.00    +0.000 N 
ATOM     20  H   UNL     1       2.488  15.579  17.920  0.00  0.00    +0.000 HD
BRANCH  19  21
ATOM     21  S   UNL     1       1.940  16.941  19.606  0.00  0.00    +0.000 S 
ATOM     22  C   UNL     1       3.675  16.766  19.958  0.00  0.00    +0.000 C 
ATOM     23  O   UNL     1       1.710  18.204  18.944  0.00  0.00    +0.000 OA
ATOM     24  O   UNL     1       1.212  16.586  20.808  0.00  0.00    +0.000 OA
ENDBRANCH  19  21
ENDBRANCH   3  19
BRANCH   6  25
ATOM     25  O   UNL     1       0.112  10.564  20.269  0.00  0.00    +0.000 OA
BRANCH  25  26
ATOM     26  C   UNL     1       0.880   9.499  19.846  0.00  0.00    +0.000 A 
ATOM     27  C   UNL     1       1.204   8.542  20.815  0.00  0.00    +0.000 A 
ATOM     28  C   UNL     1       1.957   7.417  20.463  0.00  0.00    +0.000 A 
ATOM     29  C   UNL     1       2.383   7.254  19.150  0.00  0.00    +0.000 A 
ATOM     30  F   UNL     1       3.114   6.181  18.821  0.00  0.00    +0.000 F 
ATOM     31  C   UNL     1       2.056   8.185  18.173  0.00  0.00    +0.000 A 
ATOM     32  C   UNL     1       1.287   9.291  18.521  0.00  0.00    +0.000 A 
ATOM     33  F   UNL     1       0.963  10.160  17.555  0.00  0.00    +0.000 F 
ENDBRANCH  25  26
ENDBRANCH   6  25
TORSDOF 5
ENDMDL
MODEL 8
REMARK VINA RESULT:      -8.1      5.012      8.395
REMARK  Name = 
REMARK  7 active torsions:
REMARK  status: ('A' for Active; 'I' for Inactive)
REMARK    1  A    between atoms: C_1  and  N_2
REMARK    2  A    between atoms: C_4  and  C_5
REMARK    3  A    between atoms: C_7  and  N_8
REMARK    4  A    between atoms: N_8  and  S_9
REMARK    5  A    between atoms: S_9  and  C_10
REMARK    6  A    between atoms: C_15  and  O_16
REMARK    7  A    between atoms: O_16  and  C_17
REMARK                            x       y       z     vdW  Elec       q    Type
REMARK                         _______ _______ _______ _____ _____    ______ ____
ROOT
ATOM      1  C   UNL     1      -0.349  12.706  19.180  0.00  0.00    +0.000 A 
ATOM      2  C   UNL     1       0.099  13.990  18.792  0.00  0.00    +0.000 A 
ATOM      3  C   UNL     1       1.395  14.428  19.066  0.00  0.00    +0.000 A 
ATOM      4  C   UNL     1       2.253  13.635  19.809  0.00  0.00    +0.000 A 
ATOM      5  C   UNL     1       1.817  12.393  20.262  0.00  0.00    +0.000 A 
ATOM      6  C   UNL     1       0.557  11.884  19.888  0.00  0.00    +0.000 A 
ENDROOT
BRANCH   1  10
ATOM      7  C   UNL     1      -3.810  10.696  16.228  0.00  0.00    +0.000 C 
ATOM      8  N   UNL     1      -3.240  11.376  17.369  0.00  0.00    +0.000 N 
ATOM      9  C   UNL     1      -1.914  11.700  17.509  0.00  0.00    +0.000 A 
ATOM     10  C   UNL     1      -1.700  12.296  18.752  0.00  0.00    +0.000 A 
ATOM     11  C   UNL     1      -2.991  12.347  19.350  0.00  0.00    +0.000 A 
ATOM     12  C   UNL     1      -3.485  12.839  20.597  0.00  0.00    +0.000 A 
ATOM     13  C   UNL     1      -4.767  12.631  20.947  0.00  0.00    +0.000 A 
ATOM     14  N   UNL     1      -5.645  11.991  20.094  0.00  0.00    +0.000 N 
ATOM     15  C   UNL     1      -5.305  11.544  18.826  0.00  0.00    +0.000 A 
ATOM     16  O   UNL     1      -6.140  11.027  18.088  0.00  0.00    +0.000 OA
ATOM     17  C   UNL     1      -3.910  11.745  18.501  0.00  0.00    +0.000 A 
ATOM     18  H   UNL     1      -6.609  11.843  20.365  0.00  0.00    +0.000 HD
ENDBRANCH   1  10
BRANCH   3  19
ATOM     19  N   UNL     1       1.877  15.645  18.498  0.00  0.00    +0.000 N 
ATOM     20  H   UNL     1       2.815  15.591  18.099  0.00  0.00    +0.000 HD
BRANCH  19  21
ATOM     21  S   UNL     1       1.813  17.022  19.496  0.00  0.00    +0.000 S 
ATOM     22  C   UNL     1       3.470  17.077  20.141  0.00  0.00    +0.000 C 
ATOM     23  O   UNL     1       1.566  18.204  18.705  0.00  0.00    +0.000 OA
ATOM     24  O   UNL     1       0.932  16.656  20.587  0.00  0.00    +0.000 OA
ENDBRANCH  19  21
ENDBRANCH   3  19
BRANCH   6  25
ATOM     25  O   UNL     1       0.187  10.595  20.226  0.00  0.00    +0.000 OA
BRANCH  25  26
ATOM     26  C   UNL     1       0.896   9.515  19.742  0.00  0.00    +0.000 A 
ATOM     27  C   UNL     1       1.191   9.526  18.374  0.00  0.00    +0.000 A 
ATOM     28  C   UNL     1       1.930   8.481  17.809  0.00  0.00    +0.000 A 
ATOM     29  C   UNL     1       2.368   7.433  18.610  0.00  0.00    +0.000 A 
ATOM     30  F   UNL     1       3.065   6.429  18.062  0.00  0.00    +0.000 F 
ATOM     31  C   UNL     1       2.099   7.415  19.971  0.00  0.00    +0.000 A 
ATOM     32  C   UNL     1       1.385   8.468  20.535  0.00  0.00    +0.000 A 
ATOM     33  F   UNL     1       1.161   8.439  21.855  0.00  0.00    +0.000 F 
ENDBRANCH  25  26
ENDBRANCH   6  25
TORSDOF 5
ENDMDL
MODEL 9
REMARK VINA RESULT:      -8.1      1.506      1.940
REMARK  Name = 
REMARK  7 active torsions:
REMARK  status: ('A' for Active; 'I' for Inactive)
REMARK    1  A    between atoms: C_1  and  N_2
REMARK    2  A    between atoms: C_4  and  C_5
REMARK    3  A    between atoms: C_7  and  N_8
REMARK    4  A    between atoms: N_8  and  S_9
REMARK    5  A    between atoms: S_9  and  C_10
REMARK    6  A    between atoms: C_15  and  O_16
REMARK    7  A    between atoms: O_16  and  C_17
REMARK                            x       y       z     vdW  Elec       q    Type
REMARK                         _______ _______ _______ _____ _____    ______ ____
ROOT
ATOM      1  C   UNL     1       3.065   7.529  18.471  0.00  0.00    +0.000 A 
ATOM      2  C   UNL     1       2.456   8.656  17.870  0.00  0.00    +0.000 A 
ATOM      3  C   UNL     1       1.364   9.298  18.454  0.00  0.00    +0.000 A 
ATOM      4  C   UNL     1       0.791   8.784  19.606  0.00  0.00    +0.000 A 
ATOM      5  C   UNL     1       1.328   7.636  20.183  0.00  0.00    +0.000 A 
ATOM      6  C   UNL     1       2.505   7.050  19.677  0.00  0.00    +0.000 A 
ENDROOT
BRANCH   1  10
ATOM      7  C   UNL     1       7.833   7.387  17.067  0.00  0.00    +0.000 C 
ATOM      8  N   UNL     1       6.455   6.972  17.207  0.00  0.00    +0.000 N 
ATOM      9  C   UNL     1       5.472   7.707  17.822  0.00  0.00    +0.000 A 
ATOM     10  C   UNL     1       4.278   6.986  17.831  0.00  0.00    +0.000 A 
ATOM     11  C   UNL     1       4.587   5.775  17.151  0.00  0.00    +0.000 A 
ATOM     12  C   UNL     1       3.828   4.615  16.802  0.00  0.00    +0.000 A 
ATOM     13  C   UNL     1       4.437   3.548  16.255  0.00  0.00    +0.000 A 
ATOM     14  N   UNL     1       5.788   3.565  15.969  0.00  0.00    +0.000 N 
ATOM     15  C   UNL     1       6.611   4.661  16.184  0.00  0.00    +0.000 A 
ATOM     16  O   UNL     1       7.796   4.640  15.862  0.00  0.00    +0.000 OA
ATOM     17  C   UNL     1       5.933   5.774  16.812  0.00  0.00    +0.000 A 
ATOM     18  H   UNL     1       6.236   2.758  15.554  0.00  0.00    +0.000 HD
ENDBRANCH   1  10
BRANCH   3  19
ATOM     19  N   UNL     1       0.895  10.539  17.930  0.00  0.00    +0.000 N 
ATOM     20  H   UNL     1       1.062  10.675  16.933  0.00  0.00    +0.000 HD
BRANCH  19  21
ATOM     21  S   UNL     1       1.407  11.944  18.742  0.00  0.00    +0.000 S 
ATOM     22  C   UNL     1       0.109  13.090  18.334  0.00  0.00    +0.000 C 
ATOM     23  O   UNL     1       1.421  11.723  20.169  0.00  0.00    +0.000 OA
ATOM     24  O   UNL     1       2.602  12.370  18.041  0.00  0.00    +0.000 OA
ENDBRANCH  19  21
ENDBRANCH   3  19
BRANCH   6  25
ATOM     25  O   UNL     1       3.108   5.995  20.336  0.00  0.00    +0.000 OA
BRANCH  25  26
ATOM     26  C   UNL     1       2.698   4.698  20.102  0.00  0.00    +0.000 A 
ATOM     27  C   UNL     1       1.316   4.483  20.050  0.00  0.00    +0.000 A 
ATOM     28  C   UNL     1       0.817   3.202  19.791  0.00  0.00    +0.000 A 
ATOM     29  C   UNL     1       1.698   2.146  19.586  0.00  0.00    +0.000 A 
ATOM     30  F   UNL     1       1.215   0.919  19.349  0.00  0.00    +0.000 F 
ATOM     31  C   UNL     1       3.071   2.346  19.616  0.00  0.00    +0.000 A 
ATOM     32  C   UNL     1       3.564   3.626  19.851  0.00  0.00    +0.000 A 
ATOM     33  F   UNL     1       4.893   3.797  19.849  0.00  0.00    +0.000 F 
ENDBRANCH  25  26
ENDBRANCH   6  25
TORSDOF 5
ENDMDL
