MODEL 1
REMARK VINA RESULT:      -5.6      0.000      0.000
REMARK  Name = 
REMARK  4 active torsions:
REMARK  status: ('A' for Active; 'I' for Inactive)
REMARK    1  A    between atoms: C_1  and  S_2
REMARK    2  A    between atoms: S_2  and  N_5
REMARK    3  A    between atoms: N_5  and  C_6
REMARK    4  A    between atoms: N_5  and  C_12
REMARK                            x       y       z     vdW  Elec       q    Type
REMARK                         _______ _______ _______ _____ _____    ______ ____
ROOT
ATOM      1  N   UNL     1       3.476   4.816  18.586  0.00  0.00    +0.000 N 
ENDROOT
BRANCH   1   2
ATOM      2  C   UNL     1       4.793   4.694  18.010  0.00  0.00    +0.000 A 
ATOM      3  C   UNL     1       4.992   4.256  16.701  0.00  0.00    +0.000 A 
ATOM      4  C   UNL     1       6.284   4.225  16.167  0.00  0.00    +0.000 A 
ATOM      5  C   UNL     1       7.375   4.604  16.950  0.00  0.00    +0.000 A 
ATOM      6  C   UNL     1       7.180   5.010  18.268  0.00  0.00    +0.000 A 
ATOM      7  C   UNL     1       5.888   5.061  18.797  0.00  0.00    +0.000 A 
ENDBRANCH   1   2
BRANCH   1   9
ATOM      8  C   UNL     1       1.376   3.594  19.973  0.00  0.00    +0.000 C 
ATOM      9  S   UNL     1       2.539   3.377  18.638  0.00  0.00    +0.000 S 
ATOM     10  O   UNL     1       3.433   2.288  18.993  0.00  0.00    +0.000 OA
ATOM     11  O   UNL     1       1.793   3.329  17.397  0.00  0.00    +0.000 OA
ENDBRANCH   1   9
BRANCH   1  12
ATOM     12  C   UNL     1       2.724   6.096  18.174  0.00  0.00    +0.000 C 
ATOM     13  C   UNL     1       2.320   7.071  19.325  0.00  0.00    +0.000 C 
ATOM     14  S   UNL     1       2.379   8.464  18.144  0.00  0.00    +0.000 S 
ATOM     15  C   UNL     1       3.527   7.223  17.452  0.00  0.00    +0.000 C 
ENDBRANCH   1  12
TORSDOF 3
ENDMDL
MODEL 2
REMARK VINA RESULT:      -5.6      0.809      1.478
REMARK  Name = 
REMARK  4 active torsions:
REMARK  status: ('A' for Active; 'I' for Inactive)
REMARK    1  A    between atoms: C_1  and  S_2
REMARK    2  A    between atoms: S_2  and  N_5
REMARK    3  A    between atoms: N_5  and  C_6
REMARK    4  A    between atoms: N_5  and  C_12
REMARK                            x       y       z     vdW  Elec       q    Type
REMARK                         _______ _______ _______ _____ _____    ______ ____
ROOT
ATOM      1  N   UNL     1       3.811   5.233  19.123  0.00  0.00    +0.000 N 
ENDROOT
BRANCH   1   2
ATOM      2  C   UNL     1       5.067   5.065  18.435  0.00  0.00    +0.000 A 
ATOM      3  C   UNL     1       6.284   5.428  19.013  0.00  0.00    +0.000 A 
ATOM      4  C   UNL     1       7.479   5.178  18.333  0.00  0.00    +0.000 A 
ATOM      5  C   UNL     1       7.455   4.593  17.066  0.00  0.00    +0.000 A 
ATOM      6  C   UNL     1       6.239   4.260  16.474  0.00  0.00    +0.000 A 
ATOM      7  C   UNL     1       5.045   4.491  17.161  0.00  0.00    +0.000 A 
ENDBRANCH   1   2
BRANCH   1   9
ATOM      8  C   UNL     1       2.253   4.208  21.209  0.00  0.00    +0.000 C 
ATOM      9  S   UNL     1       3.051   3.791  19.669  0.00  0.00    +0.000 S 
ATOM     10  O   UNL     1       4.101   2.828  19.954  0.00  0.00    +0.000 OA
ATOM     11  O   UNL     1       2.022   3.480  18.700  0.00  0.00    +0.000 OA
ENDBRANCH   1   9
BRANCH   1  12
ATOM     12  C   UNL     1       2.882   6.287  18.491  0.00  0.00    +0.000 C 
ATOM     13  C   UNL     1       2.251   7.336  19.462  0.00  0.00    +0.000 C 
ATOM     14  S   UNL     1       2.148   8.527  18.081  0.00  0.00    +0.000 S 
ATOM     15  C   UNL     1       3.527   7.418  17.631  0.00  0.00    +0.000 C 
ENDBRANCH   1  12
TORSDOF 3
ENDMDL
MODEL 3
REMARK VINA RESULT:      -5.6      0.725      1.434
REMARK  Name = 
REMARK  4 active torsions:
REMARK  status: ('A' for Active; 'I' for Inactive)
REMARK    1  A    between atoms: C_1  and  S_2
REMARK    2  A    between atoms: S_2  and  N_5
REMARK    3  A    between atoms: N_5  and  C_6
REMARK    4  A    between atoms: N_5  and  C_12
REMARK                            x       y       z     vdW  Elec       q    Type
REMARK                         _______ _______ _______ _____ _____    ______ ____
ROOT
ATOM      1  N   UNL     1       3.639   4.323  18.449  0.00  0.00    +0.000 N 
ENDROOT
BRANCH   1   2
ATOM      2  C   UNL     1       4.858   4.416  17.684  0.00  0.00    +0.000 A 
ATOM      3  C   UNL     1       6.099   4.617  18.289  0.00  0.00    +0.000 A 
ATOM      4  C   UNL     1       7.259   4.627  17.509  0.00  0.00    +0.000 A 
ATOM      5  C   UNL     1       7.174   4.465  16.125  0.00  0.00    +0.000 A 
ATOM      6  C   UNL     1       5.932   4.297  15.517  0.00  0.00    +0.000 A 
ATOM      7  C   UNL     1       4.774   4.267  16.297  0.00  0.00    +0.000 A 
ENDBRANCH   1   2
BRANCH   1   9
ATOM      8  C   UNL     1       1.969   2.640  19.935  0.00  0.00    +0.000 C 
ATOM      9  S   UNL     1       2.813   2.818  18.374  0.00  0.00    +0.000 S 
ATOM     10  O   UNL     1       3.820   1.774  18.286  0.00  0.00    +0.000 OA
ATOM     11  O   UNL     1       1.813   2.952  17.336  0.00  0.00    +0.000 OA
ENDBRANCH   1   9
BRANCH   1  12
ATOM     12  C   UNL     1       2.754   5.582  18.380  0.00  0.00    +0.000 C 
ATOM     13  C   UNL     1       2.405   6.269  19.739  0.00  0.00    +0.000 C 
ATOM     14  S   UNL     1       2.232   7.866  18.868  0.00  0.00    +0.000 S 
ATOM     15  C   UNL     1       3.387   6.900  17.835  0.00  0.00    +0.000 C 
ENDBRANCH   1  12
TORSDOF 3
ENDMDL
MODEL 4
REMARK VINA RESULT:      -5.6      1.015      1.232
REMARK  Name = 
REMARK  4 active torsions:
REMARK  status: ('A' for Active; 'I' for Inactive)
REMARK    1  A    between atoms: C_1  and  S_2
REMARK    2  A    between atoms: S_2  and  N_5
REMARK    3  A    between atoms: N_5  and  C_6
REMARK    4  A    between atoms: N_5  and  C_12
REMARK                            x       y       z     vdW  Elec       q    Type
REMARK                         _______ _______ _______ _____ _____    ______ ____
ROOT
ATOM      1  N   UNL     1       3.821   5.110  18.835  0.00  0.00    +0.000 N 
ENDROOT
BRANCH   1   2
ATOM      2  C   UNL     1       4.919   4.814  17.948  0.00  0.00    +0.000 A 
ATOM      3  C   UNL     1       4.718   4.350  16.648  0.00  0.00    +0.000 A 
ATOM      4  C   UNL     1       5.815   4.148  15.805  0.00  0.00    +0.000 A 
ATOM      5  C   UNL     1       7.109   4.381  16.271  0.00  0.00    +0.000 A 
ATOM      6  C   UNL     1       7.313   4.813  17.579  0.00  0.00    +0.000 A 
ATOM      7  C   UNL     1       6.217   5.035  18.417  0.00  0.00    +0.000 A 
ENDBRANCH   1   2
BRANCH   1   9
ATOM      8  C   UNL     1       1.618   3.410  18.544  0.00  0.00    +0.000 C 
ATOM      9  S   UNL     1       3.046   3.756  19.556  0.00  0.00    +0.000 S 
ATOM     10  O   UNL     1       2.578   4.170  20.867  0.00  0.00    +0.000 OA
ATOM     11  O   UNL     1       3.965   2.644  19.430  0.00  0.00    +0.000 OA
ENDBRANCH   1   9
BRANCH   1  12
ATOM     12  C   UNL     1       2.891   6.231  18.334  0.00  0.00    +0.000 C 
ATOM     13  C   UNL     1       2.311   7.196  19.418  0.00  0.00    +0.000 C 
ATOM     14  S   UNL     1       2.185   8.511  18.154  0.00  0.00    +0.000 S 
ATOM     15  C   UNL     1       3.528   7.427  17.558  0.00  0.00    +0.000 C 
ENDBRANCH   1  12
TORSDOF 3
ENDMDL
MODEL 5
REMARK VINA RESULT:      -5.6      3.038      4.929
REMARK  Name = 
REMARK  4 active torsions:
REMARK  status: ('A' for Active; 'I' for Inactive)
REMARK    1  A    between atoms: C_1  and  S_2
REMARK    2  A    between atoms: S_2  and  N_5
REMARK    3  A    between atoms: N_5  and  C_6
REMARK    4  A    between atoms: N_5  and  C_12
REMARK                            x       y       z     vdW  Elec       q    Type
REMARK                         _______ _______ _______ _____ _____    ______ ____
ROOT
ATOM      1  N   UNL     1       5.692   4.449  17.255  0.00  0.00    +0.000 N 
ENDROOT
BRANCH   1   2
ATOM      2  C   UNL     1       4.306   4.256  17.604  0.00  0.00    +0.000 A 
ATOM      3  C   UNL     1       3.399   5.315  17.652  0.00  0.00    +0.000 A 
ATOM      4  C   UNL     1       2.051   5.064  17.924  0.00  0.00    +0.000 A 
ATOM      5  C   UNL     1       1.618   3.762  18.177  0.00  0.00    +0.000 A 
ATOM      6  C   UNL     1       2.529   2.708  18.162  0.00  0.00    +0.000 A 
ATOM      7  C   UNL     1       3.873   2.954  17.870  0.00  0.00    +0.000 A 
ENDBRANCH   1   2
BRANCH   1   9
ATOM      8  C   UNL     1       6.982   6.867  17.819  0.00  0.00    +0.000 C 
ATOM      9  S   UNL     1       6.669   5.223  18.438  0.00  0.00    +0.000 S 
ATOM     10  O   UNL     1       7.935   4.513  18.489  0.00  0.00    +0.000 OA
ATOM     11  O   UNL     1       5.853   5.340  19.628  0.00  0.00    +0.000 OA
ENDBRANCH   1   9
BRANCH   1  12
ATOM     12  C   UNL     1       5.919   4.893  15.797  0.00  0.00    +0.000 C 
ATOM     13  C   UNL     1       7.343   4.648  15.204  0.00  0.00    +0.000 C 
ATOM     14  S   UNL     1       6.611   4.546  13.533  0.00  0.00    +0.000 S 
ATOM     15  C   UNL     1       5.261   4.053  14.658  0.00  0.00    +0.000 C 
ENDBRANCH   1  12
TORSDOF 3
ENDMDL
MODEL 6
REMARK VINA RESULT:      -5.6      1.069      1.783
REMARK  Name = 
REMARK  4 active torsions:
REMARK  status: ('A' for Active; 'I' for Inactive)
REMARK    1  A    between atoms: C_1  and  S_2
REMARK    2  A    between atoms: S_2  and  N_5
REMARK    3  A    between atoms: N_5  and  C_6
REMARK    4  A    between atoms: N_5  and  C_12
REMARK                            x       y       z     vdW  Elec       q    Type
REMARK                         _______ _______ _______ _____ _____    ______ ____
ROOT
ATOM      1  N   UNL     1       3.814   5.315  19.031  0.00  0.00    +0.000 N 
ENDROOT
BRANCH   1   2
ATOM      2  C   UNL     1       4.999   5.065  18.248  0.00  0.00    +0.000 A 
ATOM      3  C   UNL     1       6.279   5.320  18.738  0.00  0.00    +0.000 A 
ATOM      4  C   UNL     1       7.398   4.991  17.966  0.00  0.00    +0.000 A 
ATOM      5  C   UNL     1       7.234   4.437  16.696  0.00  0.00    +0.000 A 
ATOM      6  C   UNL     1       5.955   4.212  16.192  0.00  0.00    +0.000 A 
ATOM      7  C   UNL     1       4.837   4.521  16.970  0.00  0.00    +0.000 A 
ENDBRANCH   1   2
BRANCH   1   9
ATOM      8  C   UNL     1       1.706   3.519  18.630  0.00  0.00    +0.000 C 
ATOM      9  S   UNL     1       3.057   3.934  19.718  0.00  0.00    +0.000 S 
ATOM     10  O   UNL     1       2.497   4.336  20.997  0.00  0.00    +0.000 OA
ATOM     11  O   UNL     1       4.029   2.862  19.656  0.00  0.00    +0.000 OA
ENDBRANCH   1   9
BRANCH   1  12
ATOM     12  C   UNL     1       2.868   6.370  18.424  0.00  0.00    +0.000 C 
ATOM     13  C   UNL     1       2.213   7.378  19.422  0.00  0.00    +0.000 C 
ATOM     14  S   UNL     1       2.095   8.607  18.075  0.00  0.00    +0.000 S 
ATOM     15  C   UNL     1       3.496   7.537  17.601  0.00  0.00    +0.000 C 
ENDBRANCH   1  12
TORSDOF 3
ENDMDL
MODEL 7
REMARK VINA RESULT:      -5.6      1.186      1.394
REMARK  Name = 
REMARK  4 active torsions:
REMARK  status: ('A' for Active; 'I' for Inactive)
REMARK    1  A    between atoms: C_1  and  S_2
REMARK    2  A    between atoms: S_2  and  N_5
REMARK    3  A    between atoms: N_5  and  C_6
REMARK    4  A    between atoms: N_5  and  C_12
REMARK                            x       y       z     vdW  Elec       q    Type
REMARK                         _______ _______ _______ _____ _____    ______ ____
ROOT
ATOM      1  N   UNL     1       3.786   5.157  18.988  0.00  0.00    +0.000 N 
ENDROOT
BRANCH   1   2
ATOM      2  C   UNL     1       4.952   4.880  18.186  0.00  0.00    +0.000 A 
ATOM      3  C   UNL     1       4.858   4.337  16.904  0.00  0.00    +0.000 A 
ATOM      4  C   UNL     1       6.015   4.156  16.139  0.00  0.00    +0.000 A 
ATOM      5  C   UNL     1       7.263   4.491  16.666  0.00  0.00    +0.000 A 
ATOM      6  C   UNL     1       7.360   5.003  17.958  0.00  0.00    +0.000 A 
ATOM      7  C   UNL     1       6.204   5.203  18.716  0.00  0.00    +0.000 A 
ENDBRANCH   1   2
BRANCH   1   9
ATOM      8  C   UNL     1       4.249   2.543  19.874  0.00  0.00    +0.000 C 
ATOM      9  S   UNL     1       2.991   3.790  19.661  0.00  0.00    +0.000 S 
ATOM     10  O   UNL     1       2.044   3.307  18.670  0.00  0.00    +0.000 OA
ATOM     11  O   UNL     1       2.529   4.190  20.973  0.00  0.00    +0.000 OA
ENDBRANCH   1   9
BRANCH   1  12
ATOM     12  C   UNL     1       2.871   6.254  18.413  0.00  0.00    +0.000 C 
ATOM     13  C   UNL     1       2.259   7.263  19.437  0.00  0.00    +0.000 C 
ATOM     14  S   UNL     1       2.169   8.522  18.116  0.00  0.00    +0.000 S 
ATOM     15  C   UNL     1       3.529   7.416  17.606  0.00  0.00    +0.000 C 
ENDBRANCH   1  12
TORSDOF 3
ENDMDL
MODEL 8
REMARK VINA RESULT:      -5.5      3.215      4.982
REMARK  Name = 
REMARK  4 active torsions:
REMARK  status: ('A' for Active; 'I' for Inactive)
REMARK    1  A    between atoms: C_1  and  S_2
REMARK    2  A    between atoms: S_2  and  N_5
REMARK    3  A    between atoms: N_5  and  C_6
REMARK    4  A    between atoms: N_5  and  C_12
REMARK                            x       y       z     vdW  Elec       q    Type
REMARK                         _______ _______ _______ _____ _____    ______ ____
ROOT
ATOM      1  N   UNL     1       6.023   4.571  17.947  0.00  0.00    +0.000 N 
ENDROOT
BRANCH   1   2
ATOM      2  C   UNL     1       4.812   4.647  18.726  0.00  0.00    +0.000 A 
ATOM      3  C   UNL     1       4.066   5.821  18.825  0.00  0.00    +0.000 A 
ATOM      4  C   UNL     1       2.861   5.822  19.534  0.00  0.00    +0.000 A 
ATOM      5  C   UNL     1       2.419   4.658  20.165  0.00  0.00    +0.000 A 
ATOM      6  C   UNL     1       3.180   3.494  20.094  0.00  0.00    +0.000 A 
ATOM      7  C   UNL     1       4.374   3.486  19.370  0.00  0.00    +0.000 A 
ENDBRANCH   1   2
BRANCH   1   9
ATOM      8  C   UNL     1       7.630   6.862  17.971  0.00  0.00    +0.000 C 
ATOM      9  S   UNL     1       7.432   5.234  18.674  0.00  0.00    +0.000 S 
ATOM     10  O   UNL     1       8.561   4.423  18.253  0.00  0.00    +0.000 OA
ATOM     11  O   UNL     1       7.131   5.387  20.082  0.00  0.00    +0.000 OA
ENDBRANCH   1   9
BRANCH   1  12
ATOM     12  C   UNL     1       5.829   4.878  16.449  0.00  0.00    +0.000 C 
ATOM     13  C   UNL     1       6.970   4.416  15.487  0.00  0.00    +0.000 C 
ATOM     14  S   UNL     1       5.750   4.286  14.132  0.00  0.00    +0.000 S 
ATOM     15  C   UNL     1       4.773   4.047  15.656  0.00  0.00    +0.000 C 
ENDBRANCH   1  12
TORSDOF 3
ENDMDL
MODEL 9
REMARK VINA RESULT:      -5.5      3.174      4.985
REMARK  Name = 
REMARK  4 active torsions:
REMARK  status: ('A' for Active; 'I' for Inactive)
REMARK    1  A    between atoms: C_1  and  S_2
REMARK    2  A    between atoms: S_2  and  N_5
REMARK    3  A    between atoms: N_5  and  C_6
REMARK    4  A    between atoms: N_5  and  C_12
REMARK                            x       y       z     vdW  Elec       q    Type
REMARK                         _______ _______ _______ _____ _____    ______ ____
ROOT
ATOM      1  N   UNL     1       5.846   4.352  16.846  0.00  0.00    +0.000 N 
ENDROOT
BRANCH   1   2
ATOM      2  C   UNL     1       4.470   4.323  17.275  0.00  0.00    +0.000 A 
ATOM      3  C   UNL     1       3.793   3.127  17.516  0.00  0.00    +0.000 A 
ATOM      4  C   UNL     1       2.482   3.155  18.001  0.00  0.00    +0.000 A 
ATOM      5  C   UNL     1       1.841   4.375  18.217  0.00  0.00    +0.000 A 
ATOM      6  C   UNL     1       2.505   5.569  17.946  0.00  0.00    +0.000 A 
ATOM      7  C   UNL     1       3.821   5.544  17.480  0.00  0.00    +0.000 A 
ENDBRANCH   1   2
BRANCH   1   9
ATOM      8  C   UNL     1       7.259   6.603  17.722  0.00  0.00    +0.000 C 
ATOM      9  S   UNL     1       6.992   4.864  18.020  0.00  0.00    +0.000 S 
ATOM     10  O   UNL     1       8.236   4.166  17.746  0.00  0.00    +0.000 OA
ATOM     11  O   UNL     1       6.348   4.724  19.309  0.00  0.00    +0.000 OA
ENDBRANCH   1   9
BRANCH   1  12
ATOM     12  C   UNL     1       6.050   4.899  15.420  0.00  0.00    +0.000 C 
ATOM     13  C   UNL     1       7.482   4.753  14.813  0.00  0.00    +0.000 C 
ATOM     14  S   UNL     1       6.751   4.728  13.139  0.00  0.00    +0.000 S 
ATOM     15  C   UNL     1       5.425   4.107  14.230  0.00  0.00    +0.000 C 
ENDBRANCH   1  12
TORSDOF 3
ENDMDL
