MODEL 1
REMARK VINA RESULT:      -8.5      0.000      0.000
REMARK  Name = 
REMARK  4 active torsions:
REMARK  status: ('A' for Active; 'I' for Inactive)
REMARK    1  A    between atoms: C_1  and  N_2
REMARK    2  A    between atoms: N_2  and  C_17
REMARK    3  A    between atoms: C_3  and  C_5
REMARK    4  A    between atoms: C_5  and  N_6
REMARK                            x       y       z     vdW  Elec       q    Type
REMARK                         _______ _______ _______ _____ _____    ______ ____
ROOT
ATOM      1  C   UNL     1       5.712   6.537  17.767  0.00  0.00    +0.000 C 
ENDROOT
BRANCH   1   2
ATOM      2  N   UNL     1       4.507   5.992  18.389  0.00  0.00    +0.000 N 
ATOM      3  C   UNL     1       3.292   6.634  18.243  0.00  0.00    +0.000 A 
ATOM      4  C   UNL     1       2.169   6.163  18.798  0.00  0.00    +0.000 A 
ATOM      5  C   UNL     1       2.214   4.928  19.576  0.00  0.00    +0.000 A 
ATOM      6  C   UNL     1       1.050   4.369  20.116  0.00  0.00    +0.000 A 
ATOM      7  C   UNL     1       1.117   3.182  20.852  0.00  0.00    +0.000 A 
ATOM      8  C   UNL     1       2.345   2.555  21.071  0.00  0.00    +0.000 A 
ATOM      9  C   UNL     1       3.510   3.106  20.543  0.00  0.00    +0.000 A 
ATOM     10  C   UNL     1       3.440   4.284  19.790  0.00  0.00    +0.000 A 
ATOM     11  C   UNL     1       4.669   4.849  19.180  0.00  0.00    +0.000 A 
ATOM     12  O   UNL     1       5.754   4.299  19.360  0.00  0.00    +0.000 OA
ENDBRANCH   1   2
BRANCH   1  15
ATOM     13  C   UNL     1       7.463   4.370  16.802  0.00  0.00    +0.000 C 
ATOM     14  N   UNL     1       6.657   5.156  15.860  0.00  0.00    +0.000 N 
ATOM     15  C   UNL     1       5.785   6.188  16.268  0.00  0.00    +0.000 C 
ATOM     16  O   UNL     1       4.991   6.753  15.505  0.00  0.00    +0.000 OA
BRANCH  14  17
ATOM     17  C   UNL     1       6.778   4.784  14.462  0.00  0.00    +0.000 A 
ATOM     18  C   UNL     1       7.704   5.394  13.602  0.00  0.00    +0.000 A 
ATOM     19  C   UNL     1       7.793   5.040  12.249  0.00  0.00    +0.000 A 
ATOM     20  C   UNL     1       6.963   4.057  11.726  0.00  0.00    +0.000 A 
ATOM     21  C   UNL     1       6.056   3.416  12.559  0.00  0.00    +0.000 A 
ATOM     22  C   UNL     1       5.970   3.770  13.912  0.00  0.00    +0.000 A 
ENDBRANCH  14  17
ENDBRANCH   1  15
TORSDOF 3
ENDMDL
MODEL 2
REMARK VINA RESULT:      -8.4      0.039      1.022
REMARK  Name = 
REMARK  4 active torsions:
REMARK  status: ('A' for Active; 'I' for Inactive)
REMARK    1  A    between atoms: C_1  and  N_2
REMARK    2  A    between atoms: N_2  and  C_17
REMARK    3  A    between atoms: C_3  and  C_5
REMARK    4  A    between atoms: C_5  and  N_6
REMARK                            x       y       z     vdW  Elec       q    Type
REMARK                         _______ _______ _______ _____ _____    ______ ____
ROOT
ATOM      1  C   UNL     1       5.698   6.544  17.736  0.00  0.00    +0.000 C 
ENDROOT
BRANCH   1   2
ATOM      2  N   UNL     1       4.497   6.000  18.369  0.00  0.00    +0.000 N 
ATOM      3  C   UNL     1       3.278   6.633  18.217  0.00  0.00    +0.000 A 
ATOM      4  C   UNL     1       2.159   6.163  18.781  0.00  0.00    +0.000 A 
ATOM      5  C   UNL     1       2.213   4.939  19.575  0.00  0.00    +0.000 A 
ATOM      6  C   UNL     1       1.054   4.380  20.125  0.00  0.00    +0.000 A 
ATOM      7  C   UNL     1       1.130   3.204  20.877  0.00  0.00    +0.000 A 
ATOM      8  C   UNL     1       2.362   2.587  21.102  0.00  0.00    +0.000 A 
ATOM      9  C   UNL     1       3.523   3.138  20.564  0.00  0.00    +0.000 A 
ATOM     10  C   UNL     1       3.444   4.305  19.795  0.00  0.00    +0.000 A 
ATOM     11  C   UNL     1       4.668   4.869  19.174  0.00  0.00    +0.000 A 
ATOM     12  O   UNL     1       5.756   4.328  19.360  0.00  0.00    +0.000 OA
ENDBRANCH   1   2
BRANCH   1  15
ATOM     13  C   UNL     1       7.425   4.356  16.775  0.00  0.00    +0.000 C 
ATOM     14  N   UNL     1       6.623   5.146  15.833  0.00  0.00    +0.000 N 
ATOM     15  C   UNL     1       5.761   6.187  16.239  0.00  0.00    +0.000 C 
ATOM     16  O   UNL     1       4.970   6.756  15.476  0.00  0.00    +0.000 OA
BRANCH  14  17
ATOM     17  C   UNL     1       6.735   4.766  14.436  0.00  0.00    +0.000 A 
ATOM     18  C   UNL     1       5.914   3.787  13.857  0.00  0.00    +0.000 A 
ATOM     19  C   UNL     1       6.049   3.415  12.514  0.00  0.00    +0.000 A 
ATOM     20  C   UNL     1       7.006   4.023  11.711  0.00  0.00    +0.000 A 
ATOM     21  C   UNL     1       7.815   5.015  12.248  0.00  0.00    +0.000 A 
ATOM     22  C   UNL     1       7.675   5.387  13.592  0.00  0.00    +0.000 A 
ENDBRANCH  14  17
ENDBRANCH   1  15
TORSDOF 3
ENDMDL
MODEL 3
REMARK VINA RESULT:      -7.8      0.995      1.241
REMARK  Name = 
REMARK  4 active torsions:
REMARK  status: ('A' for Active; 'I' for Inactive)
REMARK    1  A    between atoms: C_1  and  N_2
REMARK    2  A    between atoms: N_2  and  C_17
REMARK    3  A    between atoms: C_3  and  C_5
REMARK    4  A    between atoms: C_5  and  N_6
REMARK                            x       y       z     vdW  Elec       q    Type
REMARK                         _______ _______ _______ _____ _____    ______ ____
ROOT
ATOM      1  C   UNL     1       6.214   5.958  18.112  0.00  0.00    +0.000 C 
ENDROOT
BRANCH   1   2
ATOM      2  N   UNL     1       4.887   5.582  18.594  0.00  0.00    +0.000 N 
ATOM      3  C   UNL     1       3.809   6.428  18.411  0.00  0.00    +0.000 A 
ATOM      4  C   UNL     1       2.580   6.114  18.838  0.00  0.00    +0.000 A 
ATOM      5  C   UNL     1       2.355   4.838  19.510  0.00  0.00    +0.000 A 
ATOM      6  C   UNL     1       1.074   4.446  19.911  0.00  0.00    +0.000 A 
ATOM      7  C   UNL     1       0.882   3.216  20.547  0.00  0.00    +0.000 A 
ATOM      8  C   UNL     1       1.967   2.377  20.805  0.00  0.00    +0.000 A 
ATOM      9  C   UNL     1       3.249   2.760  20.415  0.00  0.00    +0.000 A 
ATOM     10  C   UNL     1       3.438   3.983  19.761  0.00  0.00    +0.000 A 
ATOM     11  C   UNL     1       4.790   4.375  19.295  0.00  0.00    +0.000 A 
ATOM     12  O   UNL     1       5.752   3.639  19.510  0.00  0.00    +0.000 OA
ENDBRANCH   1   2
BRANCH   1  15
ATOM     13  C   UNL     1       5.073   6.763  15.516  0.00  0.00    +0.000 C 
ATOM     14  N   UNL     1       5.990   5.620  15.609  0.00  0.00    +0.000 N 
ATOM     15  C   UNL     1       6.584   5.206  16.820  0.00  0.00    +0.000 C 
ATOM     16  O   UNL     1       7.471   4.345  16.886  0.00  0.00    +0.000 OA
BRANCH  14  17
ATOM     17  C   UNL     1       6.289   4.949  14.357  0.00  0.00    +0.000 A 
ATOM     18  C   UNL     1       7.433   5.248  13.601  0.00  0.00    +0.000 A 
ATOM     19  C   UNL     1       7.697   4.608  12.383  0.00  0.00    +0.000 A 
ATOM     20  C   UNL     1       6.827   3.641  11.897  0.00  0.00    +0.000 A 
ATOM     21  C   UNL     1       5.701   3.303  12.636  0.00  0.00    +0.000 A 
ATOM     22  C   UNL     1       5.441   3.943  13.855  0.00  0.00    +0.000 A 
ENDBRANCH  14  17
ENDBRANCH   1  15
TORSDOF 3
ENDMDL
MODEL 4
REMARK VINA RESULT:      -7.8      1.263      2.154
REMARK  Name = 
REMARK  4 active torsions:
REMARK  status: ('A' for Active; 'I' for Inactive)
REMARK    1  A    between atoms: C_1  and  N_2
REMARK    2  A    between atoms: N_2  and  C_17
REMARK    3  A    between atoms: C_3  and  C_5
REMARK    4  A    between atoms: C_5  and  N_6
REMARK                            x       y       z     vdW  Elec       q    Type
REMARK                         _______ _______ _______ _____ _____    ______ ____
ROOT
ATOM      1  C   UNL     1       6.383   5.620  18.269  0.00  0.00    +0.000 C 
ENDROOT
BRANCH   1   2
ATOM      2  N   UNL     1       5.322   4.811  18.867  0.00  0.00    +0.000 N 
ATOM      3  C   UNL     1       5.533   3.473  19.142  0.00  0.00    +0.000 A 
ATOM      4  C   UNL     1       4.585   2.704  19.690  0.00  0.00    +0.000 A 
ATOM      5  C   UNL     1       3.288   3.285  20.021  0.00  0.00    +0.000 A 
ATOM      6  C   UNL     1       2.295   2.531  20.655  0.00  0.00    +0.000 A 
ATOM      7  C   UNL     1       1.062   3.111  20.969  0.00  0.00    +0.000 A 
ATOM      8  C   UNL     1       0.804   4.442  20.636  0.00  0.00    +0.000 A 
ATOM      9  C   UNL     1       1.783   5.202  19.999  0.00  0.00    +0.000 A 
ATOM     10  C   UNL     1       3.024   4.625  19.703  0.00  0.00    +0.000 A 
ATOM     11  C   UNL     1       4.090   5.441  19.074  0.00  0.00    +0.000 A 
ATOM     12  O   UNL     1       3.875   6.617  18.784  0.00  0.00    +0.000 OA
ENDBRANCH   1   2
BRANCH   1  15
ATOM     13  C   UNL     1       5.053   6.453  15.773  0.00  0.00    +0.000 C 
ATOM     14  N   UNL     1       6.142   5.470  15.749  0.00  0.00    +0.000 N 
ATOM     15  C   UNL     1       6.830   5.053  16.908  0.00  0.00    +0.000 C 
ATOM     16  O   UNL     1       7.844   4.344  16.883  0.00  0.00    +0.000 OA
BRANCH  14  17
ATOM     17  C   UNL     1       6.508   4.967  14.437  0.00  0.00    +0.000 A 
ATOM     18  C   UNL     1       7.568   5.510  13.695  0.00  0.00    +0.000 A 
ATOM     19  C   UNL     1       7.896   5.029  12.421  0.00  0.00    +0.000 A 
ATOM     20  C   UNL     1       7.175   3.983  11.860  0.00  0.00    +0.000 A 
ATOM     21  C   UNL     1       6.139   3.406  12.582  0.00  0.00    +0.000 A 
ATOM     22  C   UNL     1       5.815   3.887  13.857  0.00  0.00    +0.000 A 
ENDBRANCH  14  17
ENDBRANCH   1  15
TORSDOF 3
ENDMDL
MODEL 5
REMARK VINA RESULT:      -7.7      0.999      1.608
REMARK  Name = 
REMARK  4 active torsions:
REMARK  status: ('A' for Active; 'I' for Inactive)
REMARK    1  A    between atoms: C_1  and  N_2
REMARK    2  A    between atoms: N_2  and  C_17
REMARK    3  A    between atoms: C_3  and  C_5
REMARK    4  A    between atoms: C_5  and  N_6
REMARK                            x       y       z     vdW  Elec       q    Type
REMARK                         _______ _______ _______ _____ _____    ______ ____
ROOT
ATOM      1  C   UNL     1       6.226   5.929  18.115  0.00  0.00    +0.000 C 
ENDROOT
BRANCH   1   2
ATOM      2  N   UNL     1       4.896   5.560  18.596  0.00  0.00    +0.000 N 
ATOM      3  C   UNL     1       3.825   6.417  18.420  0.00  0.00    +0.000 A 
ATOM      4  C   UNL     1       2.594   6.110  18.846  0.00  0.00    +0.000 A 
ATOM      5  C   UNL     1       2.359   4.831  19.509  0.00  0.00    +0.000 A 
ATOM      6  C   UNL     1       1.075   4.447  19.909  0.00  0.00    +0.000 A 
ATOM      7  C   UNL     1       0.874   3.214  20.538  0.00  0.00    +0.000 A 
ATOM      8  C   UNL     1       1.952   2.364  20.788  0.00  0.00    +0.000 A 
ATOM      9  C   UNL     1       3.237   2.740  20.399  0.00  0.00    +0.000 A 
ATOM     10  C   UNL     1       3.435   3.966  19.753  0.00  0.00    +0.000 A 
ATOM     11  C   UNL     1       4.790   4.349  19.289  0.00  0.00    +0.000 A 
ATOM     12  O   UNL     1       5.746   3.604  19.498  0.00  0.00    +0.000 OA
ENDBRANCH   1   2
BRANCH   1  15
ATOM     13  C   UNL     1       5.058   6.749  15.536  0.00  0.00    +0.000 C 
ATOM     14  N   UNL     1       5.979   5.609  15.612  0.00  0.00    +0.000 N 
ATOM     15  C   UNL     1       6.586   5.188  16.814  0.00  0.00    +0.000 C 
ATOM     16  O   UNL     1       7.476   4.329  16.866  0.00  0.00    +0.000 OA
BRANCH  14  17
ATOM     17  C   UNL     1       6.268   4.947  14.352  0.00  0.00    +0.000 A 
ATOM     18  C   UNL     1       5.446   3.938  13.829  0.00  0.00    +0.000 A 
ATOM     19  C   UNL     1       5.750   3.293  12.623  0.00  0.00    +0.000 A 
ATOM     20  C   UNL     1       6.884   3.650  11.904  0.00  0.00    +0.000 A 
ATOM     21  C   UNL     1       7.703   4.665  12.382  0.00  0.00    +0.000 A 
ATOM     22  C   UNL     1       7.394   5.310  13.587  0.00  0.00    +0.000 A 
ENDBRANCH  14  17
ENDBRANCH   1  15
TORSDOF 3
ENDMDL
MODEL 6
REMARK VINA RESULT:      -7.7      1.285      2.396
REMARK  Name = 
REMARK  4 active torsions:
REMARK  status: ('A' for Active; 'I' for Inactive)
REMARK    1  A    between atoms: C_1  and  N_2
REMARK    2  A    between atoms: N_2  and  C_17
REMARK    3  A    between atoms: C_3  and  C_5
REMARK    4  A    between atoms: C_5  and  N_6
REMARK                            x       y       z     vdW  Elec       q    Type
REMARK                         _______ _______ _______ _____ _____    ______ ____
ROOT
ATOM      1  C   UNL     1       6.451   5.426  18.364  0.00  0.00    +0.000 C 
ENDROOT
BRANCH   1   2
ATOM      2  N   UNL     1       5.334   4.658  18.909  0.00  0.00    +0.000 N 
ATOM      3  C   UNL     1       5.447   3.293  19.096  0.00  0.00    +0.000 A 
ATOM      4  C   UNL     1       4.444   2.559  19.593  0.00  0.00    +0.000 A 
ATOM      5  C   UNL     1       3.190   3.209  19.962  0.00  0.00    +0.000 A 
ATOM      6  C   UNL     1       2.144   2.488  20.546  0.00  0.00    +0.000 A 
ATOM      7  C   UNL     1       0.954   3.134  20.897  0.00  0.00    +0.000 A 
ATOM      8  C   UNL     1       0.792   4.499  20.652  0.00  0.00    +0.000 A 
ATOM      9  C   UNL     1       1.826   5.226  20.065  0.00  0.00    +0.000 A 
ATOM     10  C   UNL     1       3.024   4.582  19.732  0.00  0.00    +0.000 A 
ATOM     11  C   UNL     1       4.149   5.359  19.156  0.00  0.00    +0.000 A 
ATOM     12  O   UNL     1       4.019   6.564  18.944  0.00  0.00    +0.000 OA
ENDBRANCH   1   2
BRANCH   1  15
ATOM     13  C   UNL     1       5.023   6.290  15.934  0.00  0.00    +0.000 C 
ATOM     14  N   UNL     1       6.137   5.338  15.849  0.00  0.00    +0.000 N 
ATOM     15  C   UNL     1       6.872   4.909  16.975  0.00  0.00    +0.000 C 
ATOM     16  O   UNL     1       7.903   4.229  16.899  0.00  0.00    +0.000 OA
BRANCH  14  17
ATOM     17  C   UNL     1       6.477   4.882  14.513  0.00  0.00    +0.000 A 
ATOM     18  C   UNL     1       5.755   3.871  13.861  0.00  0.00    +0.000 A 
ATOM     19  C   UNL     1       6.108   3.426  12.580  0.00  0.00    +0.000 A 
ATOM     20  C   UNL     1       7.189   3.991  11.915  0.00  0.00    +0.000 A 
ATOM     21  C   UNL     1       7.905   5.013  12.523  0.00  0.00    +0.000 A 
ATOM     22  C   UNL     1       7.548   5.458  13.803  0.00  0.00    +0.000 A 
ENDBRANCH  14  17
ENDBRANCH   1  15
TORSDOF 3
ENDMDL
MODEL 7
REMARK VINA RESULT:      -7.5      0.994      1.754
REMARK  Name = 
REMARK  4 active torsions:
REMARK  status: ('A' for Active; 'I' for Inactive)
REMARK    1  A    between atoms: C_1  and  N_2
REMARK    2  A    between atoms: N_2  and  C_17
REMARK    3  A    between atoms: C_3  and  C_5
REMARK    4  A    between atoms: C_5  and  N_6
REMARK                            x       y       z     vdW  Elec       q    Type
REMARK                         _______ _______ _______ _____ _____    ______ ____
ROOT
ATOM      1  C   UNL     1       5.765   6.441  17.825  0.00  0.00    +0.000 C 
ENDROOT
BRANCH   1   2
ATOM      2  N   UNL     1       4.953   5.458  18.540  0.00  0.00    +0.000 N 
ATOM      3  C   UNL     1       5.492   4.241  18.911  0.00  0.00    +0.000 A 
ATOM      4  C   UNL     1       4.778   3.319  19.567  0.00  0.00    +0.000 A 
ATOM      5  C   UNL     1       3.389   3.598  19.916  0.00  0.00    +0.000 A 
ATOM      6  C   UNL     1       2.630   2.687  20.658  0.00  0.00    +0.000 A 
ATOM      7  C   UNL     1       1.303   2.979  20.986  0.00  0.00    +0.000 A 
ATOM      8  C   UNL     1       0.717   4.172  20.561  0.00  0.00    +0.000 A 
ATOM      9  C   UNL     1       1.461   5.084  19.816  0.00  0.00    +0.000 A 
ATOM     10  C   UNL     1       2.796   4.800  19.504  0.00  0.00    +0.000 A 
ATOM     11  C   UNL     1       3.611   5.789  18.757  0.00  0.00    +0.000 A 
ATOM     12  O   UNL     1       3.105   6.846  18.385  0.00  0.00    +0.000 OA
ENDBRANCH   1   2
BRANCH   1  15
ATOM     13  C   UNL     1       7.600   4.386  16.777  0.00  0.00    +0.000 C 
ATOM     14  N   UNL     1       6.743   5.157  15.869  0.00  0.00    +0.000 N 
ATOM     15  C   UNL     1       5.829   6.135  16.316  0.00  0.00    +0.000 C 
ATOM     16  O   UNL     1       4.998   6.681  15.580  0.00  0.00    +0.000 OA
BRANCH  14  17
ATOM     17  C   UNL     1       6.859   4.827  14.460  0.00  0.00    +0.000 A 
ATOM     18  C   UNL     1       7.753   5.491  13.606  0.00  0.00    +0.000 A 
ATOM     19  C   UNL     1       7.837   5.176  12.243  0.00  0.00    +0.000 A 
ATOM     20  C   UNL     1       7.035   4.180  11.702  0.00  0.00    +0.000 A 
ATOM     21  C   UNL     1       6.160   3.487  12.528  0.00  0.00    +0.000 A 
ATOM     22  C   UNL     1       6.080   3.801  13.891  0.00  0.00    +0.000 A 
ENDBRANCH  14  17
ENDBRANCH   1  15
TORSDOF 3
ENDMDL
MODEL 8
REMARK VINA RESULT:      -7.5      1.173      7.292
REMARK  Name = 
REMARK  4 active torsions:
REMARK  status: ('A' for Active; 'I' for Inactive)
REMARK    1  A    between atoms: C_1  and  N_2
REMARK    2  A    between atoms: N_2  and  C_17
REMARK    3  A    between atoms: C_3  and  C_5
REMARK    4  A    between atoms: C_5  and  N_6
REMARK                            x       y       z     vdW  Elec       q    Type
REMARK                         _______ _______ _______ _____ _____    ______ ____
ROOT
ATOM      1  C   UNL     1       6.047   5.434  18.002  0.00  0.00    +0.000 C 
ENDROOT
BRANCH   1   2
ATOM      2  N   UNL     1       6.105   4.924  16.634  0.00  0.00    +0.000 N 
ATOM      3  C   UNL     1       5.330   3.845  16.255  0.00  0.00    +0.000 A 
ATOM      4  C   UNL     1       5.357   3.353  15.010  0.00  0.00    +0.000 A 
ATOM      5  C   UNL     1       6.221   3.973  14.010  0.00  0.00    +0.000 A 
ATOM      6  C   UNL     1       6.228   3.531  12.683  0.00  0.00    +0.000 A 
ATOM      7  C   UNL     1       7.059   4.144  11.741  0.00  0.00    +0.000 A 
ATOM      8  C   UNL     1       7.903   5.191  12.119  0.00  0.00    +0.000 A 
ATOM      9  C   UNL     1       7.908   5.636  13.439  0.00  0.00    +0.000 A 
ATOM     10  C   UNL     1       7.061   5.033  14.377  0.00  0.00    +0.000 A 
ATOM     11  C   UNL     1       7.022   5.536  15.772  0.00  0.00    +0.000 A 
ATOM     12  O   UNL     1       7.755   6.463  16.113  0.00  0.00    +0.000 OA
ENDBRANCH   1   2
BRANCH   1  15
ATOM     13  C   UNL     1       3.171   6.068  18.138  0.00  0.00    +0.000 C 
ATOM     14  N   UNL     1       3.731   4.963  18.923  0.00  0.00    +0.000 N 
ATOM     15  C   UNL     1       5.094   4.599  18.879  0.00  0.00    +0.000 C 
ATOM     16  O   UNL     1       5.547   3.580  19.415  0.00  0.00    +0.000 OA
BRANCH  14  17
ATOM     17  C   UNL     1       2.782   4.222  19.735  0.00  0.00    +0.000 A 
ATOM     18  C   UNL     1       2.917   4.108  21.127  0.00  0.00    +0.000 A 
ATOM     19  C   UNL     1       2.006   3.371  21.895  0.00  0.00    +0.000 A 
ATOM     20  C   UNL     1       0.929   2.738  21.289  0.00  0.00    +0.000 A 
ATOM     21  C   UNL     1       0.753   2.856  19.916  0.00  0.00    +0.000 A 
ATOM     22  C   UNL     1       1.665   3.596  19.151  0.00  0.00    +0.000 A 
ENDBRANCH  14  17
ENDBRANCH   1  15
TORSDOF 3
ENDMDL
MODEL 9
REMARK VINA RESULT:      -7.5      0.996      2.029
REMARK  Name = 
REMARK  4 active torsions:
REMARK  status: ('A' for Active; 'I' for Inactive)
REMARK    1  A    between atoms: C_1  and  N_2
REMARK    2  A    between atoms: N_2  and  C_17
REMARK    3  A    between atoms: C_3  and  C_5
REMARK    4  A    between atoms: C_5  and  N_6
REMARK                            x       y       z     vdW  Elec       q    Type
REMARK                         _______ _______ _______ _____ _____    ______ ____
ROOT
ATOM      1  C   UNL     1       5.710   6.513  17.750  0.00  0.00    +0.000 C 
ENDROOT
BRANCH   1   2
ATOM      2  N   UNL     1       4.928   5.528  18.494  0.00  0.00    +0.000 N 
ATOM      3  C   UNL     1       5.503   4.337  18.897  0.00  0.00    +0.000 A 
ATOM      4  C   UNL     1       4.816   3.413  19.580  0.00  0.00    +0.000 A 
ATOM      5  C   UNL     1       3.420   3.662  19.925  0.00  0.00    +0.000 A 
ATOM      6  C   UNL     1       2.689   2.751  20.694  0.00  0.00    +0.000 A 
ATOM      7  C   UNL     1       1.354   3.013  21.016  0.00  0.00    +0.000 A 
ATOM      8  C   UNL     1       0.733   4.177  20.559  0.00  0.00    +0.000 A 
ATOM      9  C   UNL     1       1.450   5.089  19.787  0.00  0.00    +0.000 A 
ATOM     10  C   UNL     1       2.792   4.834  19.481  0.00  0.00    +0.000 A 
ATOM     11  C   UNL     1       3.577   5.825  18.705  0.00  0.00    +0.000 A 
ATOM     12  O   UNL     1       3.041   6.857  18.304  0.00  0.00    +0.000 OA
ENDBRANCH   1   2
BRANCH   1  15
ATOM     13  C   UNL     1       7.549   4.441  16.744  0.00  0.00    +0.000 C 
ATOM     14  N   UNL     1       6.688   5.189  15.821  0.00  0.00    +0.000 N 
ATOM     15  C   UNL     1       5.772   6.173  16.249  0.00  0.00    +0.000 C 
ATOM     16  O   UNL     1       4.936   6.700  15.503  0.00  0.00    +0.000 OA
BRANCH  14  17
ATOM     17  C   UNL     1       6.801   4.827  14.419  0.00  0.00    +0.000 A 
ATOM     18  C   UNL     1       6.013   3.822  13.838  0.00  0.00    +0.000 A 
ATOM     19  C   UNL     1       6.149   3.469  12.489  0.00  0.00    +0.000 A 
ATOM     20  C   UNL     1       7.073   4.123  11.684  0.00  0.00    +0.000 A 
ATOM     21  C   UNL     1       7.848   5.140  12.224  0.00  0.00    +0.000 A 
ATOM     22  C   UNL     1       7.708   5.493  13.572  0.00  0.00    +0.000 A 
ENDBRANCH  14  17
ENDBRANCH   1  15
TORSDOF 3
ENDMDL
