MODEL 1
REMARK VINA RESULT:      -6.7      0.000      0.000
REMARK  Name = 
REMARK  8 active torsions:
REMARK  status: ('A' for Active; 'I' for Inactive)
REMARK    1  A    between atoms: C_1  and  C_2
REMARK    2  A    between atoms: C_2  and  O_3
REMARK    3  A    between atoms: O_3  and  C_4
REMARK    4  A    between atoms: C_4  and  C_6
REMARK    5  A    between atoms: C_6  and  C_7
REMARK    6  A    between atoms: C_7  and  C_8
REMARK    7  A    between atoms: C_9  and  C_10
REMARK    8  A    between atoms: C_13  and  C_14
REMARK                            x       y       z     vdW  Elec       q    Type
REMARK                         _______ _______ _______ _____ _____    ______ ____
ROOT
ATOM      1  C   UNL     1       5.714   4.162  16.854  0.00  0.00    +0.000 C 
ATOM      2  C   UNL     1       6.440   5.238  17.640  0.00  0.00    +0.000 C 
ATOM      3  C   UNL     1       6.192   5.296  19.129  0.00  0.00    +0.000 C 
ATOM      4  O   UNL     1       6.062   6.458  16.982  0.00  0.00    +0.000 OA
ATOM      5  O   UNL     1       6.038   6.063  15.551  0.00  0.00    +0.000 OA
ATOM      6  C   UNL     1       6.399   4.673  15.600  0.00  0.00    +0.000 C 
ATOM      7  C   UNL     1       6.123   3.978  14.289  0.00  0.00    +0.000 C 
ATOM      8  O   UNL     1       7.795   4.554  15.938  0.00  0.00    +0.000 OA
ATOM      9  O   UNL     1       7.823   4.952  17.364  0.00  0.00    +0.000 OA
ENDROOT
BRANCH   1  10
ATOM     10  C   UNL     1       4.184   4.250  16.910  0.00  0.00    +0.000 C 
BRANCH  10  11
ATOM     11  C   UNL     1       3.554   3.069  17.641  0.00  0.00    +0.000 C 
BRANCH  11  12
ATOM     12  C   UNL     1       2.070   3.240  17.850  0.00  0.00    +0.000 C 
ATOM     13  O   UNL     1       1.410   4.123  17.331  0.00  0.00    +0.000 OA
BRANCH  12  14
ATOM     14  O   UNL     1       1.644   2.384  18.818  0.00  0.00    +0.000 OA
BRANCH  14  16
ATOM     15  C   UNL     1       1.596   3.007  21.117  0.00  0.00    +0.000 C 
ATOM     16  C   UNL     1       0.804   2.967  19.822  0.00  0.00    +0.000 C 
ENDBRANCH  14  16
ENDBRANCH  12  14
ENDBRANCH  11  12
ENDBRANCH  10  11
ENDBRANCH   1  10
TORSDOF 5
ENDMDL
MODEL 2
REMARK VINA RESULT:      -6.5      1.132      2.634
REMARK  Name = 
REMARK  8 active torsions:
REMARK  status: ('A' for Active; 'I' for Inactive)
REMARK    1  A    between atoms: C_1  and  C_2
REMARK    2  A    between atoms: C_2  and  O_3
REMARK    3  A    between atoms: O_3  and  C_4
REMARK    4  A    between atoms: C_4  and  C_6
REMARK    5  A    between atoms: C_6  and  C_7
REMARK    6  A    between atoms: C_7  and  C_8
REMARK    7  A    between atoms: C_9  and  C_10
REMARK    8  A    between atoms: C_13  and  C_14
REMARK                            x       y       z     vdW  Elec       q    Type
REMARK                         _______ _______ _______ _____ _____    ______ ____
ROOT
ATOM      1  C   UNL     1       5.745   5.021  16.773  0.00  0.00    +0.000 C 
ATOM      2  C   UNL     1       7.024   5.119  15.963  0.00  0.00    +0.000 C 
ATOM      3  C   UNL     1       6.922   4.885  14.474  0.00  0.00    +0.000 C 
ATOM      4  O   UNL     1       7.905   4.177  16.598  0.00  0.00    +0.000 OA
ATOM      5  O   UNL     1       7.579   4.344  18.036  0.00  0.00    +0.000 OA
ATOM      6  C   UNL     1       6.555   5.351  18.014  0.00  0.00    +0.000 C 
ATOM      7  C   UNL     1       5.840   5.451  19.340  0.00  0.00    +0.000 C 
ATOM      8  O   UNL     1       7.143   6.622  17.673  0.00  0.00    +0.000 OA
ATOM      9  O   UNL     1       7.474   6.457  16.240  0.00  0.00    +0.000 OA
ENDROOT
BRANCH   1  10
ATOM     10  C   UNL     1       5.056   3.653  16.721  0.00  0.00    +0.000 C 
BRANCH  10  11
ATOM     11  C   UNL     1       3.589   3.718  17.132  0.00  0.00    +0.000 C 
BRANCH  11  12
ATOM     12  C   UNL     1       3.262   2.780  18.268  0.00  0.00    +0.000 C 
ATOM     13  O   UNL     1       3.578   1.604  18.288  0.00  0.00    +0.000 OA
BRANCH  12  14
ATOM     14  O   UNL     1       2.434   3.403  19.149  0.00  0.00    +0.000 OA
BRANCH  14  16
ATOM     15  C   UNL     1       2.246   2.812  21.450  0.00  0.00    +0.000 C 
ATOM     16  C   UNL     1       1.733   2.533  20.048  0.00  0.00    +0.000 C 
ENDBRANCH  14  16
ENDBRANCH  12  14
ENDBRANCH  11  12
ENDBRANCH  10  11
ENDBRANCH   1  10
TORSDOF 5
ENDMDL
MODEL 3
REMARK VINA RESULT:      -6.5      1.155      2.586
REMARK  Name = 
REMARK  8 active torsions:
REMARK  status: ('A' for Active; 'I' for Inactive)
REMARK    1  A    between atoms: C_1  and  C_2
REMARK    2  A    between atoms: C_2  and  O_3
REMARK    3  A    between atoms: O_3  and  C_4
REMARK    4  A    between atoms: C_4  and  C_6
REMARK    5  A    between atoms: C_6  and  C_7
REMARK    6  A    between atoms: C_7  and  C_8
REMARK    7  A    between atoms: C_9  and  C_10
REMARK    8  A    between atoms: C_13  and  C_14
REMARK                            x       y       z     vdW  Elec       q    Type
REMARK                         _______ _______ _______ _____ _____    ______ ____
ROOT
ATOM      1  C   UNL     1       6.076   5.439  17.589  0.00  0.00    +0.000 C 
ATOM      2  C   UNL     1       6.773   5.353  16.244  0.00  0.00    +0.000 C 
ATOM      3  C   UNL     1       5.900   5.249  15.015  0.00  0.00    +0.000 C 
ATOM      4  O   UNL     1       7.646   4.220  16.382  0.00  0.00    +0.000 OA
ATOM      5  O   UNL     1       8.118   4.342  17.784  0.00  0.00    +0.000 OA
ATOM      6  C   UNL     1       7.442   5.522  18.245  0.00  0.00    +0.000 C 
ATOM      7  C   UNL     1       7.516   5.659  19.746  0.00  0.00    +0.000 C 
ATOM      8  O   UNL     1       8.020   6.682  17.614  0.00  0.00    +0.000 OA
ATOM      9  O   UNL     1       7.554   6.560  16.214  0.00  0.00    +0.000 OA
ENDROOT
BRANCH   1  10
ATOM     10  C   UNL     1       5.196   4.231  17.934  0.00  0.00    +0.000 C 
BRANCH  10  11
ATOM     11  C   UNL     1       3.709   4.567  17.930  0.00  0.00    +0.000 C 
BRANCH  11  12
ATOM     12  C   UNL     1       2.837   3.337  17.875  0.00  0.00    +0.000 C 
ATOM     13  O   UNL     1       2.078   3.085  16.955  0.00  0.00    +0.000 OA
BRANCH  12  14
ATOM     14  O   UNL     1       2.906   2.675  19.061  0.00  0.00    +0.000 OA
BRANCH  14  16
ATOM     15  C   UNL     1       1.053   3.407  20.370  0.00  0.00    +0.000 C 
ATOM     16  C   UNL     1       1.647   2.244  19.594  0.00  0.00    +0.000 C 
ENDBRANCH  14  16
ENDBRANCH  12  14
ENDBRANCH  11  12
ENDBRANCH  10  11
ENDBRANCH   1  10
TORSDOF 5
ENDMDL
MODEL 4
REMARK VINA RESULT:      -6.4      1.484      1.774
REMARK  Name = 
REMARK  8 active torsions:
REMARK  status: ('A' for Active; 'I' for Inactive)
REMARK    1  A    between atoms: C_1  and  C_2
REMARK    2  A    between atoms: C_2  and  O_3
REMARK    3  A    between atoms: O_3  and  C_4
REMARK    4  A    between atoms: C_4  and  C_6
REMARK    5  A    between atoms: C_6  and  C_7
REMARK    6  A    between atoms: C_7  and  C_8
REMARK    7  A    between atoms: C_9  and  C_10
REMARK    8  A    between atoms: C_13  and  C_14
REMARK                            x       y       z     vdW  Elec       q    Type
REMARK                         _______ _______ _______ _____ _____    ______ ____
ROOT
ATOM      1  C   UNL     1       6.053   4.969  17.332  0.00  0.00    +0.000 C 
ATOM      2  C   UNL     1       7.347   5.370  18.016  0.00  0.00    +0.000 C 
ATOM      3  C   UNL     1       7.302   5.596  19.509  0.00  0.00    +0.000 C 
ATOM      4  O   UNL     1       7.760   6.548  17.305  0.00  0.00    +0.000 OA
ATOM      5  O   UNL     1       7.389   6.230  15.904  0.00  0.00    +0.000 OA
ATOM      6  C   UNL     1       6.811   4.920  16.018  0.00  0.00    +0.000 C 
ATOM      7  C   UNL     1       6.065   4.526  14.767  0.00  0.00    +0.000 C 
ATOM      8  O   UNL     1       7.852   3.962  16.296  0.00  0.00    +0.000 OA
ATOM      9  O   UNL     1       8.228   4.280  17.691  0.00  0.00    +0.000 OA
ENDROOT
BRANCH   1  10
ATOM     10  C   UNL     1       4.918   5.993  17.457  0.00  0.00    +0.000 C 
BRANCH  10  11
ATOM     11  C   UNL     1       3.550   5.338  17.606  0.00  0.00    +0.000 C 
BRANCH  11  12
ATOM     12  C   UNL     1       3.515   4.311  18.710  0.00  0.00    +0.000 C 
ATOM     13  O   UNL     1       3.751   4.564  19.879  0.00  0.00    +0.000 OA
BRANCH  12  14
ATOM     14  O   UNL     1       3.358   3.071  18.175  0.00  0.00    +0.000 OA
BRANCH  14  16
ATOM     15  C   UNL     1       1.068   2.620  18.657  0.00  0.00    +0.000 C 
ATOM     16  C   UNL     1       2.501   2.190  18.914  0.00  0.00    +0.000 C 
ENDBRANCH  14  16
ENDBRANCH  12  14
ENDBRANCH  11  12
ENDBRANCH  10  11
ENDBRANCH   1  10
TORSDOF 5
ENDMDL
MODEL 5
REMARK VINA RESULT:      -6.4      1.472      1.697
REMARK  Name = 
REMARK  8 active torsions:
REMARK  status: ('A' for Active; 'I' for Inactive)
REMARK    1  A    between atoms: C_1  and  C_2
REMARK    2  A    between atoms: C_2  and  O_3
REMARK    3  A    between atoms: O_3  and  C_4
REMARK    4  A    between atoms: C_4  and  C_6
REMARK    5  A    between atoms: C_6  and  C_7
REMARK    6  A    between atoms: C_7  and  C_8
REMARK    7  A    between atoms: C_9  and  C_10
REMARK    8  A    between atoms: C_13  and  C_14
REMARK                            x       y       z     vdW  Elec       q    Type
REMARK                         _______ _______ _______ _____ _____    ______ ____
ROOT
ATOM      1  C   UNL     1       6.105   5.064  17.513  0.00  0.00    +0.000 C 
ATOM      2  C   UNL     1       7.459   5.390  18.116  0.00  0.00    +0.000 C 
ATOM      3  C   UNL     1       7.524   5.586  19.612  0.00  0.00    +0.000 C 
ATOM      4  O   UNL     1       7.880   6.562  17.400  0.00  0.00    +0.000 OA
ATOM      5  O   UNL     1       7.402   6.291  16.021  0.00  0.00    +0.000 OA
ATOM      6  C   UNL     1       6.771   5.007  16.151  0.00  0.00    +0.000 C 
ATOM      7  C   UNL     1       5.925   4.675  14.945  0.00  0.00    +0.000 C 
ATOM      8  O   UNL     1       7.780   3.995  16.340  0.00  0.00    +0.000 OA
ATOM      9  O   UNL     1       8.263   4.266  17.713  0.00  0.00    +0.000 OA
ENDROOT
BRANCH   1  10
ATOM     10  C   UNL     1       5.032   6.137  17.733  0.00  0.00    +0.000 C 
BRANCH  10  11
ATOM     11  C   UNL     1       3.618   5.568  17.706  0.00  0.00    +0.000 C 
BRANCH  11  12
ATOM     12  C   UNL     1       3.538   4.183  18.301  0.00  0.00    +0.000 C 
ATOM     13  O   UNL     1       3.364   3.172  17.644  0.00  0.00    +0.000 OA
BRANCH  12  14
ATOM     14  O   UNL     1       3.518   4.271  19.658  0.00  0.00    +0.000 OA
BRANCH  14  16
ATOM     15  C   UNL     1       1.306   4.435  20.529  0.00  0.00    +0.000 C 
ATOM     16  C   UNL     1       2.489   3.510  20.304  0.00  0.00    +0.000 C 
ENDBRANCH  14  16
ENDBRANCH  12  14
ENDBRANCH  11  12
ENDBRANCH  10  11
ENDBRANCH   1  10
TORSDOF 5
ENDMDL
MODEL 6
REMARK VINA RESULT:      -6.4      0.940      1.059
REMARK  Name = 
REMARK  8 active torsions:
REMARK  status: ('A' for Active; 'I' for Inactive)
REMARK    1  A    between atoms: C_1  and  C_2
REMARK    2  A    between atoms: C_2  and  O_3
REMARK    3  A    between atoms: O_3  and  C_4
REMARK    4  A    between atoms: C_4  and  C_6
REMARK    5  A    between atoms: C_6  and  C_7
REMARK    6  A    between atoms: C_7  and  C_8
REMARK    7  A    between atoms: C_9  and  C_10
REMARK    8  A    between atoms: C_13  and  C_14
REMARK                            x       y       z     vdW  Elec       q    Type
REMARK                         _______ _______ _______ _____ _____    ______ ____
ROOT
ATOM      1  C   UNL     1       5.702   4.357  16.899  0.00  0.00    +0.000 C 
ATOM      2  C   UNL     1       6.517   5.250  17.816  0.00  0.00    +0.000 C 
ATOM      3  C   UNL     1       6.150   5.260  19.281  0.00  0.00    +0.000 C 
ATOM      4  O   UNL     1       6.397   6.552  17.221  0.00  0.00    +0.000 OA
ATOM      5  O   UNL     1       6.439   6.252  15.768  0.00  0.00    +0.000 OA
ATOM      6  C   UNL     1       6.569   4.822  15.744  0.00  0.00    +0.000 C 
ATOM      7  C   UNL     1       6.304   4.259  14.368  0.00  0.00    +0.000 C 
ATOM      8  O   UNL     1       7.893   4.455  16.181  0.00  0.00    +0.000 OA
ATOM      9  O   UNL     1       7.856   4.758  17.629  0.00  0.00    +0.000 OA
ENDROOT
BRANCH   1  10
ATOM     10  C   UNL     1       4.207   4.691  16.842  0.00  0.00    +0.000 C 
BRANCH  10  11
ATOM     11  C   UNL     1       3.325   3.511  17.235  0.00  0.00    +0.000 C 
BRANCH  11  12
ATOM     12  C   UNL     1       2.104   3.932  18.014  0.00  0.00    +0.000 C 
ATOM     13  O   UNL     1       1.000   3.439  17.862  0.00  0.00    +0.000 OA
BRANCH  12  14
ATOM     14  O   UNL     1       2.395   5.034  18.757  0.00  0.00    +0.000 OA
BRANCH  14  16
ATOM     15  C   UNL     1       2.514   4.046  20.922  0.00  0.00    +0.000 C 
ATOM     16  C   UNL     1       1.796   5.068  20.059  0.00  0.00    +0.000 C 
ENDBRANCH  14  16
ENDBRANCH  12  14
ENDBRANCH  11  12
ENDBRANCH  10  11
ENDBRANCH   1  10
TORSDOF 5
ENDMDL
MODEL 7
REMARK VINA RESULT:      -6.4      0.800      1.088
REMARK  Name = 
REMARK  8 active torsions:
REMARK  status: ('A' for Active; 'I' for Inactive)
REMARK    1  A    between atoms: C_1  and  C_2
REMARK    2  A    between atoms: C_2  and  O_3
REMARK    3  A    between atoms: O_3  and  C_4
REMARK    4  A    between atoms: C_4  and  C_6
REMARK    5  A    between atoms: C_6  and  C_7
REMARK    6  A    between atoms: C_7  and  C_8
REMARK    7  A    between atoms: C_9  and  C_10
REMARK    8  A    between atoms: C_13  and  C_14
REMARK                            x       y       z     vdW  Elec       q    Type
REMARK                         _______ _______ _______ _____ _____    ______ ____
ROOT
ATOM      1  C   UNL     1       5.502   4.383  16.976  0.00  0.00    +0.000 C 
ATOM      2  C   UNL     1       6.416   5.340  17.718  0.00  0.00    +0.000 C 
ATOM      3  C   UNL     1       6.354   5.331  19.227  0.00  0.00    +0.000 C 
ATOM      4  O   UNL     1       6.081   6.626  17.172  0.00  0.00    +0.000 OA
ATOM      5  O   UNL     1       5.850   6.322  15.738  0.00  0.00    +0.000 OA
ATOM      6  C   UNL     1       6.079   4.905  15.673  0.00  0.00    +0.000 C 
ATOM      7  C   UNL     1       5.584   4.317  14.375  0.00  0.00    +0.000 C 
ATOM      8  O   UNL     1       7.487   4.642  15.830  0.00  0.00    +0.000 OA
ATOM      9  O   UNL     1       7.723   4.949  17.258  0.00  0.00    +0.000 OA
ENDROOT
BRANCH   1  10
ATOM     10  C   UNL     1       4.005   4.603  17.226  0.00  0.00    +0.000 C 
BRANCH  10  11
ATOM     11  C   UNL     1       3.188   3.326  17.064  0.00  0.00    +0.000 C 
BRANCH  11  12
ATOM     12  C   UNL     1       2.950   2.619  18.375  0.00  0.00    +0.000 C 
ATOM     13  O   UNL     1       3.805   1.984  18.967  0.00  0.00    +0.000 OA
BRANCH  12  14
ATOM     14  O   UNL     1       1.626   2.660  18.682  0.00  0.00    +0.000 OA
BRANCH  14  16
ATOM     15  C   UNL     1       1.081   4.193  20.422  0.00  0.00    +0.000 C 
ATOM     16  C   UNL     1       1.324   2.734  20.081  0.00  0.00    +0.000 C 
ENDBRANCH  14  16
ENDBRANCH  12  14
ENDBRANCH  11  12
ENDBRANCH  10  11
ENDBRANCH   1  10
TORSDOF 5
ENDMDL
MODEL 8
REMARK VINA RESULT:      -6.4      1.498      1.598
REMARK  Name = 
REMARK  8 active torsions:
REMARK  status: ('A' for Active; 'I' for Inactive)
REMARK    1  A    between atoms: C_1  and  C_2
REMARK    2  A    between atoms: C_2  and  O_3
REMARK    3  A    between atoms: O_3  and  C_4
REMARK    4  A    between atoms: C_4  and  C_6
REMARK    5  A    between atoms: C_6  and  C_7
REMARK    6  A    between atoms: C_7  and  C_8
REMARK    7  A    between atoms: C_9  and  C_10
REMARK    8  A    between atoms: C_13  and  C_14
REMARK                            x       y       z     vdW  Elec       q    Type
REMARK                         _______ _______ _______ _____ _____    ______ ____
ROOT
ATOM      1  C   UNL     1       5.928   4.768  17.112  0.00  0.00    +0.000 C 
ATOM      2  C   UNL     1       7.008   5.327  18.020  0.00  0.00    +0.000 C 
ATOM      3  C   UNL     1       6.671   5.482  19.485  0.00  0.00    +0.000 C 
ATOM      4  O   UNL     1       7.353   6.582  17.411  0.00  0.00    +0.000 OA
ATOM      5  O   UNL     1       7.283   6.270  15.961  0.00  0.00    +0.000 OA
ATOM      6  C   UNL     1       6.901   4.885  15.953  0.00  0.00    +0.000 C 
ATOM      7  C   UNL     1       6.452   4.438  14.583  0.00  0.00    +0.000 C 
ATOM      8  O   UNL     1       8.012   4.080  16.396  0.00  0.00    +0.000 OA
ATOM      9  O   UNL     1       8.087   4.393  17.841  0.00  0.00    +0.000 OA
ENDROOT
BRANCH   1  10
ATOM     10  C   UNL     1       4.647   5.608  17.048  0.00  0.00    +0.000 C 
BRANCH  10  11
ATOM     11  C   UNL     1       3.421   4.847  17.543  0.00  0.00    +0.000 C 
BRANCH  11  12
ATOM     12  C   UNL     1       3.023   5.237  18.944  0.00  0.00    +0.000 C 
ATOM     13  O   UNL     1       3.096   6.373  19.379  0.00  0.00    +0.000 OA
BRANCH  12  14
ATOM     14  O   UNL     1       2.747   4.118  19.668  0.00  0.00    +0.000 OA
BRANCH  14  16
ATOM     15  C   UNL     1       1.795   3.016  21.554  0.00  0.00    +0.000 C 
ATOM     16  C   UNL     1       2.237   4.354  20.987  0.00  0.00    +0.000 C 
ENDBRANCH  14  16
ENDBRANCH  12  14
ENDBRANCH  11  12
ENDBRANCH  10  11
ENDBRANCH   1  10
TORSDOF 5
ENDMDL
MODEL 9
REMARK VINA RESULT:      -6.3      1.692      1.970
REMARK  Name = 
REMARK  8 active torsions:
REMARK  status: ('A' for Active; 'I' for Inactive)
REMARK    1  A    between atoms: C_1  and  C_2
REMARK    2  A    between atoms: C_2  and  O_3
REMARK    3  A    between atoms: O_3  and  C_4
REMARK    4  A    between atoms: C_4  and  C_6
REMARK    5  A    between atoms: C_6  and  C_7
REMARK    6  A    between atoms: C_7  and  C_8
REMARK    7  A    between atoms: C_9  and  C_10
REMARK    8  A    between atoms: C_13  and  C_14
REMARK                            x       y       z     vdW  Elec       q    Type
REMARK                         _______ _______ _______ _____ _____    ______ ____
ROOT
ATOM      1  C   UNL     1       5.832   4.546  16.310  0.00  0.00    +0.000 C 
ATOM      2  C   UNL     1       6.368   5.878  16.801  0.00  0.00    +0.000 C 
ATOM      3  C   UNL     1       6.385   6.112  18.293  0.00  0.00    +0.000 C 
ATOM      4  O   UNL     1       5.560   6.847  16.112  0.00  0.00    +0.000 OA
ATOM      5  O   UNL     1       5.389   6.233  14.771  0.00  0.00    +0.000 OA
ATOM      6  C   UNL     1       6.116   5.001  14.890  0.00  0.00    +0.000 C 
ATOM      7  C   UNL     1       5.809   4.058  13.753  0.00  0.00    +0.000 C 
ATOM      8  O   UNL     1       7.529   5.282  14.931  0.00  0.00    +0.000 OA
ATOM      9  O   UNL     1       7.703   5.899  16.266  0.00  0.00    +0.000 OA
ENDROOT
BRANCH   1  10
ATOM     10  C   UNL     1       4.372   4.265  16.685  0.00  0.00    +0.000 C 
BRANCH  10  11
ATOM     11  C   UNL     1       4.212   2.991  17.507  0.00  0.00    +0.000 C 
BRANCH  11  12
ATOM     12  C   UNL     1       4.105   3.264  18.987  0.00  0.00    +0.000 C 
ATOM     13  O   UNL     1       4.933   2.903  19.804  0.00  0.00    +0.000 OA
BRANCH  12  14
ATOM     14  O   UNL     1       2.888   3.805  19.264  0.00  0.00    +0.000 OA
BRANCH  14  16
ATOM     15  C   UNL     1       2.779   6.177  19.465  0.00  0.00    +0.000 C 
ATOM     16  C   UNL     1       2.897   4.869  20.226  0.00  0.00    +0.000 C 
ENDBRANCH  14  16
ENDBRANCH  12  14
ENDBRANCH  11  12
ENDBRANCH  10  11
ENDBRANCH   1  10
TORSDOF 5
ENDMDL
