MODEL 1
REMARK VINA RESULT:      -7.1      0.000      0.000
REMARK  Name = 
REMARK  5 active torsions:
REMARK  status: ('A' for Active; 'I' for Inactive)
REMARK    1  A    between atoms: N_6  and  C_7
REMARK    2  A    between atoms: C_7  and  C_8
REMARK    3  A    between atoms: C_8  and  O_10
REMARK    4  A    between atoms: O_10  and  C_11
REMARK    5  A    between atoms: C_11  and  C_12
REMARK                            x       y       z     vdW  Elec       q    Type
REMARK                         _______ _______ _______ _____ _____    ______ ____
ROOT
ATOM      1  C   UNL     1       1.872   4.098  18.010  0.00  0.00    +0.000 C 
ATOM      2  O   UNL     1       1.027   4.357  17.158  0.00  0.00    +0.000 OA
ENDROOT
BRANCH   1   3
ATOM      3  C   UNL     1       2.229   2.703  18.416  0.00  0.00    +0.000 C 
BRANCH   3   9
ATOM      4  N   UNL     1       4.791   2.213  20.115  0.00  0.00    +0.000 N 
ATOM      5  C   UNL     1       3.543   2.352  20.597  0.00  0.00    +0.000 A 
ATOM      6  N   UNL     1       3.174   2.328  21.857  0.00  0.00    +0.000 NA
ATOM      7  N   UNL     1       1.818   2.533  21.874  0.00  0.00    +0.000 NA
ATOM      8  N   UNL     1       1.345   2.675  20.646  0.00  0.00    +0.000 NA
ATOM      9  N   UNL     1       2.415   2.544  19.835  0.00  0.00    +0.000 N 
ATOM     10  H   UNL     1       5.548   2.254  20.792  0.00  0.00    +0.000 HD
ATOM     11  H   UNL     1       5.069   2.534  19.186  0.00  0.00    +0.000 HD
ENDBRANCH   3   9
ENDBRANCH   1   3
BRANCH   1  12
ATOM     12  O   UNL     1       2.588   5.013  18.713  0.00  0.00    +0.000 OA
BRANCH  12  13
ATOM     13  C   UNL     1       3.272   6.001  17.929  0.00  0.00    +0.000 C 
BRANCH  13  14
ATOM     14  C   UNL     1       4.638   5.494  17.545  0.00  0.00    +0.000 A 
ATOM     15  C   UNL     1       5.649   5.362  18.509  0.00  0.00    +0.000 A 
ATOM     16  C   UNL     1       6.914   4.896  18.150  0.00  0.00    +0.000 A 
ATOM     17  C   UNL     1       7.187   4.563  16.824  0.00  0.00    +0.000 A 
ATOM     18  C   UNL     1       6.190   4.696  15.861  0.00  0.00    +0.000 A 
ATOM     19 BR   UNL     1       6.559   4.253  14.061  0.00  0.00    +0.000 Br
ATOM     20  C   UNL     1       4.921   5.159  16.213  0.00  0.00    +0.000 A 
ENDBRANCH  13  14
ENDBRANCH  12  13
ENDBRANCH   1  12
TORSDOF 5
ENDMDL
MODEL 2
REMARK VINA RESULT:      -6.9      4.223      5.990
REMARK  Name = 
REMARK  5 active torsions:
REMARK  status: ('A' for Active; 'I' for Inactive)
REMARK    1  A    between atoms: N_6  and  C_7
REMARK    2  A    between atoms: C_7  and  C_8
REMARK    3  A    between atoms: C_8  and  O_10
REMARK    4  A    between atoms: O_10  and  C_11
REMARK    5  A    between atoms: C_11  and  C_12
REMARK                            x       y       z     vdW  Elec       q    Type
REMARK                         _______ _______ _______ _____ _____    ______ ____
ROOT
ATOM      1  C   UNL     1       5.878   4.289  16.110  0.00  0.00    +0.000 C 
ATOM      2  O   UNL     1       5.929   4.094  14.899  0.00  0.00    +0.000 OA
ENDROOT
BRANCH   1   3
ATOM      3  C   UNL     1       7.093   4.386  16.979  0.00  0.00    +0.000 C 
BRANCH   3   9
ATOM      4  N   UNL     1       7.961   5.551  19.732  0.00  0.00    +0.000 N 
ATOM      5  C   UNL     1       7.812   6.251  18.593  0.00  0.00    +0.000 A 
ATOM      6  N   UNL     1       8.021   7.537  18.423  0.00  0.00    +0.000 NA
ATOM      7  N   UNL     1       7.767   7.804  17.101  0.00  0.00    +0.000 NA
ATOM      8  N   UNL     1       7.399   6.707  16.458  0.00  0.00    +0.000 NA
ATOM      9  N   UNL     1       7.405   5.731  17.388  0.00  0.00    +0.000 N 
ATOM     10  H   UNL     1       8.434   6.022  20.498  0.00  0.00    +0.000 HD
ATOM     11  H   UNL     1       8.084   4.537  19.750  0.00  0.00    +0.000 HD
ENDBRANCH   3   9
ENDBRANCH   1   3
BRANCH   1  12
ATOM     12  O   UNL     1       4.740   4.428  16.839  0.00  0.00    +0.000 OA
BRANCH  12  13
ATOM     13  C   UNL     1       4.138   3.206  17.289  0.00  0.00    +0.000 C 
BRANCH  13  14
ATOM     14  C   UNL     1       3.056   3.509  18.294  0.00  0.00    +0.000 A 
ATOM     15  C   UNL     1       2.128   2.523  18.662  0.00  0.00    +0.000 A 
ATOM     16  C   UNL     1       1.124   2.807  19.590  0.00  0.00    +0.000 A 
ATOM     17  C   UNL     1       1.032   4.078  20.155  0.00  0.00    +0.000 A 
ATOM     18  C   UNL     1       1.948   5.063  19.790  0.00  0.00    +0.000 A 
ATOM     19 BR   UNL     1       1.821   6.790  20.548  0.00  0.00    +0.000 Br
ATOM     20  C   UNL     1       2.955   4.786  18.865  0.00  0.00    +0.000 A 
ENDBRANCH  13  14
ENDBRANCH  12  13
ENDBRANCH   1  12
TORSDOF 5
ENDMDL
MODEL 3
REMARK VINA RESULT:      -6.9      5.045      6.673
REMARK  Name = 
REMARK  5 active torsions:
REMARK  status: ('A' for Active; 'I' for Inactive)
REMARK    1  A    between atoms: N_6  and  C_7
REMARK    2  A    between atoms: C_7  and  C_8
REMARK    3  A    between atoms: C_8  and  O_10
REMARK    4  A    between atoms: O_10  and  C_11
REMARK    5  A    between atoms: C_11  and  C_12
REMARK                            x       y       z     vdW  Elec       q    Type
REMARK                         _______ _______ _______ _____ _____    ______ ____
ROOT
ATOM      1  C   UNL     1       7.131   4.627  16.681  0.00  0.00    +0.000 C 
ATOM      2  O   UNL     1       8.167   4.117  17.097  0.00  0.00    +0.000 OA
ENDROOT
BRANCH   1   3
ATOM      3  C   UNL     1       6.375   4.106  15.500  0.00  0.00    +0.000 C 
BRANCH   3   9
ATOM      4  N   UNL     1       5.940   2.986  12.628  0.00  0.00    +0.000 N 
ATOM      5  C   UNL     1       6.749   4.009  12.959  0.00  0.00    +0.000 A 
ATOM      6  N   UNL     1       7.483   4.732  12.145  0.00  0.00    +0.000 NA
ATOM      7  N   UNL     1       8.120   5.669  12.918  0.00  0.00    +0.000 NA
ATOM      8  N   UNL     1       7.796   5.530  14.194  0.00  0.00    +0.000 NA
ATOM      9  N   UNL     1       6.952   4.480  14.234  0.00  0.00    +0.000 N 
ATOM     10  H   UNL     1       5.749   2.859  11.638  0.00  0.00    +0.000 HD
ATOM     11  H   UNL     1       5.178   2.663  13.226  0.00  0.00    +0.000 HD
ENDBRANCH   3   9
ENDBRANCH   1   3
BRANCH   1  12
ATOM     12  O   UNL     1       6.529   5.727  17.205  0.00  0.00    +0.000 OA
BRANCH  12  13
ATOM     13  C   UNL     1       5.997   5.573  18.528  0.00  0.00    +0.000 C 
BRANCH  13  14
ATOM     14  C   UNL     1       4.518   5.293  18.455  0.00  0.00    +0.000 A 
ATOM     15  C   UNL     1       3.614   6.309  18.107  0.00  0.00    +0.000 A 
ATOM     16  C   UNL     1       2.245   6.048  18.044  0.00  0.00    +0.000 A 
ATOM     17  C   UNL     1       1.761   4.773  18.333  0.00  0.00    +0.000 A 
ATOM     18  C   UNL     1       2.652   3.761  18.684  0.00  0.00    +0.000 A 
ATOM     19 BR   UNL     1       1.998   2.033  19.084  0.00  0.00    +0.000 Br
ATOM     20  C   UNL     1       4.023   4.014  18.746  0.00  0.00    +0.000 A 
ENDBRANCH  13  14
ENDBRANCH  12  13
ENDBRANCH   1  12
TORSDOF 5
ENDMDL
MODEL 4
REMARK VINA RESULT:      -6.9      3.990      5.915
REMARK  Name = 
REMARK  5 active torsions:
REMARK  status: ('A' for Active; 'I' for Inactive)
REMARK    1  A    between atoms: N_6  and  C_7
REMARK    2  A    between atoms: C_7  and  C_8
REMARK    3  A    between atoms: C_8  and  O_10
REMARK    4  A    between atoms: O_10  and  C_11
REMARK    5  A    between atoms: C_11  and  C_12
REMARK                            x       y       z     vdW  Elec       q    Type
REMARK                         _______ _______ _______ _____ _____    ______ ____
ROOT
ATOM      1  C   UNL     1       6.167   5.186  18.386  0.00  0.00    +0.000 C 
ATOM      2  O   UNL     1       5.911   4.255  19.145  0.00  0.00    +0.000 OA
ENDROOT
BRANCH   1   3
ATOM      3  C   UNL     1       7.369   5.215  17.496  0.00  0.00    +0.000 C 
BRANCH   3   9
ATOM      4  N   UNL     1       5.533   3.039  16.239  0.00  0.00    +0.000 N 
ATOM      5  C   UNL     1       6.254   3.948  15.558  0.00  0.00    +0.000 A 
ATOM      6  N   UNL     1       6.305   4.102  14.255  0.00  0.00    +0.000 NA
ATOM      7  N   UNL     1       7.146   5.160  14.017  0.00  0.00    +0.000 NA
ATOM      8  N   UNL     1       7.619   5.654  15.151  0.00  0.00    +0.000 NA
ATOM      9  N   UNL     1       7.081   4.889  16.123  0.00  0.00    +0.000 N 
ATOM     10  H   UNL     1       4.834   2.524  15.710  0.00  0.00    +0.000 HD
ATOM     11  H   UNL     1       5.288   3.147  17.225  0.00  0.00    +0.000 HD
ENDBRANCH   3   9
ENDBRANCH   1   3
BRANCH   1  12
ATOM     12  O   UNL     1       5.426   6.316  18.248  0.00  0.00    +0.000 OA
BRANCH  12  13
ATOM     13  C   UNL     1       4.173   6.158  17.567  0.00  0.00    +0.000 C 
BRANCH  13  14
ATOM     14  C   UNL     1       3.134   5.627  18.522  0.00  0.00    +0.000 A 
ATOM     15  C   UNL     1       2.762   6.366  19.655  0.00  0.00    +0.000 A 
ATOM     16  C   UNL     1       1.803   5.871  20.540  0.00  0.00    +0.000 A 
ATOM     17  C   UNL     1       1.210   4.631  20.308  0.00  0.00    +0.000 A 
ATOM     18  C   UNL     1       1.579   3.890  19.187  0.00  0.00    +0.000 A 
ATOM     19 BR   UNL     1       0.783   2.204  18.874  0.00  0.00    +0.000 Br
ATOM     20  C   UNL     1       2.535   4.380  18.297  0.00  0.00    +0.000 A 
ENDBRANCH  13  14
ENDBRANCH  12  13
ENDBRANCH   1  12
TORSDOF 5
ENDMDL
MODEL 5
REMARK VINA RESULT:      -6.8      4.229      5.867
REMARK  Name = 
REMARK  5 active torsions:
REMARK  status: ('A' for Active; 'I' for Inactive)
REMARK    1  A    between atoms: N_6  and  C_7
REMARK    2  A    between atoms: C_7  and  C_8
REMARK    3  A    between atoms: C_8  and  O_10
REMARK    4  A    between atoms: O_10  and  C_11
REMARK    5  A    between atoms: C_11  and  C_12
REMARK                            x       y       z     vdW  Elec       q    Type
REMARK                         _______ _______ _______ _____ _____    ______ ____
ROOT
ATOM      1  C   UNL     1       5.766   4.212  16.111  0.00  0.00    +0.000 C 
ATOM      2  O   UNL     1       5.468   4.545  14.967  0.00  0.00    +0.000 OA
ENDROOT
BRANCH   1   3
ATOM      3  C   UNL     1       7.146   4.349  16.673  0.00  0.00    +0.000 C 
BRANCH   3   9
ATOM      4  N   UNL     1       7.854   5.217  19.578  0.00  0.00    +0.000 N 
ATOM      5  C   UNL     1       7.749   6.036  18.515  0.00  0.00    +0.000 A 
ATOM      6  N   UNL     1       7.942   7.335  18.497  0.00  0.00    +0.000 NA
ATOM      7  N   UNL     1       7.750   7.741  17.201  0.00  0.00    +0.000 NA
ATOM      8  N   UNL     1       7.435   6.717  16.424  0.00  0.00    +0.000 NA
ATOM      9  N   UNL     1       7.412   5.645  17.242  0.00  0.00    +0.000 N 
ATOM     10  H   UNL     1       8.279   5.607  20.414  0.00  0.00    +0.000 HD
ATOM     11  H   UNL     1       7.995   4.209  19.492  0.00  0.00    +0.000 HD
ENDBRANCH   3   9
ENDBRANCH   1   3
BRANCH   1  12
ATOM     12  O   UNL     1       4.917   3.665  17.019  0.00  0.00    +0.000 OA
BRANCH  12  13
ATOM     13  C   UNL     1       3.533   4.006  16.858  0.00  0.00    +0.000 C 
BRANCH  13  14
ATOM     14  C   UNL     1       2.965   4.475  18.173  0.00  0.00    +0.000 A 
ATOM     15  C   UNL     1       2.844   5.845  18.451  0.00  0.00    +0.000 A 
ATOM     16  C   UNL     1       2.321   6.277  19.671  0.00  0.00    +0.000 A 
ATOM     17  C   UNL     1       1.920   5.347  20.629  0.00  0.00    +0.000 A 
ATOM     18  C   UNL     1       2.043   3.985  20.362  0.00  0.00    +0.000 A 
ATOM     19 BR   UNL     1       1.508   2.722  21.662  0.00  0.00    +0.000 Br
ATOM     20  C   UNL     1       2.562   3.546  19.143  0.00  0.00    +0.000 A 
ENDBRANCH  13  14
ENDBRANCH  12  13
ENDBRANCH   1  12
TORSDOF 5
ENDMDL
MODEL 6
REMARK VINA RESULT:      -6.8      4.587      6.313
REMARK  Name = 
REMARK  5 active torsions:
REMARK  status: ('A' for Active; 'I' for Inactive)
REMARK    1  A    between atoms: N_6  and  C_7
REMARK    2  A    between atoms: C_7  and  C_8
REMARK    3  A    between atoms: C_8  and  O_10
REMARK    4  A    between atoms: O_10  and  C_11
REMARK    5  A    between atoms: C_11  and  C_12
REMARK                            x       y       z     vdW  Elec       q    Type
REMARK                         _______ _______ _______ _____ _____    ______ ____
ROOT
ATOM      1  C   UNL     1       3.659   4.967  17.384  0.00  0.00    +0.000 C 
ATOM      2  O   UNL     1       3.764   3.806  17.001  0.00  0.00    +0.000 OA
ENDROOT
BRANCH   1   3
ATOM      3  C   UNL     1       4.627   6.046  17.014  0.00  0.00    +0.000 C 
BRANCH   3   9
ATOM      4  N   UNL     1       6.704   4.223  18.446  0.00  0.00    +0.000 N 
ATOM      5  C   UNL     1       6.824   4.726  17.204  0.00  0.00    +0.000 A 
ATOM      6  N   UNL     1       7.814   4.532  16.364  0.00  0.00    +0.000 NA
ATOM      7  N   UNL     1       7.498   5.216  15.218  0.00  0.00    +0.000 NA
ATOM      8  N   UNL     1       6.334   5.835  15.342  0.00  0.00    +0.000 NA
ATOM      9  N   UNL     1       5.911   5.550  16.590  0.00  0.00    +0.000 N 
ATOM     10  H   UNL     1       7.361   3.492  18.706  0.00  0.00    +0.000 HD
ATOM     11  H   UNL     1       5.810   4.147  18.932  0.00  0.00    +0.000 HD
ENDBRANCH   3   9
ENDBRANCH   1   3
BRANCH   1  12
ATOM     12  O   UNL     1       2.681   5.442  18.198  0.00  0.00    +0.000 OA
BRANCH  12  13
ATOM     13  C   UNL     1       3.124   6.266  19.286  0.00  0.00    +0.000 C 
BRANCH  13  14
ATOM     14  C   UNL     1       2.254   7.493  19.386  0.00  0.00    +0.000 A 
ATOM     15  C   UNL     1       2.068   8.329  18.274  0.00  0.00    +0.000 A 
ATOM     16  C   UNL     1       1.266   9.468  18.370  0.00  0.00    +0.000 A 
ATOM     17  C   UNL     1       0.645   9.786  19.577  0.00  0.00    +0.000 A 
ATOM     18  C   UNL     1       0.830   8.963  20.686  0.00  0.00    +0.000 A 
ATOM     19 BR   UNL     1      -0.004   9.398  22.326  0.00  0.00    +0.000 Br
ATOM     20  C   UNL     1       1.629   7.823  20.597  0.00  0.00    +0.000 A 
ENDBRANCH  13  14
ENDBRANCH  12  13
ENDBRANCH   1  12
TORSDOF 5
ENDMDL
MODEL 7
REMARK VINA RESULT:      -6.7      4.510      6.259
REMARK  Name = 
REMARK  5 active torsions:
REMARK  status: ('A' for Active; 'I' for Inactive)
REMARK    1  A    between atoms: N_6  and  C_7
REMARK    2  A    between atoms: C_7  and  C_8
REMARK    3  A    between atoms: C_8  and  O_10
REMARK    4  A    between atoms: O_10  and  C_11
REMARK    5  A    between atoms: C_11  and  C_12
REMARK                            x       y       z     vdW  Elec       q    Type
REMARK                         _______ _______ _______ _____ _____    ______ ____
ROOT
ATOM      1  C   UNL     1       7.342   5.600  19.145  0.00  0.00    +0.000 C 
ATOM      2  O   UNL     1       8.315   5.164  19.754  0.00  0.00    +0.000 OA
ENDROOT
BRANCH   1   3
ATOM      3  C   UNL     1       7.429   6.703  18.137  0.00  0.00    +0.000 C 
BRANCH   3   9
ATOM      4  N   UNL     1       4.529   7.309  17.184  0.00  0.00    +0.000 N 
ATOM      5  C   UNL     1       5.482   6.694  16.460  0.00  0.00    +0.000 A 
ATOM      6  N   UNL     1       5.380   6.258  15.226  0.00  0.00    +0.000 NA
ATOM      7  N   UNL     1       6.600   5.726  14.895  0.00  0.00    +0.000 NA
ATOM      8  N   UNL     1       7.449   5.822  15.907  0.00  0.00    +0.000 NA
ATOM      9  N   UNL     1       6.752   6.410  16.900  0.00  0.00    +0.000 N 
ATOM     10  H   UNL     1       3.699   7.612  16.681  0.00  0.00    +0.000 HD
ATOM     11  H   UNL     1       4.735   7.889  17.999  0.00  0.00    +0.000 HD
ENDBRANCH   3   9
ENDBRANCH   1   3
BRANCH   1  12
ATOM     12  O   UNL     1       6.062   5.173  19.297  0.00  0.00    +0.000 OA
BRANCH  12  13
ATOM     13  C   UNL     1       5.721   3.969  18.594  0.00  0.00    +0.000 C 
BRANCH  13  14
ATOM     14  C   UNL     1       4.231   3.751  18.643  0.00  0.00    +0.000 A 
ATOM     15  C   UNL     1       3.450   3.884  17.485  0.00  0.00    +0.000 A 
ATOM     16  C   UNL     1       2.070   3.686  17.534  0.00  0.00    +0.000 A 
ATOM     17  C   UNL     1       1.452   3.358  18.741  0.00  0.00    +0.000 A 
ATOM     18  C   UNL     1       2.220   3.230  19.895  0.00  0.00    +0.000 A 
ATOM     19 BR   UNL     1       1.385   2.795  21.534  0.00  0.00    +0.000 Br
ATOM     20  C   UNL     1       3.602   3.425  19.853  0.00  0.00    +0.000 A 
ENDBRANCH  13  14
ENDBRANCH  12  13
ENDBRANCH   1  12
TORSDOF 5
ENDMDL
MODEL 8
REMARK VINA RESULT:      -6.7      4.362      5.965
REMARK  Name = 
REMARK  5 active torsions:
REMARK  status: ('A' for Active; 'I' for Inactive)
REMARK    1  A    between atoms: N_6  and  C_7
REMARK    2  A    between atoms: C_7  and  C_8
REMARK    3  A    between atoms: C_8  and  O_10
REMARK    4  A    between atoms: O_10  and  C_11
REMARK    5  A    between atoms: C_11  and  C_12
REMARK                            x       y       z     vdW  Elec       q    Type
REMARK                         _______ _______ _______ _____ _____    ______ ____
ROOT
ATOM      1  C   UNL     1       6.019   4.229  16.310  0.00  0.00    +0.000 C 
ATOM      2  O   UNL     1       5.997   4.167  15.085  0.00  0.00    +0.000 OA
ENDROOT
BRANCH   1   3
ATOM      3  C   UNL     1       7.279   4.390  17.103  0.00  0.00    +0.000 C 
BRANCH   3   9
ATOM      4  N   UNL     1       8.112   5.600  19.847  0.00  0.00    +0.000 N 
ATOM      5  C   UNL     1       7.930   6.290  18.706  0.00  0.00    +0.000 A 
ATOM      6  N   UNL     1       8.087   7.582  18.529  0.00  0.00    +0.000 NA
ATOM      7  N   UNL     1       7.817   7.833  17.208  0.00  0.00    +0.000 NA
ATOM      8  N   UNL     1       7.489   6.719  16.571  0.00  0.00    +0.000 NA
ATOM      9  N   UNL     1       7.539   5.748  17.505  0.00  0.00    +0.000 N 
ATOM     10  H   UNL     1       8.569   6.093  20.609  0.00  0.00    +0.000 HD
ATOM     11  H   UNL     1       8.275   4.592  19.869  0.00  0.00    +0.000 HD
ENDBRANCH   3   9
ENDBRANCH   1   3
BRANCH   1  12
ATOM     12  O   UNL     1       4.934   4.148  17.123  0.00  0.00    +0.000 OA
BRANCH  12  13
ATOM     13  C   UNL     1       4.104   5.318  17.170  0.00  0.00    +0.000 C 
BRANCH  13  14
ATOM     14  C   UNL     1       3.233   5.279  18.399  0.00  0.00    +0.000 A 
ATOM     15  C   UNL     1       2.831   4.053  18.951  0.00  0.00    +0.000 A 
ATOM     16  C   UNL     1       2.021   4.020  20.087  0.00  0.00    +0.000 A 
ATOM     17  C   UNL     1       1.599   5.209  20.681  0.00  0.00    +0.000 A 
ATOM     18  C   UNL     1       1.991   6.429  20.135  0.00  0.00    +0.000 A 
ATOM     19 BR   UNL     1       1.414   8.042  20.934  0.00  0.00    +0.000 Br
ATOM     20  C   UNL     1       2.802   6.470  19.001  0.00  0.00    +0.000 A 
ENDBRANCH  13  14
ENDBRANCH  12  13
ENDBRANCH   1  12
TORSDOF 5
ENDMDL
MODEL 9
REMARK VINA RESULT:      -6.7      4.371      5.989
REMARK  Name = 
REMARK  5 active torsions:
REMARK  status: ('A' for Active; 'I' for Inactive)
REMARK    1  A    between atoms: N_6  and  C_7
REMARK    2  A    between atoms: C_7  and  C_8
REMARK    3  A    between atoms: C_8  and  O_10
REMARK    4  A    between atoms: O_10  and  C_11
REMARK    5  A    between atoms: C_11  and  C_12
REMARK                            x       y       z     vdW  Elec       q    Type
REMARK                         _______ _______ _______ _____ _____    ______ ____
ROOT
ATOM      1  C   UNL     1       5.754   4.071  18.111  0.00  0.00    +0.000 C 
ATOM      2  O   UNL     1       5.760   4.074  19.338  0.00  0.00    +0.000 OA
ENDROOT
BRANCH   1   3
ATOM      3  C   UNL     1       6.906   4.543  17.281  0.00  0.00    +0.000 C 
BRANCH   3   9
ATOM      4  N   UNL     1       8.268   5.692  19.834  0.00  0.00    +0.000 N 
ATOM      5  C   UNL     1       7.970   6.387  18.721  0.00  0.00    +0.000 A 
ATOM      6  N   UNL     1       8.212   7.657  18.494  0.00  0.00    +0.000 NA
ATOM      7  N   UNL     1       7.760   7.922  17.226  0.00  0.00    +0.000 NA
ATOM      8  N   UNL     1       7.238   6.839  16.673  0.00  0.00    +0.000 NA
ATOM      9  N   UNL     1       7.347   5.874  17.609  0.00  0.00    +0.000 N 
ATOM     10  H   UNL     1       8.882   6.146  20.504  0.00  0.00    +0.000 HD
ATOM     11  H   UNL     1       8.342   4.673  19.852  0.00  0.00    +0.000 HD
ENDBRANCH   3   9
ENDBRANCH   1   3
BRANCH   1  12
ATOM     12  O   UNL     1       4.720   3.663  17.330  0.00  0.00    +0.000 OA
BRANCH  12  13
ATOM     13  C   UNL     1       3.693   4.637  17.101  0.00  0.00    +0.000 C 
BRANCH  13  14
ATOM     14  C   UNL     1       2.812   4.748  18.319  0.00  0.00    +0.000 A 
ATOM     15  C   UNL     1       2.147   3.621  18.825  0.00  0.00    +0.000 A 
ATOM     16  C   UNL     1       1.329   3.727  19.951  0.00  0.00    +0.000 A 
ATOM     17  C   UNL     1       1.161   4.960  20.580  0.00  0.00    +0.000 A 
ATOM     18  C   UNL     1       1.814   6.084  20.079  0.00  0.00    +0.000 A 
ATOM     19 BR   UNL     1       1.580   7.759  20.925  0.00  0.00    +0.000 Br
ATOM     20  C   UNL     1       2.635   5.985  18.955  0.00  0.00    +0.000 A 
ENDBRANCH  13  14
ENDBRANCH  12  13
ENDBRANCH   1  12
TORSDOF 5
ENDMDL
