MODEL 1
REMARK VINA RESULT:      -8.0      0.000      0.000
REMARK  Name = 
REMARK  7 active torsions:
REMARK  status: ('A' for Active; 'I' for Inactive)
REMARK    1  A    between atoms: C_1  and  C_2
REMARK    2  A    between atoms: C_2  and  N_3
REMARK    3  A    between atoms: C_7  and  O_8
REMARK    4  A    between atoms: O_8  and  C_9
REMARK    5  A    between atoms: C_9  and  C_10
REMARK    6  A    between atoms: N_12  and  C_13
REMARK    7  A    between atoms: C_16  and  C_17
REMARK                            x       y       z     vdW  Elec       q    Type
REMARK                         _______ _______ _______ _____ _____    ______ ____
ROOT
ATOM      1  N   UNL     1       6.052   5.481  17.408  0.00  0.00    +0.000 N 
ATOM      2  C   UNL     1       5.667   5.854  18.748  0.00  0.00    +0.000 C 
ATOM      3  C   UNL     1       5.370   4.620  19.580  0.00  0.00    +0.000 C 
ATOM      4  C   UNL     1       4.310   3.761  18.928  0.00  0.00    +0.000 A 
ATOM      5  C   UNL     1       3.404   2.909  19.594  0.00  0.00    +0.000 A 
ATOM      6  C   UNL     1       2.506   2.130  18.840  0.00  0.00    +0.000 A 
ATOM      7  C   UNL     1       2.502   2.150  17.449  0.00  0.00    +0.000 A 
ATOM      8  C   UNL     1       3.411   2.955  16.779  0.00  0.00    +0.000 A 
ATOM      9  C   UNL     1       4.307   3.751  17.504  0.00  0.00    +0.000 A 
ATOM     10  C   UNL     1       5.335   4.512  16.723  0.00  0.00    +0.000 C 
ATOM     11  O   UNL     1       5.551   4.223  15.550  0.00  0.00    +0.000 OA
ENDROOT
BRANCH   1  13
ATOM     12  C   UNL     1       7.630   7.350  17.459  0.00  0.00    +0.000 C 
ATOM     13  C   UNL     1       7.308   5.984  16.870  0.00  0.00    +0.000 C 
ENDBRANCH   1  13
BRANCH   5  14
ATOM     14  O   UNL     1       3.236   2.658  20.932  0.00  0.00    +0.000 OA
BRANCH  14  15
ATOM     15  C   UNL     1       2.282   3.397  21.657  0.00  0.00    +0.000 C 
BRANCH  15  16
ATOM     16  C   UNL     1       1.636   4.538  20.894  0.00  0.00    +0.000 C 
ATOM     17  O   UNL     1       0.545   4.351  20.355  0.00  0.00    +0.000 OA
ATOM     18  N   UNL     1       2.376   5.701  20.878  0.00  0.00    +0.000 N 
ATOM     19  H   UNL     1       3.334   5.623  21.209  0.00  0.00    +0.000 HD
BRANCH  18  20
ATOM     20  C   UNL     1       1.984   6.904  20.268  0.00  0.00    +0.000 A 
ATOM     21  C   UNL     1       2.324   7.214  18.950  0.00  0.00    +0.000 A 
ATOM     22  C   UNL     1       2.019   8.461  18.412  0.00  0.00    +0.000 A 
ATOM     23  C   UNL     1       1.354   9.414  19.181  0.00  0.00    +0.000 A 
ATOM     24  C   UNL     1       1.115  10.788  18.635  0.00  0.00    +0.000 C 
ATOM     25  C   UNL     1       0.945   9.080  20.478  0.00  0.00    +0.000 A 
ATOM     26  C   UNL     1       1.247   7.824  21.016  0.00  0.00    +0.000 A 
ENDBRANCH  18  20
ENDBRANCH  15  16
ENDBRANCH  14  15
ENDBRANCH   5  14
TORSDOF 5
ENDMDL
MODEL 2
REMARK VINA RESULT:      -7.8      1.566      5.329
REMARK  Name = 
REMARK  7 active torsions:
REMARK  status: ('A' for Active; 'I' for Inactive)
REMARK    1  A    between atoms: C_1  and  C_2
REMARK    2  A    between atoms: C_2  and  N_3
REMARK    3  A    between atoms: C_7  and  O_8
REMARK    4  A    between atoms: O_8  and  C_9
REMARK    5  A    between atoms: C_9  and  C_10
REMARK    6  A    between atoms: N_12  and  C_13
REMARK    7  A    between atoms: C_16  and  C_17
REMARK                            x       y       z     vdW  Elec       q    Type
REMARK                         _______ _______ _______ _____ _____    ______ ____
ROOT
ATOM      1  N   UNL     1       2.055   7.737  19.342  0.00  0.00    +0.000 N 
ATOM      2  C   UNL     1       2.855   7.240  18.248  0.00  0.00    +0.000 C 
ATOM      3  C   UNL     1       2.362   5.875  17.804  0.00  0.00    +0.000 C 
ATOM      4  C   UNL     1       2.346   4.896  18.956  0.00  0.00    +0.000 A 
ATOM      5  C   UNL     1       2.503   3.498  18.860  0.00  0.00    +0.000 A 
ATOM      6  C   UNL     1       2.412   2.711  20.024  0.00  0.00    +0.000 A 
ATOM      7  C   UNL     1       2.143   3.268  21.271  0.00  0.00    +0.000 A 
ATOM      8  C   UNL     1       1.952   4.637  21.375  0.00  0.00    +0.000 A 
ATOM      9  C   UNL     1       2.049   5.446  20.235  0.00  0.00    +0.000 A 
ATOM     10  C   UNL     1       1.723   6.899  20.396  0.00  0.00    +0.000 C 
ATOM     11  O   UNL     1       1.132   7.288  21.399  0.00  0.00    +0.000 OA
ENDROOT
BRANCH   1  13
ATOM     12  C   UNL     1       1.786   9.683  17.884  0.00  0.00    +0.000 C 
ATOM     13  C   UNL     1       1.443   9.053  19.226  0.00  0.00    +0.000 C 
ENDBRANCH   1  13
BRANCH   5  14
ATOM     14  O   UNL     1       2.716   2.697  17.767  0.00  0.00    +0.000 OA
BRANCH  14  15
ATOM     15  C   UNL     1       4.035   2.437  17.349  0.00  0.00    +0.000 C 
BRANCH  15  16
ATOM     16  C   UNL     1       4.856   3.667  17.011  0.00  0.00    +0.000 C 
ATOM     17  O   UNL     1       4.822   4.107  15.862  0.00  0.00    +0.000 OA
ATOM     18  N   UNL     1       5.587   4.170  18.066  0.00  0.00    +0.000 N 
ATOM     19  H   UNL     1       5.648   3.575  18.888  0.00  0.00    +0.000 HD
BRANCH  18  20
ATOM     20  C   UNL     1       6.398   5.315  18.017  0.00  0.00    +0.000 A 
ATOM     21  C   UNL     1       7.476   5.500  18.885  0.00  0.00    +0.000 A 
ATOM     22  C   UNL     1       8.189   6.695  18.888  0.00  0.00    +0.000 A 
ATOM     23  C   UNL     1       7.844   7.722  18.010  0.00  0.00    +0.000 A 
ATOM     24  C   UNL     1       8.547   9.043  18.084  0.00  0.00    +0.000 C 
ATOM     25  C   UNL     1       6.811   7.512  17.089  0.00  0.00    +0.000 A 
ATOM     26  C   UNL     1       6.098   6.309  17.082  0.00  0.00    +0.000 A 
ENDBRANCH  18  20
ENDBRANCH  15  16
ENDBRANCH  14  15
ENDBRANCH   5  14
TORSDOF 5
ENDMDL
MODEL 3
REMARK VINA RESULT:      -7.7      3.801      6.859
REMARK  Name = 
REMARK  7 active torsions:
REMARK  status: ('A' for Active; 'I' for Inactive)
REMARK    1  A    between atoms: C_1  and  C_2
REMARK    2  A    between atoms: C_2  and  N_3
REMARK    3  A    between atoms: C_7  and  O_8
REMARK    4  A    between atoms: O_8  and  C_9
REMARK    5  A    between atoms: C_9  and  C_10
REMARK    6  A    between atoms: N_12  and  C_13
REMARK    7  A    between atoms: C_16  and  C_17
REMARK                            x       y       z     vdW  Elec       q    Type
REMARK                         _______ _______ _______ _____ _____    ______ ____
ROOT
ATOM      1  N   UNL     1       2.877   4.127  18.943  0.00  0.00    +0.000 N 
ATOM      2  C   UNL     1       3.691   5.144  19.565  0.00  0.00    +0.000 C 
ATOM      3  C   UNL     1       4.247   6.095  18.520  0.00  0.00    +0.000 C 
ATOM      4  C   UNL     1       5.024   5.349  17.459  0.00  0.00    +0.000 A 
ATOM      5  C   UNL     1       6.099   5.861  16.703  0.00  0.00    +0.000 A 
ATOM      6  C   UNL     1       6.690   5.056  15.710  0.00  0.00    +0.000 A 
ATOM      7  C   UNL     1       6.227   3.775  15.428  0.00  0.00    +0.000 A 
ATOM      8  C   UNL     1       5.149   3.271  16.139  0.00  0.00    +0.000 A 
ATOM      9  C   UNL     1       4.549   4.045  17.142  0.00  0.00    +0.000 A 
ATOM     10  C   UNL     1       3.321   3.488  17.795  0.00  0.00    +0.000 C 
ATOM     11  O   UNL     1       2.723   2.549  17.277  0.00  0.00    +0.000 OA
ENDROOT
BRANCH   1  13
ATOM     12  C   UNL     1       1.499   3.736  20.926  0.00  0.00    +0.000 C 
ATOM     13  C   UNL     1       1.515   3.927  19.416  0.00  0.00    +0.000 C 
ENDBRANCH   1  13
BRANCH   5  14
ATOM     14  O   UNL     1       6.706   7.091  16.734  0.00  0.00    +0.000 OA
BRANCH  14  15
ATOM     15  C   UNL     1       7.601   7.391  17.779  0.00  0.00    +0.000 C 
BRANCH  15  16
ATOM     16  C   UNL     1       7.967   8.857  17.910  0.00  0.00    +0.000 C 
ATOM     17  O   UNL     1       7.393   9.680  17.197  0.00  0.00    +0.000 OA
ATOM     18  N   UNL     1       8.948   9.115  18.844  0.00  0.00    +0.000 N 
ATOM     19  H   UNL     1       9.445   8.304  19.203  0.00  0.00    +0.000 HD
BRANCH  18  20
ATOM     20  C   UNL     1       9.438  10.390  19.173  0.00  0.00    +0.000 A 
ATOM     21  C   UNL     1       9.953  11.260  18.211  0.00  0.00    +0.000 A 
ATOM     22  C   UNL     1      10.535  12.467  18.583  0.00  0.00    +0.000 A 
ATOM     23  C   UNL     1      10.599  12.832  19.928  0.00  0.00    +0.000 A 
ATOM     24  C   UNL     1      11.315  14.083  20.334  0.00  0.00    +0.000 C 
ATOM     25  C   UNL     1      10.018  11.995  20.889  0.00  0.00    +0.000 A 
ATOM     26  C   UNL     1       9.428  10.785  20.513  0.00  0.00    +0.000 A 
ENDBRANCH  18  20
ENDBRANCH  15  16
ENDBRANCH  14  15
ENDBRANCH   5  14
TORSDOF 5
ENDMDL
MODEL 4
REMARK VINA RESULT:      -7.7      3.351      6.441
REMARK  Name = 
REMARK  7 active torsions:
REMARK  status: ('A' for Active; 'I' for Inactive)
REMARK    1  A    between atoms: C_1  and  C_2
REMARK    2  A    between atoms: C_2  and  N_3
REMARK    3  A    between atoms: C_7  and  O_8
REMARK    4  A    between atoms: O_8  and  C_9
REMARK    5  A    between atoms: C_9  and  C_10
REMARK    6  A    between atoms: N_12  and  C_13
REMARK    7  A    between atoms: C_16  and  C_17
REMARK                            x       y       z     vdW  Elec       q    Type
REMARK                         _______ _______ _______ _____ _____    ______ ____
ROOT
ATOM      1  N   UNL     1       3.032   3.549  18.837  0.00  0.00    +0.000 N 
ATOM      2  C   UNL     1       4.186   3.512  19.703  0.00  0.00    +0.000 C 
ATOM      3  C   UNL     1       5.185   4.584  19.307  0.00  0.00    +0.000 C 
ATOM      4  C   UNL     1       5.589   4.447  17.857  0.00  0.00    +0.000 A 
ATOM      5  C   UNL     1       6.823   4.838  17.296  0.00  0.00    +0.000 A 
ATOM      6  C   UNL     1       7.031   4.692  15.912  0.00  0.00    +0.000 A 
ATOM      7  C   UNL     1       6.042   4.199  15.066  0.00  0.00    +0.000 A 
ATOM      8  C   UNL     1       4.812   3.844  15.596  0.00  0.00    +0.000 A 
ATOM      9  C   UNL     1       4.581   3.966  16.973  0.00  0.00    +0.000 A 
ATOM     10  C   UNL     1       3.197   3.670  17.465  0.00  0.00    +0.000 C 
ATOM     11  O   UNL     1       2.264   3.607  16.671  0.00  0.00    +0.000 OA
ENDROOT
BRANCH   1  13
ATOM     12  C   UNL     1       1.702   4.715  20.527  0.00  0.00    +0.000 C 
ATOM     13  C   UNL     1       1.708   3.659  19.431  0.00  0.00    +0.000 C 
ENDBRANCH   1  13
BRANCH   5  14
ATOM     14  O   UNL     1       7.930   5.398  17.882  0.00  0.00    +0.000 OA
BRANCH  14  15
ATOM     15  C   UNL     1       7.774   6.519  18.720  0.00  0.00    +0.000 C 
BRANCH  15  16
ATOM     16  C   UNL     1       8.101   7.853  18.076  0.00  0.00    +0.000 C 
ATOM     17  O   UNL     1       7.845   8.017  16.883  0.00  0.00    +0.000 OA
ATOM     18  N   UNL     1       8.682   8.767  18.929  0.00  0.00    +0.000 N 
ATOM     19  H   UNL     1       8.995   8.403  19.825  0.00  0.00    +0.000 HD
BRANCH  18  20
ATOM     20  C   UNL     1       9.048  10.079  18.584  0.00  0.00    +0.000 A 
ATOM     21  C   UNL     1      10.279  10.627  18.949  0.00  0.00    +0.000 A 
ATOM     22  C   UNL     1      10.565  11.964  18.692  0.00  0.00    +0.000 A 
ATOM     23  C   UNL     1       9.627  12.774  18.051  0.00  0.00    +0.000 A 
ATOM     24  C   UNL     1       9.896  14.235  17.866  0.00  0.00    +0.000 C 
ATOM     25  C   UNL     1       8.421  12.208  17.619  0.00  0.00    +0.000 A 
ATOM     26  C   UNL     1       8.137  10.862  17.872  0.00  0.00    +0.000 A 
ENDBRANCH  18  20
ENDBRANCH  15  16
ENDBRANCH  14  15
ENDBRANCH   5  14
TORSDOF 5
ENDMDL
MODEL 5
REMARK VINA RESULT:      -7.7      3.761      6.914
REMARK  Name = 
REMARK  7 active torsions:
REMARK  status: ('A' for Active; 'I' for Inactive)
REMARK    1  A    between atoms: C_1  and  C_2
REMARK    2  A    between atoms: C_2  and  N_3
REMARK    3  A    between atoms: C_7  and  O_8
REMARK    4  A    between atoms: O_8  and  C_9
REMARK    5  A    between atoms: C_9  and  C_10
REMARK    6  A    between atoms: N_12  and  C_13
REMARK    7  A    between atoms: C_16  and  C_17
REMARK                            x       y       z     vdW  Elec       q    Type
REMARK                         _______ _______ _______ _____ _____    ______ ____
ROOT
ATOM      1  N   UNL     1       3.069   3.834  18.823  0.00  0.00    +0.000 N 
ATOM      2  C   UNL     1       4.209   4.183  19.637  0.00  0.00    +0.000 C 
ATOM      3  C   UNL     1       5.015   5.289  18.980  0.00  0.00    +0.000 C 
ATOM      4  C   UNL     1       5.442   4.899  17.583  0.00  0.00    +0.000 A 
ATOM      5  C   UNL     1       6.595   5.353  16.909  0.00  0.00    +0.000 A 
ATOM      6  C   UNL     1       6.830   4.938  15.585  0.00  0.00    +0.000 A 
ATOM      7  C   UNL     1       5.942   4.113  14.903  0.00  0.00    +0.000 A 
ATOM      8  C   UNL     1       4.787   3.687  15.539  0.00  0.00    +0.000 A 
ATOM      9  C   UNL     1       4.534   4.073  16.862  0.00  0.00    +0.000 A 
ATOM     10  C   UNL     1       3.217   3.671  17.454  0.00  0.00    +0.000 C 
ATOM     11  O   UNL     1       2.311   3.280  16.724  0.00  0.00    +0.000 OA
ENDROOT
BRANCH   1  13
ATOM     12  C   UNL     1       1.516   2.600  20.255  0.00  0.00    +0.000 C 
ATOM     13  C   UNL     1       1.742   3.854  19.423  0.00  0.00    +0.000 C 
ENDBRANCH   1  13
BRANCH   5  14
ATOM     14  O   UNL     1       7.590   6.204  17.320  0.00  0.00    +0.000 OA
BRANCH  14  15
ATOM     15  C   UNL     1       7.353   7.592  17.319  0.00  0.00    +0.000 C 
BRANCH  15  16
ATOM     16  C   UNL     1       8.285   8.403  18.200  0.00  0.00    +0.000 C 
ATOM     17  O   UNL     1       8.867   7.841  19.127  0.00  0.00    +0.000 OA
ATOM     18  N   UNL     1       8.372   9.736  17.858  0.00  0.00    +0.000 N 
ATOM     19  H   UNL     1       7.682  10.070  17.190  0.00  0.00    +0.000 HD
BRANCH  18  20
ATOM     20  C   UNL     1       9.187  10.685  18.496  0.00  0.00    +0.000 A 
ATOM     21  C   UNL     1       9.270  10.779  19.887  0.00  0.00    +0.000 A 
ATOM     22  C   UNL     1       9.996  11.802  20.488  0.00  0.00    +0.000 A 
ATOM     23  C   UNL     1      10.665  12.743  19.706  0.00  0.00    +0.000 A 
ATOM     24  C   UNL     1      11.362  13.900  20.353  0.00  0.00    +0.000 C 
ATOM     25  C   UNL     1      10.645  12.609  18.312  0.00  0.00    +0.000 A 
ATOM     26  C   UNL     1       9.920  11.576  17.709  0.00  0.00    +0.000 A 
ENDBRANCH  18  20
ENDBRANCH  15  16
ENDBRANCH  14  15
ENDBRANCH   5  14
TORSDOF 5
ENDMDL
MODEL 6
REMARK VINA RESULT:      -7.6      4.154      8.619
REMARK  Name = 
REMARK  7 active torsions:
REMARK  status: ('A' for Active; 'I' for Inactive)
REMARK    1  A    between atoms: C_1  and  C_2
REMARK    2  A    between atoms: C_2  and  N_3
REMARK    3  A    between atoms: C_7  and  O_8
REMARK    4  A    between atoms: O_8  and  C_9
REMARK    5  A    between atoms: C_9  and  C_10
REMARK    6  A    between atoms: N_12  and  C_13
REMARK    7  A    between atoms: C_16  and  C_17
REMARK                            x       y       z     vdW  Elec       q    Type
REMARK                         _______ _______ _______ _____ _____    ______ ____
ROOT
ATOM      1  N   UNL     1      -2.636  11.582  17.879  0.00  0.00    +0.000 N 
ATOM      2  C   UNL     1      -1.201  11.437  17.860  0.00  0.00    +0.000 C 
ATOM      3  C   UNL     1      -0.719  10.736  19.117  0.00  0.00    +0.000 C 
ATOM      4  C   UNL     1      -1.176  11.464  20.360  0.00  0.00    +0.000 A 
ATOM      5  C   UNL     1      -0.515  11.479  21.606  0.00  0.00    +0.000 A 
ATOM      6  C   UNL     1      -1.097  12.164  22.689  0.00  0.00    +0.000 A 
ATOM      7  C   UNL     1      -2.325  12.808  22.580  0.00  0.00    +0.000 A 
ATOM      8  C   UNL     1      -3.004  12.772  21.372  0.00  0.00    +0.000 A 
ATOM      9  C   UNL     1      -2.443  12.109  20.273  0.00  0.00    +0.000 A 
ATOM     10  C   UNL     1      -3.276  12.013  19.031  0.00  0.00    +0.000 C 
ATOM     11  O   UNL     1      -4.479  12.250  19.080  0.00  0.00    +0.000 OA
ENDROOT
BRANCH   1  13
ATOM     12  C   UNL     1      -2.690   9.919  16.085  0.00  0.00    +0.000 C 
ATOM     13  C   UNL     1      -3.410  11.084  16.750  0.00  0.00    +0.000 C 
ENDBRANCH   1  13
BRANCH   5  14
ATOM     14  O   UNL     1       0.659  10.888  21.999  0.00  0.00    +0.000 OA
BRANCH  14  15
ATOM     15  C   UNL     1       0.623   9.621  22.612  0.00  0.00    +0.000 C 
BRANCH  15  16
ATOM     16  C   UNL     1       0.551   8.446  21.656  0.00  0.00    +0.000 C 
ATOM     17  O   UNL     1      -0.552   7.996  21.348  0.00  0.00    +0.000 OA
ATOM     18  N   UNL     1       1.779   7.988  21.228  0.00  0.00    +0.000 N 
ATOM     19  H   UNL     1       2.587   8.349  21.727  0.00  0.00    +0.000 HD
BRANCH  18  20
ATOM     20  C   UNL     1       1.979   6.935  20.320  0.00  0.00    +0.000 A 
ATOM     21  C   UNL     1       2.432   7.154  19.017  0.00  0.00    +0.000 A 
ATOM     22  C   UNL     1       2.511   6.104  18.107  0.00  0.00    +0.000 A 
ATOM     23  C   UNL     1       2.150   4.813  18.490  0.00  0.00    +0.000 A 
ATOM     24  C   UNL     1       2.140   3.705  17.483  0.00  0.00    +0.000 C 
ATOM     25  C   UNL     1       1.766   4.577  19.816  0.00  0.00    +0.000 A 
ATOM     26  C   UNL     1       1.693   5.632  20.732  0.00  0.00    +0.000 A 
ENDBRANCH  18  20
ENDBRANCH  15  16
ENDBRANCH  14  15
ENDBRANCH   5  14
TORSDOF 5
ENDMDL
MODEL 7
REMARK VINA RESULT:      -7.6      3.208      5.346
REMARK  Name = 
REMARK  7 active torsions:
REMARK  status: ('A' for Active; 'I' for Inactive)
REMARK    1  A    between atoms: C_1  and  C_2
REMARK    2  A    between atoms: C_2  and  N_3
REMARK    3  A    between atoms: C_7  and  O_8
REMARK    4  A    between atoms: O_8  and  C_9
REMARK    5  A    between atoms: C_9  and  C_10
REMARK    6  A    between atoms: N_12  and  C_13
REMARK    7  A    between atoms: C_16  and  C_17
REMARK                            x       y       z     vdW  Elec       q    Type
REMARK                         _______ _______ _______ _____ _____    ______ ____
ROOT
ATOM      1  N   UNL     1       3.149   3.909  20.353  0.00  0.00    +0.000 N 
ATOM      2  C   UNL     1       2.299   5.057  20.559  0.00  0.00    +0.000 C 
ATOM      3  C   UNL     1       2.017   5.755  19.240  0.00  0.00    +0.000 C 
ATOM      4  C   UNL     1       3.299   6.146  18.542  0.00  0.00    +0.000 A 
ATOM      5  C   UNL     1       3.468   7.233  17.660  0.00  0.00    +0.000 A 
ATOM      6  C   UNL     1       4.717   7.437  17.045  0.00  0.00    +0.000 A 
ATOM      7  C   UNL     1       5.791   6.579  17.256  0.00  0.00    +0.000 A 
ATOM      8  C   UNL     1       5.631   5.485  18.093  0.00  0.00    +0.000 A 
ATOM      9  C   UNL     1       4.402   5.265  18.729  0.00  0.00    +0.000 A 
ATOM     10  C   UNL     1       4.261   4.007  19.530  0.00  0.00    +0.000 C 
ATOM     11  O   UNL     1       5.075   3.098  19.394  0.00  0.00    +0.000 OA
ENDROOT
BRANCH   1  13
ATOM     12  C   UNL     1       1.500   2.770  21.756  0.00  0.00    +0.000 C 
ATOM     13  C   UNL     1       2.715   2.612  20.853  0.00  0.00    +0.000 C 
ENDBRANCH   1  13
BRANCH   5  14
ATOM     14  O   UNL     1       2.574   8.184  17.237  0.00  0.00    +0.000 OA
BRANCH  14  15
ATOM     15  C   UNL     1       2.408   9.360  17.994  0.00  0.00    +0.000 C 
BRANCH  15  16
ATOM     16  C   UNL     1       1.006   9.592  18.522  0.00  0.00    +0.000 C 
ATOM     17  O   UNL     1       0.752   9.295  19.689  0.00  0.00    +0.000 OA
ATOM     18  N   UNL     1       0.132  10.121  17.596  0.00  0.00    +0.000 N 
ATOM     19  H   UNL     1       0.454  10.126  16.632  0.00  0.00    +0.000 HD
BRANCH  18  20
ATOM     20  C   UNL     1      -1.210  10.455  17.845  0.00  0.00    +0.000 A 
ATOM     21  C   UNL     1      -2.260   9.928  17.091  0.00  0.00    +0.000 A 
ATOM     22  C   UNL     1      -3.566  10.367  17.288  0.00  0.00    +0.000 A 
ATOM     23  C   UNL     1      -3.845  11.331  18.256  0.00  0.00    +0.000 A 
ATOM     24  C   UNL     1      -5.234  11.874  18.398  0.00  0.00    +0.000 C 
ATOM     25  C   UNL     1      -2.805  11.808  19.064  0.00  0.00    +0.000 A 
ATOM     26  C   UNL     1      -1.494  11.362  18.869  0.00  0.00    +0.000 A 
ENDBRANCH  18  20
ENDBRANCH  15  16
ENDBRANCH  14  15
ENDBRANCH   5  14
TORSDOF 5
ENDMDL
MODEL 8
REMARK VINA RESULT:      -7.6      3.649      6.647
REMARK  Name = 
REMARK  7 active torsions:
REMARK  status: ('A' for Active; 'I' for Inactive)
REMARK    1  A    between atoms: C_1  and  C_2
REMARK    2  A    between atoms: C_2  and  N_3
REMARK    3  A    between atoms: C_7  and  O_8
REMARK    4  A    between atoms: O_8  and  C_9
REMARK    5  A    between atoms: C_9  and  C_10
REMARK    6  A    between atoms: N_12  and  C_13
REMARK    7  A    between atoms: C_16  and  C_17
REMARK                            x       y       z     vdW  Elec       q    Type
REMARK                         _______ _______ _______ _____ _____    ______ ____
ROOT
ATOM      1  N   UNL     1       3.585   3.713  18.903  0.00  0.00    +0.000 N 
ATOM      2  C   UNL     1       4.818   4.027  19.585  0.00  0.00    +0.000 C 
ATOM      3  C   UNL     1       5.522   5.188  18.906  0.00  0.00    +0.000 C 
ATOM      4  C   UNL     1       5.768   4.899  17.443  0.00  0.00    +0.000 A 
ATOM      5  C   UNL     1       6.820   5.416  16.658  0.00  0.00    +0.000 A 
ATOM      6  C   UNL     1       6.886   5.093  15.290  0.00  0.00    +0.000 A 
ATOM      7  C   UNL     1       5.924   4.299  14.674  0.00  0.00    +0.000 A 
ATOM      8  C   UNL     1       4.865   3.812  15.423  0.00  0.00    +0.000 A 
ATOM      9  C   UNL     1       4.782   4.106  16.791  0.00  0.00    +0.000 A 
ATOM     10  C   UNL     1       3.556   3.643  17.518  0.00  0.00    +0.000 C 
ATOM     11  O   UNL     1       2.567   3.284  16.887  0.00  0.00    +0.000 OA
ENDROOT
BRANCH   1  13
ATOM     12  C   UNL     1       1.949   5.069  20.115  0.00  0.00    +0.000 C 
ATOM     13  C   UNL     1       2.347   3.670  19.668  0.00  0.00    +0.000 C 
ENDBRANCH   1  13
BRANCH   5  14
ATOM     14  O   UNL     1       7.852   6.256  16.993  0.00  0.00    +0.000 OA
BRANCH  14  15
ATOM     15  C   UNL     1       7.819   6.929  18.229  0.00  0.00    +0.000 C 
BRANCH  15  16
ATOM     16  C   UNL     1       8.086   8.421  18.156  0.00  0.00    +0.000 C 
ATOM     17  O   UNL     1       7.515   9.086  17.292  0.00  0.00    +0.000 OA
ATOM     18  N   UNL     1       8.982   8.883  19.096  0.00  0.00    +0.000 N 
ATOM     19  H   UNL     1       9.501   8.172  19.604  0.00  0.00    +0.000 HD
BRANCH  18  20
ATOM     20  C   UNL     1       9.371  10.224  19.254  0.00  0.00    +0.000 A 
ATOM     21  C   UNL     1       9.298  10.878  20.485  0.00  0.00    +0.000 A 
ATOM     22  C   UNL     1       9.581  12.237  20.586  0.00  0.00    +0.000 A 
ATOM     23  C   UNL     1       9.956  12.962  19.455  0.00  0.00    +0.000 A 
ATOM     24  C   UNL     1      10.163  14.443  19.546  0.00  0.00    +0.000 C 
ATOM     25  C   UNL     1      10.102  12.293  18.234  0.00  0.00    +0.000 A 
ATOM     26  C   UNL     1       9.823  10.927  18.135  0.00  0.00    +0.000 A 
ENDBRANCH  18  20
ENDBRANCH  15  16
ENDBRANCH  14  15
ENDBRANCH   5  14
TORSDOF 5
ENDMDL
MODEL 9
REMARK VINA RESULT:      -7.4      1.996      3.323
REMARK  Name = 
REMARK  7 active torsions:
REMARK  status: ('A' for Active; 'I' for Inactive)
REMARK    1  A    between atoms: C_1  and  C_2
REMARK    2  A    between atoms: C_2  and  N_3
REMARK    3  A    between atoms: C_7  and  O_8
REMARK    4  A    between atoms: O_8  and  C_9
REMARK    5  A    between atoms: C_9  and  C_10
REMARK    6  A    between atoms: N_12  and  C_13
REMARK    7  A    between atoms: C_16  and  C_17
REMARK                            x       y       z     vdW  Elec       q    Type
REMARK                         _______ _______ _______ _____ _____    ______ ____
ROOT
ATOM      1  N   UNL     1       6.532   4.189  14.468  0.00  0.00    +0.000 N 
ATOM      2  C   UNL     1       5.596   3.188  14.919  0.00  0.00    +0.000 C 
ATOM      3  C   UNL     1       4.653   3.769  15.958  0.00  0.00    +0.000 C 
ATOM      4  C   UNL     1       5.417   4.363  17.120  0.00  0.00    +0.000 A 
ATOM      5  C   UNL     1       4.959   4.468  18.449  0.00  0.00    +0.000 A 
ATOM      6  C   UNL     1       5.771   5.096  19.412  0.00  0.00    +0.000 A 
ATOM      7  C   UNL     1       7.006   5.647  19.089  0.00  0.00    +0.000 A 
ATOM      8  C   UNL     1       7.455   5.583  17.779  0.00  0.00    +0.000 A 
ATOM      9  C   UNL     1       6.674   4.952  16.802  0.00  0.00    +0.000 A 
ATOM     10  C   UNL     1       7.164   5.014  15.387  0.00  0.00    +0.000 C 
ATOM     11  O   UNL     1       8.041   5.815  15.076  0.00  0.00    +0.000 OA
ENDROOT
BRANCH   1  13
ATOM     12  C   UNL     1       6.141   3.263  12.238  0.00  0.00    +0.000 C 
ATOM     13  C   UNL     1       6.651   4.452  13.041  0.00  0.00    +0.000 C 
ENDBRANCH   1  13
BRANCH   5  14
ATOM     14  O   UNL     1       3.777   4.068  19.019  0.00  0.00    +0.000 OA
BRANCH  14  15
ATOM     15  C   UNL     1       3.421   4.562  20.289  0.00  0.00    +0.000 C 
BRANCH  15  16
ATOM     16  C   UNL     1       2.287   5.568  20.293  0.00  0.00    +0.000 C 
ATOM     17  O   UNL     1       1.151   5.183  20.570  0.00  0.00    +0.000 OA
ATOM     18  N   UNL     1       2.666   6.852  19.963  0.00  0.00    +0.000 N 
ATOM     19  H   UNL     1       3.601   6.955  19.579  0.00  0.00    +0.000 HD
BRANCH  18  20
ATOM     20  C   UNL     1       1.810   7.966  19.927  0.00  0.00    +0.000 A 
ATOM     21  C   UNL     1       1.075   8.375  21.041  0.00  0.00    +0.000 A 
ATOM     22  C   UNL     1       0.151   9.410  20.941  0.00  0.00    +0.000 A 
ATOM     23  C   UNL     1      -0.043  10.065  19.725  0.00  0.00    +0.000 A 
ATOM     24  C   UNL     1      -1.107  11.111  19.595  0.00  0.00    +0.000 C 
ATOM     25  C   UNL     1       0.746   9.707  18.625  0.00  0.00    +0.000 A 
ATOM     26  C   UNL     1       1.679   8.670  18.728  0.00  0.00    +0.000 A 
ENDBRANCH  18  20
ENDBRANCH  15  16
ENDBRANCH  14  15
ENDBRANCH   5  14
TORSDOF 5
ENDMDL
