MODEL 1
REMARK VINA RESULT:      -7.2      0.000      0.000
REMARK  Name = 
REMARK  6 active torsions:
REMARK  status: ('A' for Active; 'I' for Inactive)
REMARK    1  A    between atoms: C_1  and  O_2
REMARK    2  A    between atoms: O_2  and  C_3
REMARK    3  A    between atoms: C_3  and  C_5
REMARK    4  A    between atoms: C_5  and  C_6
REMARK    5  A    between atoms: C_6  and  C_7
REMARK    6  A    between atoms: C_9  and  C_10
REMARK                            x       y       z     vdW  Elec       q    Type
REMARK                         _______ _______ _______ _____ _____    ______ ____
ROOT
ATOM      1  C   UNL     1      -2.281  10.987  17.197  0.00  0.00    +0.000 C 
ATOM      2  N   UNL     1      -1.256  10.049  17.652  0.00  0.00    +0.000 NA
ATOM      3  C   UNL     1      -0.247  10.441  18.348  0.00  0.00    +0.000 C 
ATOM      4  C   UNL     1       0.043  11.870  18.720  0.00  0.00    +0.000 A 
ATOM      5  C   UNL     1       1.384  12.302  18.655  0.00  0.00    +0.000 A 
ATOM      6  C   UNL     1       1.753  13.542  19.173  0.00  0.00    +0.000 A 
ATOM      7 CL   UNL     1       3.407  14.015  19.159  0.00  0.00    +0.000 Cl
ATOM      8  C   UNL     1       0.799  14.386  19.726  0.00  0.00    +0.000 A 
ATOM      9  C   UNL     1      -0.540  13.990  19.765  0.00  0.00    +0.000 A 
ATOM     10  C   UNL     1      -0.928  12.736  19.253  0.00  0.00    +0.000 A 
ATOM     11  N   UNL     1      -2.300  12.394  19.280  0.00  0.00    +0.000 N 
ATOM     12  C   UNL     1      -3.254  12.875  20.149  0.00  0.00    +0.000 A 
ATOM     13  C   UNL     1      -4.443  12.303  19.767  0.00  0.00    +0.000 A 
ATOM     14  N   UNL     1      -4.258  11.501  18.683  0.00  0.00    +0.000 NA
ATOM     15  C   UNL     1      -2.972  11.578  18.388  0.00  0.00    +0.000 A 
ENDROOT
BRANCH   3  16
ATOM     16  C   UNL     1       0.706   9.370  18.818  0.00  0.00    +0.000 A 
ATOM     17  C   UNL     1       1.549   8.748  17.882  0.00  0.00    +0.000 A 
ATOM     18  C   UNL     1       2.449   7.759  18.291  0.00  0.00    +0.000 A 
ATOM     19  C   UNL     1       2.524   7.387  19.633  0.00  0.00    +0.000 A 
ATOM     20  C   UNL     1       1.681   7.988  20.566  0.00  0.00    +0.000 A 
ATOM     21  C   UNL     1       0.766   8.954  20.152  0.00  0.00    +0.000 A 
ATOM     22  F   UNL     1      -0.060   9.462  21.077  0.00  0.00    +0.000 F 
ENDBRANCH   3  16
BRANCH   1  23
ATOM     23  C   UNL     1      -3.244  10.191  16.293  0.00  0.00    +0.000 C 
BRANCH  23  24
ATOM     24  C   UNL     1      -3.616  10.904  14.989  0.00  0.00    +0.000 C 
BRANCH  24  25
ATOM     25  C   UNL     1      -3.398  10.017  13.788  0.00  0.00    +0.000 C 
ATOM     26  O   UNL     1      -2.315   9.641  13.362  0.00  0.00    +0.000 OA
BRANCH  25  28
ATOM     27  C   UNL     1      -4.617   9.777  11.803  0.00  0.00    +0.000 C 
ATOM     28  O   UNL     1      -4.606   9.704  13.229  0.00  0.00    +0.000 OA
ENDBRANCH  25  28
ENDBRANCH  24  25
ENDBRANCH  23  24
ENDBRANCH   1  23
TORSDOF 5
ENDMDL
MODEL 2
REMARK VINA RESULT:      -7.0      0.938      1.069
REMARK  Name = 
REMARK  6 active torsions:
REMARK  status: ('A' for Active; 'I' for Inactive)
REMARK    1  A    between atoms: C_1  and  O_2
REMARK    2  A    between atoms: O_2  and  C_3
REMARK    3  A    between atoms: C_3  and  C_5
REMARK    4  A    between atoms: C_5  and  C_6
REMARK    5  A    between atoms: C_6  and  C_7
REMARK    6  A    between atoms: C_9  and  C_10
REMARK                            x       y       z     vdW  Elec       q    Type
REMARK                         _______ _______ _______ _____ _____    ______ ____
ROOT
ATOM      1  C   UNL     1      -2.860  11.545  17.287  0.00  0.00    +0.000 C 
ATOM      2  N   UNL     1      -1.775  10.641  17.667  0.00  0.00    +0.000 NA
ATOM      3  C   UNL     1      -0.909  10.968  18.560  0.00  0.00    +0.000 C 
ATOM      4  C   UNL     1      -0.853  12.298  19.264  0.00  0.00    +0.000 A 
ATOM      5  C   UNL     1       0.418  12.871  19.474  0.00  0.00    +0.000 A 
ATOM      6  C   UNL     1       0.562  13.993  20.289  0.00  0.00    +0.000 A 
ATOM      7 CL   UNL     1       2.130  14.628  20.600  0.00  0.00    +0.000 Cl
ATOM      8  C   UNL     1      -0.550  14.584  20.875  0.00  0.00    +0.000 A 
ATOM      9  C   UNL     1      -1.821  14.051  20.647  0.00  0.00    +0.000 A 
ATOM     10  C   UNL     1      -1.982  12.913  19.832  0.00  0.00    +0.000 A 
ATOM     11  N   UNL     1      -3.292  12.431  19.600  0.00  0.00    +0.000 N 
ATOM     12  C   UNL     1      -4.389  12.600  20.414  0.00  0.00    +0.000 A 
ATOM     13  C   UNL     1      -5.443  12.009  19.762  0.00  0.00    +0.000 A 
ATOM     14  N   UNL     1      -5.038  11.497  18.567  0.00  0.00    +0.000 NA
ATOM     15  C   UNL     1      -3.749  11.774  18.472  0.00  0.00    +0.000 A 
ENDROOT
BRANCH   3  16
ATOM     16  C   UNL     1       0.121   9.925  18.917  0.00  0.00    +0.000 A 
ATOM     17  C   UNL     1       0.981   9.444  17.916  0.00  0.00    +0.000 A 
ATOM     18  C   UNL     1       1.951   8.484  18.220  0.00  0.00    +0.000 A 
ATOM     19  C   UNL     1       2.078   8.000  19.522  0.00  0.00    +0.000 A 
ATOM     20  C   UNL     1       1.220   8.460  20.518  0.00  0.00    +0.000 A 
ATOM     21  C   UNL     1       0.236   9.397  20.207  0.00  0.00    +0.000 A 
ATOM     22  F   UNL     1      -0.600   9.766  21.188  0.00  0.00    +0.000 F 
ENDBRANCH   3  16
BRANCH   1  23
ATOM     23  C   UNL     1      -3.605  10.879  16.114  0.00  0.00    +0.000 C 
BRANCH  23  24
ATOM     24  C   UNL     1      -2.817   9.762  15.421  0.00  0.00    +0.000 C 
BRANCH  24  25
ATOM     25  C   UNL     1      -3.055   9.754  13.930  0.00  0.00    +0.000 C 
ATOM     26  O   UNL     1      -2.199   9.612  13.069  0.00  0.00    +0.000 OA
BRANCH  25  28
ATOM     27  C   UNL     1      -4.752   9.744  12.318  0.00  0.00    +0.000 C 
ATOM     28  O   UNL     1      -4.385   9.948  13.682  0.00  0.00    +0.000 OA
ENDBRANCH  25  28
ENDBRANCH  24  25
ENDBRANCH  23  24
ENDBRANCH   1  23
TORSDOF 5
ENDMDL
MODEL 3
REMARK VINA RESULT:      -6.8      5.980      9.354
REMARK  Name = 
REMARK  6 active torsions:
REMARK  status: ('A' for Active; 'I' for Inactive)
REMARK    1  A    between atoms: C_1  and  O_2
REMARK    2  A    between atoms: O_2  and  C_3
REMARK    3  A    between atoms: C_3  and  C_5
REMARK    4  A    between atoms: C_5  and  C_6
REMARK    5  A    between atoms: C_6  and  C_7
REMARK    6  A    between atoms: C_9  and  C_10
REMARK                            x       y       z     vdW  Elec       q    Type
REMARK                         _______ _______ _______ _____ _____    ______ ____
ROOT
ATOM      1  C   UNL     1       4.845   6.030  16.835  0.00  0.00    +0.000 C 
ATOM      2  N   UNL     1       3.870   6.916  17.471  0.00  0.00    +0.000 NA
ATOM      3  C   UNL     1       3.211   6.552  18.513  0.00  0.00    +0.000 C 
ATOM      4  C   UNL     1       3.296   5.195  19.160  0.00  0.00    +0.000 A 
ATOM      5  C   UNL     1       2.094   4.610  19.611  0.00  0.00    +0.000 A 
ATOM      6  C   UNL     1       2.118   3.457  20.392  0.00  0.00    +0.000 A 
ATOM      7 CL   UNL     1       0.647   2.807  21.002  0.00  0.00    +0.000 Cl
ATOM      8  C   UNL     1       3.325   2.845  20.706  0.00  0.00    +0.000 A 
ATOM      9  C   UNL     1       4.523   3.390  20.237  0.00  0.00    +0.000 A 
ATOM     10  C   UNL     1       4.515   4.559  19.452  0.00  0.00    +0.000 A 
ATOM     11  N   UNL     1       5.750   5.053  18.968  0.00  0.00    +0.000 N 
ATOM     12  C   UNL     1       6.993   4.855  19.525  0.00  0.00    +0.000 A 
ATOM     13  C   UNL     1       7.889   5.474  18.689  0.00  0.00    +0.000 A 
ATOM     14  N   UNL     1       7.244   6.032  17.628  0.00  0.00    +0.000 NA
ATOM     15  C   UNL     1       5.962   5.756  17.796  0.00  0.00    +0.000 A 
ENDROOT
BRANCH   3  16
ATOM     16  C   UNL     1       2.285   7.577  19.120  0.00  0.00    +0.000 A 
ATOM     17  C   UNL     1       1.890   7.433  20.460  0.00  0.00    +0.000 A 
ATOM     18  C   UNL     1       1.040   8.373  21.050  0.00  0.00    +0.000 A 
ATOM     19  C   UNL     1       0.584   9.468  20.317  0.00  0.00    +0.000 A 
ATOM     20  C   UNL     1       0.958   9.611  18.983  0.00  0.00    +0.000 A 
ATOM     21  C   UNL     1       1.783   8.659  18.388  0.00  0.00    +0.000 A 
ATOM     22  F   UNL     1       2.071   8.812  17.087  0.00  0.00    +0.000 F 
ENDBRANCH   3  16
BRANCH   1  23
ATOM     23  C   UNL     1       5.330   6.744  15.558  0.00  0.00    +0.000 C 
BRANCH  23  24
ATOM     24  C   UNL     1       5.402   5.842  14.322  0.00  0.00    +0.000 C 
BRANCH  24  25
ATOM     25  C   UNL     1       6.653   4.997  14.321  0.00  0.00    +0.000 C 
ATOM     26  O   UNL     1       7.790   5.403  14.513  0.00  0.00    +0.000 OA
BRANCH  25  28
ATOM     27  C   UNL     1       5.982   3.459  12.689  0.00  0.00    +0.000 C 
ATOM     28  O   UNL     1       6.323   3.698  14.054  0.00  0.00    +0.000 OA
ENDBRANCH  25  28
ENDBRANCH  24  25
ENDBRANCH  23  24
ENDBRANCH   1  23
TORSDOF 5
ENDMDL
MODEL 4
REMARK VINA RESULT:      -6.8      1.171      1.603
REMARK  Name = 
REMARK  6 active torsions:
REMARK  status: ('A' for Active; 'I' for Inactive)
REMARK    1  A    between atoms: C_1  and  O_2
REMARK    2  A    between atoms: O_2  and  C_3
REMARK    3  A    between atoms: C_3  and  C_5
REMARK    4  A    between atoms: C_5  and  C_6
REMARK    5  A    between atoms: C_6  and  C_7
REMARK    6  A    between atoms: C_9  and  C_10
REMARK                            x       y       z     vdW  Elec       q    Type
REMARK                         _______ _______ _______ _____ _____    ______ ____
ROOT
ATOM      1  C   UNL     1      -2.548  10.983  17.414  0.00  0.00    +0.000 C 
ATOM      2  N   UNL     1      -1.576  10.138  18.107  0.00  0.00    +0.000 NA
ATOM      3  C   UNL     1      -0.828  10.604  19.044  0.00  0.00    +0.000 C 
ATOM      4  C   UNL     1      -0.802  12.039  19.497  0.00  0.00    +0.000 A 
ATOM      5  C   UNL     1       0.456  12.609  19.785  0.00  0.00    +0.000 A 
ATOM      6  C   UNL     1       0.543  13.859  20.396  0.00  0.00    +0.000 A 
ATOM      7 CL   UNL     1       2.083  14.500  20.815  0.00  0.00    +0.000 Cl
ATOM      8  C   UNL     1      -0.608  14.577  20.695  0.00  0.00    +0.000 A 
ATOM      9  C   UNL     1      -1.860  14.044  20.382  0.00  0.00    +0.000 A 
ATOM     10  C   UNL     1      -1.964  12.779  19.772  0.00  0.00    +0.000 A 
ATOM     11  N   UNL     1      -3.253  12.296  19.440  0.00  0.00    +0.000 N 
ATOM     12  C   UNL     1      -4.443  12.641  20.039  0.00  0.00    +0.000 A 
ATOM     13  C   UNL     1      -5.425  11.966  19.356  0.00  0.00    +0.000 A 
ATOM     14  N   UNL     1      -4.883  11.231  18.347  0.00  0.00    +0.000 NA
ATOM     15  C   UNL     1      -3.581  11.452  18.395  0.00  0.00    +0.000 A 
ENDROOT
BRANCH   3  16
ATOM     16  C   UNL     1       0.085   9.619  19.731  0.00  0.00    +0.000 A 
ATOM     17  C   UNL     1      -0.116   9.334  21.092  0.00  0.00    +0.000 A 
ATOM     18  C   UNL     1       0.710   8.419  21.752  0.00  0.00    +0.000 A 
ATOM     19  C   UNL     1       1.737   7.774  21.063  0.00  0.00    +0.000 A 
ATOM     20  C   UNL     1       1.955   8.062  19.718  0.00  0.00    +0.000 A 
ATOM     21  C   UNL     1       1.147   8.994  19.069  0.00  0.00    +0.000 A 
ATOM     22  F   UNL     1       1.431   9.277  17.789  0.00  0.00    +0.000 F 
ENDBRANCH   3  16
BRANCH   1  23
ATOM     23  C   UNL     1      -3.155  10.130  16.284  0.00  0.00    +0.000 C 
BRANCH  23  24
ATOM     24  C   UNL     1      -3.431  10.903  14.990  0.00  0.00    +0.000 C 
BRANCH  24  25
ATOM     25  C   UNL     1      -3.314  10.016  13.775  0.00  0.00    +0.000 C 
ATOM     26  O   UNL     1      -2.270   9.627  13.270  0.00  0.00    +0.000 OA
BRANCH  25  28
ATOM     27  C   UNL     1      -4.662   9.736  11.882  0.00  0.00    +0.000 C 
ATOM     28  O   UNL     1      -4.563   9.722  13.306  0.00  0.00    +0.000 OA
ENDBRANCH  25  28
ENDBRANCH  24  25
ENDBRANCH  23  24
ENDBRANCH   1  23
TORSDOF 5
ENDMDL
MODEL 5
REMARK VINA RESULT:      -6.7      2.192      2.588
REMARK  Name = 
REMARK  6 active torsions:
REMARK  status: ('A' for Active; 'I' for Inactive)
REMARK    1  A    between atoms: C_1  and  O_2
REMARK    2  A    between atoms: O_2  and  C_3
REMARK    3  A    between atoms: C_3  and  C_5
REMARK    4  A    between atoms: C_5  and  C_6
REMARK    5  A    between atoms: C_6  and  C_7
REMARK    6  A    between atoms: C_9  and  C_10
REMARK                            x       y       z     vdW  Elec       q    Type
REMARK                         _______ _______ _______ _____ _____    ______ ____
ROOT
ATOM      1  C   UNL     1      -2.585  11.622  18.250  0.00  0.00    +0.000 C 
ATOM      2  N   UNL     1      -1.565  10.591  18.436  0.00  0.00    +0.000 NA
ATOM      3  C   UNL     1      -0.359  10.890  18.768  0.00  0.00    +0.000 C 
ATOM      4  C   UNL     1       0.168  12.290  18.940  0.00  0.00    +0.000 A 
ATOM      5  C   UNL     1       1.460  12.565  18.445  0.00  0.00    +0.000 A 
ATOM      6  C   UNL     1       2.089  13.772  18.743  0.00  0.00    +0.000 A 
ATOM      7 CL   UNL     1       3.696  14.056  18.200  0.00  0.00    +0.000 Cl
ATOM      8  C   UNL     1       1.438  14.736  19.502  0.00  0.00    +0.000 A 
ATOM      9  C   UNL     1       0.144  14.495  19.969  0.00  0.00    +0.000 A 
ATOM     10  C   UNL     1      -0.502  13.277  19.682  0.00  0.00    +0.000 A 
ATOM     11  N   UNL     1      -1.827  13.092  20.145  0.00  0.00    +0.000 N 
ATOM     12  C   UNL     1      -2.416  13.706  21.227  0.00  0.00    +0.000 A 
ATOM     13  C   UNL     1      -3.714  13.259  21.260  0.00  0.00    +0.000 A 
ATOM     14  N   UNL     1      -3.950  12.406  20.227  0.00  0.00    +0.000 NA
ATOM     15  C   UNL     1      -2.816  12.327  19.553  0.00  0.00    +0.000 A 
ENDROOT
BRANCH   3  16
ATOM     16  C   UNL     1       0.584   9.735  18.998  0.00  0.00    +0.000 A 
ATOM     17  C   UNL     1       1.289   9.201  17.907  0.00  0.00    +0.000 A 
ATOM     18  C   UNL     1       2.177   8.137  18.092  0.00  0.00    +0.000 A 
ATOM     19  C   UNL     1       2.377   7.601  19.364  0.00  0.00    +0.000 A 
ATOM     20  C   UNL     1       1.670   8.114  20.450  0.00  0.00    +0.000 A 
ATOM     21  C   UNL     1       0.766   9.157  20.258  0.00  0.00    +0.000 A 
ATOM     22  F   UNL     1       0.071   9.578  21.325  0.00  0.00    +0.000 F 
ENDBRANCH   3  16
BRANCH   1  23
ATOM     23  C   UNL     1      -3.851  10.911  17.734  0.00  0.00    +0.000 C 
BRANCH  23  24
ATOM     24  C   UNL     1      -4.613  11.687  16.656  0.00  0.00    +0.000 C 
BRANCH  24  25
ATOM     25  C   UNL     1      -5.886  12.291  17.198  0.00  0.00    +0.000 C 
ATOM     26  O   UNL     1      -6.302  13.416  16.961  0.00  0.00    +0.000 OA
BRANCH  25  28
ATOM     27  C   UNL     1      -7.354  11.986  18.996  0.00  0.00    +0.000 C 
ATOM     28  O   UNL     1      -6.503  11.388  18.018  0.00  0.00    +0.000 OA
ENDBRANCH  25  28
ENDBRANCH  24  25
ENDBRANCH  23  24
ENDBRANCH   1  23
TORSDOF 5
ENDMDL
MODEL 6
REMARK VINA RESULT:      -6.7      5.744      9.222
REMARK  Name = 
REMARK  6 active torsions:
REMARK  status: ('A' for Active; 'I' for Inactive)
REMARK    1  A    between atoms: C_1  and  O_2
REMARK    2  A    between atoms: O_2  and  C_3
REMARK    3  A    between atoms: C_3  and  C_5
REMARK    4  A    between atoms: C_5  and  C_6
REMARK    5  A    between atoms: C_6  and  C_7
REMARK    6  A    between atoms: C_9  and  C_10
REMARK                            x       y       z     vdW  Elec       q    Type
REMARK                         _______ _______ _______ _____ _____    ______ ____
ROOT
ATOM      1  C   UNL     1       4.905   6.099  16.631  0.00  0.00    +0.000 C 
ATOM      2  N   UNL     1       3.893   7.025  17.138  0.00  0.00    +0.000 NA
ATOM      3  C   UNL     1       3.149   6.723  18.143  0.00  0.00    +0.000 C 
ATOM      4  C   UNL     1       3.169   5.404  18.868  0.00  0.00    +0.000 A 
ATOM      5  C   UNL     1       1.929   4.853  19.254  0.00  0.00    +0.000 A 
ATOM      6  C   UNL     1       1.879   3.745  20.097  0.00  0.00    +0.000 A 
ATOM      7 CL   UNL     1       0.358   3.139  20.623  0.00  0.00    +0.000 Cl
ATOM      8  C   UNL     1       3.051   3.144  20.538  0.00  0.00    +0.000 A 
ATOM      9  C   UNL     1       4.287   3.653  20.135  0.00  0.00    +0.000 A 
ATOM     10  C   UNL     1       4.354   4.778  19.290  0.00  0.00    +0.000 A 
ATOM     11  N   UNL     1       5.628   5.236  18.879  0.00  0.00    +0.000 N 
ATOM     12  C   UNL     1       6.822   5.061  19.542  0.00  0.00    +0.000 A 
ATOM     13  C   UNL     1       7.788   5.627  18.747  0.00  0.00    +0.000 A 
ATOM     14  N   UNL     1       7.234   6.129  17.609  0.00  0.00    +0.000 NA
ATOM     15  C   UNL     1       5.940   5.871  17.691  0.00  0.00    +0.000 A 
ENDROOT
BRANCH   3  16
ATOM     16  C   UNL     1       2.191   7.787  18.618  0.00  0.00    +0.000 A 
ATOM     17  C   UNL     1       1.595   8.640  17.674  0.00  0.00    +0.000 A 
ATOM     18  C   UNL     1       0.695   9.629  18.085  0.00  0.00    +0.000 A 
ATOM     19  C   UNL     1       0.376   9.773  19.435  0.00  0.00    +0.000 A 
ATOM     20  C   UNL     1       0.973   8.942  20.379  0.00  0.00    +0.000 A 
ATOM     21  C   UNL     1       1.890   7.974  19.971  0.00  0.00    +0.000 A 
ATOM     22  F   UNL     1       2.478   7.236  20.923  0.00  0.00    +0.000 F 
ENDBRANCH   3  16
BRANCH   1  23
ATOM     23  C   UNL     1       5.496   6.738  15.359  0.00  0.00    +0.000 C 
BRANCH  23  24
ATOM     24  C   UNL     1       5.533   5.804  14.145  0.00  0.00    +0.000 C 
BRANCH  24  25
ATOM     25  C   UNL     1       6.757   4.921  14.159  0.00  0.00    +0.000 C 
ATOM     26  O   UNL     1       7.893   5.275  14.442  0.00  0.00    +0.000 OA
BRANCH  25  28
ATOM     27  C   UNL     1       6.350   3.461  12.375  0.00  0.00    +0.000 C 
ATOM     28  O   UNL     1       6.407   3.653  13.789  0.00  0.00    +0.000 OA
ENDBRANCH  25  28
ENDBRANCH  24  25
ENDBRANCH  23  24
ENDBRANCH   1  23
TORSDOF 5
ENDMDL
MODEL 7
REMARK VINA RESULT:      -6.7      1.309      1.709
REMARK  Name = 
REMARK  6 active torsions:
REMARK  status: ('A' for Active; 'I' for Inactive)
REMARK    1  A    between atoms: C_1  and  O_2
REMARK    2  A    between atoms: O_2  and  C_3
REMARK    3  A    between atoms: C_3  and  C_5
REMARK    4  A    between atoms: C_5  and  C_6
REMARK    5  A    between atoms: C_6  and  C_7
REMARK    6  A    between atoms: C_9  and  C_10
REMARK                            x       y       z     vdW  Elec       q    Type
REMARK                         _______ _______ _______ _____ _____    ______ ____
ROOT
ATOM      1  C   UNL     1      -2.721  11.606  18.326  0.00  0.00    +0.000 C 
ATOM      2  N   UNL     1      -1.727  10.592  18.674  0.00  0.00    +0.000 NA
ATOM      3  C   UNL     1      -0.556  10.916  19.098  0.00  0.00    +0.000 C 
ATOM      4  C   UNL     1      -0.043  12.325  19.228  0.00  0.00    +0.000 A 
ATOM      5  C   UNL     1       1.291  12.572  18.840  0.00  0.00    +0.000 A 
ATOM      6  C   UNL     1       1.892  13.798  19.117  0.00  0.00    +0.000 A 
ATOM      7 CL   UNL     1       3.544  14.050  18.710  0.00  0.00    +0.000 Cl
ATOM      8  C   UNL     1       1.175  14.807  19.746  0.00  0.00    +0.000 A 
ATOM      9  C   UNL     1      -0.158  14.593  20.103  0.00  0.00    +0.000 A 
ATOM     10  C   UNL     1      -0.778  13.357  19.837  0.00  0.00    +0.000 A 
ATOM     11  N   UNL     1      -2.141  13.198  20.184  0.00  0.00    +0.000 N 
ATOM     12  C   UNL     1      -2.828  13.880  21.163  0.00  0.00    +0.000 A 
ATOM     13  C   UNL     1      -4.124  13.432  21.103  0.00  0.00    +0.000 A 
ATOM     14  N   UNL     1      -4.265  12.512  20.110  0.00  0.00    +0.000 NA
ATOM     15  C   UNL     1      -3.072  12.394  19.553  0.00  0.00    +0.000 A 
ENDROOT
BRANCH   3  16
ATOM     16  C   UNL     1       0.358   9.782  19.491  0.00  0.00    +0.000 A 
ATOM     17  C   UNL     1       0.326   9.305  20.812  0.00  0.00    +0.000 A 
ATOM     18  C   UNL     1       1.156   8.249  21.202  0.00  0.00    +0.000 A 
ATOM     19  C   UNL     1       2.017   7.654  20.281  0.00  0.00    +0.000 A 
ATOM     20  C   UNL     1       2.067   8.130  18.972  0.00  0.00    +0.000 A 
ATOM     21  C   UNL     1       1.258   9.200  18.593  0.00  0.00    +0.000 A 
ATOM     22  F   UNL     1       1.382   9.656  17.338  0.00  0.00    +0.000 F 
ENDBRANCH   3  16
BRANCH   1  23
ATOM     23  C   UNL     1      -3.934  10.858  17.741  0.00  0.00    +0.000 C 
BRANCH  23  24
ATOM     24  C   UNL     1      -4.176  11.120  16.250  0.00  0.00    +0.000 C 
BRANCH  24  25
ATOM     25  C   UNL     1      -3.321  10.228  15.383  0.00  0.00    +0.000 C 
ATOM     26  O   UNL     1      -2.678   9.261  15.765  0.00  0.00    +0.000 OA
BRANCH  25  28
ATOM     27  C   UNL     1      -4.179   9.884  13.232  0.00  0.00    +0.000 C 
ATOM     28  O   UNL     1      -3.361  10.676  14.093  0.00  0.00    +0.000 OA
ENDBRANCH  25  28
ENDBRANCH  24  25
ENDBRANCH  23  24
ENDBRANCH   1  23
TORSDOF 5
ENDMDL
MODEL 8
REMARK VINA RESULT:      -6.6      2.356      2.881
REMARK  Name = 
REMARK  6 active torsions:
REMARK  status: ('A' for Active; 'I' for Inactive)
REMARK    1  A    between atoms: C_1  and  O_2
REMARK    2  A    between atoms: O_2  and  C_3
REMARK    3  A    between atoms: C_3  and  C_5
REMARK    4  A    between atoms: C_5  and  C_6
REMARK    5  A    between atoms: C_6  and  C_7
REMARK    6  A    between atoms: C_9  and  C_10
REMARK                            x       y       z     vdW  Elec       q    Type
REMARK                         _______ _______ _______ _____ _____    ______ ____
ROOT
ATOM      1  C   UNL     1      -2.653  11.597  18.397  0.00  0.00    +0.000 C 
ATOM      2  N   UNL     1      -1.665  10.568  18.721  0.00  0.00    +0.000 NA
ATOM      3  C   UNL     1      -0.465  10.875  19.068  0.00  0.00    +0.000 C 
ATOM      4  C   UNL     1       0.089  12.274  19.124  0.00  0.00    +0.000 A 
ATOM      5  C   UNL     1       1.404  12.474  18.654  0.00  0.00    +0.000 A 
ATOM      6  C   UNL     1       2.050  13.692  18.858  0.00  0.00    +0.000 A 
ATOM      7 CL   UNL     1       3.682  13.888  18.351  0.00  0.00    +0.000 Cl
ATOM      8  C   UNL     1       1.394  14.738  19.493  0.00  0.00    +0.000 A 
ATOM      9  C   UNL     1       0.078  14.569  19.931  0.00  0.00    +0.000 A 
ATOM     10  C   UNL     1      -0.585  13.342  19.740  0.00  0.00    +0.000 A 
ATOM     11  N   UNL     1      -1.930  13.230  20.167  0.00  0.00    +0.000 N 
ATOM     12  C   UNL     1      -2.543  13.959  21.161  0.00  0.00    +0.000 A 
ATOM     13  C   UNL     1      -3.852  13.544  21.188  0.00  0.00    +0.000 A 
ATOM     14  N   UNL     1      -4.070  12.597  20.234  0.00  0.00    +0.000 NA
ATOM     15  C   UNL     1      -2.914  12.431  19.615  0.00  0.00    +0.000 A 
ENDROOT
BRANCH   3  16
ATOM     16  C   UNL     1       0.442   9.730  19.446  0.00  0.00    +0.000 A 
ATOM     17  C   UNL     1       0.452   9.276  20.775  0.00  0.00    +0.000 A 
ATOM     18  C   UNL     1       1.276   8.210  21.151  0.00  0.00    +0.000 A 
ATOM     19  C   UNL     1       2.090   7.584  20.208  0.00  0.00    +0.000 A 
ATOM     20  C   UNL     1       2.099   8.037  18.891  0.00  0.00    +0.000 A 
ATOM     21  C   UNL     1       1.297   9.116  18.524  0.00  0.00    +0.000 A 
ATOM     22  F   UNL     1       1.382   9.550  17.258  0.00  0.00    +0.000 F 
ENDBRANCH   3  16
BRANCH   1  23
ATOM     23  C   UNL     1      -3.915  10.863  17.905  0.00  0.00    +0.000 C 
BRANCH  23  24
ATOM     24  C   UNL     1      -4.634  11.558  16.743  0.00  0.00    +0.000 C 
BRANCH  24  25
ATOM     25  C   UNL     1      -5.893  12.252  17.203  0.00  0.00    +0.000 C 
ATOM     26  O   UNL     1      -6.238  13.385  16.898  0.00  0.00    +0.000 OA
BRANCH  25  28
ATOM     27  C   UNL     1      -7.440  12.109  18.954  0.00  0.00    +0.000 C 
ATOM     28  O   UNL     1      -6.592  11.422  18.034  0.00  0.00    +0.000 OA
ENDBRANCH  25  28
ENDBRANCH  24  25
ENDBRANCH  23  24
ENDBRANCH   1  23
TORSDOF 5
ENDMDL
MODEL 9
REMARK VINA RESULT:      -6.5      4.564      7.009
REMARK  Name = 
REMARK  6 active torsions:
REMARK  status: ('A' for Active; 'I' for Inactive)
REMARK    1  A    between atoms: C_1  and  O_2
REMARK    2  A    between atoms: O_2  and  C_3
REMARK    3  A    between atoms: C_3  and  C_5
REMARK    4  A    between atoms: C_5  and  C_6
REMARK    5  A    between atoms: C_6  and  C_7
REMARK    6  A    between atoms: C_9  and  C_10
REMARK                            x       y       z     vdW  Elec       q    Type
REMARK                         _______ _______ _______ _____ _____    ______ ____
ROOT
ATOM      1  C   UNL     1      -6.262  11.729  20.350  0.00  0.00    +0.000 C 
ATOM      2  N   UNL     1      -5.191  12.451  21.034  0.00  0.00    +0.000 NA
ATOM      3  C   UNL     1      -4.002  12.512  20.546  0.00  0.00    +0.000 C 
ATOM      4  C   UNL     1      -3.548  11.820  19.287  0.00  0.00    +0.000 A 
ATOM      5  C   UNL     1      -2.272  11.220  19.297  0.00  0.00    +0.000 A 
ATOM      6  C   UNL     1      -1.707  10.741  18.117  0.00  0.00    +0.000 A 
ATOM      7 CL   UNL     1      -0.116  10.088  18.135  0.00  0.00    +0.000 Cl
ATOM      8  C   UNL     1      -2.409  10.814  16.921  0.00  0.00    +0.000 A 
ATOM      9  C   UNL     1      -3.689  11.371  16.900  0.00  0.00    +0.000 A 
ATOM     10  C   UNL     1      -4.271  11.867  18.083  0.00  0.00    +0.000 A 
ATOM     11  N   UNL     1      -5.585  12.389  18.020  0.00  0.00    +0.000 N 
ATOM     12  C   UNL     1      -6.207  12.927  16.916  0.00  0.00    +0.000 A 
ATOM     13  C   UNL     1      -7.480  13.251  17.314  0.00  0.00    +0.000 A 
ATOM     14  N   UNL     1      -7.670  12.917  18.620  0.00  0.00    +0.000 NA
ATOM     15  C   UNL     1      -6.532  12.382  19.028  0.00  0.00    +0.000 A 
ENDROOT
BRANCH   3  16
ATOM     16  C   UNL     1      -3.001  13.344  21.307  0.00  0.00    +0.000 A 
ATOM     17  C   UNL     1      -2.697  14.636  20.848  0.00  0.00    +0.000 A 
ATOM     18  C   UNL     1      -1.779  15.434  21.539  0.00  0.00    +0.000 A 
ATOM     19  C   UNL     1      -1.162  14.956  22.695  0.00  0.00    +0.000 A 
ATOM     20  C   UNL     1      -1.446  13.670  23.149  0.00  0.00    +0.000 A 
ATOM     21  C   UNL     1      -2.341  12.867  22.444  0.00  0.00    +0.000 A 
ATOM     22  F   UNL     1      -2.538  11.618  22.891  0.00  0.00    +0.000 F 
ENDBRANCH   3  16
BRANCH   1  23
ATOM     23  C   UNL     1      -7.488  11.761  21.282  0.00  0.00    +0.000 C 
BRANCH  23  24
ATOM     24  C   UNL     1      -7.540  12.978  22.212  0.00  0.00    +0.000 C 
BRANCH  24  25
ATOM     25  C   UNL     1      -7.513  12.571  23.665  0.00  0.00    +0.000 C 
ATOM     26  O   UNL     1      -7.331  11.438  24.088  0.00  0.00    +0.000 OA
BRANCH  25  28
ATOM     27  C   UNL     1      -7.131  14.862  23.959  0.00  0.00    +0.000 C 
ATOM     28  O   UNL     1      -7.741  13.667  24.448  0.00  0.00    +0.000 OA
ENDBRANCH  25  28
ENDBRANCH  24  25
ENDBRANCH  23  24
ENDBRANCH   1  23
TORSDOF 5
ENDMDL
