MODEL 1
REMARK VINA RESULT:      -7.3      0.000      0.000
REMARK  Name = 
REMARK  9 active torsions:
REMARK  status: ('A' for Active; 'I' for Inactive)
REMARK    1  A    between atoms: C_1  and  C_2
REMARK    2  A    between atoms: C_2  and  O_3
REMARK    3  A    between atoms: O_3  and  C_4
REMARK    4  A    between atoms: C_4  and  C_6
REMARK    5  A    between atoms: C_6  and  N_7
REMARK    6  A    between atoms: C_9  and  C_10
REMARK    7  A    between atoms: C_11  and  N_12
REMARK    8  A    between atoms: C_13  and  C_15
REMARK    9  A    between atoms: C_21  and  C_22
REMARK                            x       y       z     vdW  Elec       q    Type
REMARK                         _______ _______ _______ _____ _____    ______ ____
ROOT
ATOM      1  N   UNL     1       5.567   4.537  16.656  0.00  0.00    +0.000 N 
ATOM      2  N   UNL     1       4.604   3.593  16.691  0.00  0.00    +0.000 NA
ATOM      3  C   UNL     1       3.576   4.203  17.291  0.00  0.00    +0.000 A 
ATOM      4  C   UNL     1       2.303   3.479  17.512  0.00  0.00    +0.000 C 
ATOM      5  C   UNL     1       3.859   5.564  17.561  0.00  0.00    +0.000 A 
ATOM      6  C   UNL     1       5.180   5.743  17.195  0.00  0.00    +0.000 A 
ATOM      7  C   UNL     1       6.109   6.889  17.384  0.00  0.00    +0.000 C 
ENDROOT
BRANCH   5   8
ATOM      8  N   UNL     1       3.005   6.482  18.141  0.00  0.00    +0.000 N 
ATOM      9  C   UNL     1       2.714   6.506  19.500  0.00  0.00    +0.000 C 
ATOM     10  O   UNL     1       3.123   5.692  20.320  0.00  0.00    +0.000 OA
ATOM     11  H   UNL     1       2.888   7.368  17.662  0.00  0.00    +0.000 HD
BRANCH   9  12
ATOM     12  C   UNL     1       1.920   7.663  19.869  0.00  0.00    +0.000 A 
ATOM     13  C   UNL     1       1.560   8.788  19.149  0.00  0.00    +0.000 A 
ATOM     14  C   UNL     1       0.800   9.606  20.023  0.00  0.00    +0.000 A 
ATOM     15  C   UNL     1       0.730   8.928  21.218  0.00  0.00    +0.000 A 
ATOM     16 BR   UNL     1      -0.134   9.541  22.753  0.00  0.00    +0.000 Br
ATOM     17  O   UNL     1       1.386   7.740  21.131  0.00  0.00    +0.000 OA
ENDBRANCH   9  12
ENDBRANCH   5   8
BRANCH   1  18
ATOM     18  C   UNL     1       6.831   4.207  16.032  0.00  0.00    +0.000 C 
BRANCH  18  19
ATOM     19  C   UNL     1       6.917   4.737  14.629  0.00  0.00    +0.000 C 
ATOM     20  O   UNL     1       7.719   5.561  14.206  0.00  0.00    +0.000 OA
BRANCH  19  21
ATOM     21  O   UNL     1       5.878   4.231  13.898  0.00  0.00    +0.000 OA
BRANCH  21  23
ATOM     22  C   UNL     1       4.999   3.214  11.922  0.00  0.00    +0.000 C 
ATOM     23  C   UNL     1       6.262   3.545  12.698  0.00  0.00    +0.000 C 
ENDBRANCH  21  23
ENDBRANCH  19  21
ENDBRANCH  18  19
ENDBRANCH   1  18
TORSDOF 6
ENDMDL
MODEL 2
REMARK VINA RESULT:      -7.1      1.097      1.231
REMARK  Name = 
REMARK  9 active torsions:
REMARK  status: ('A' for Active; 'I' for Inactive)
REMARK    1  A    between atoms: C_1  and  C_2
REMARK    2  A    between atoms: C_2  and  O_3
REMARK    3  A    between atoms: O_3  and  C_4
REMARK    4  A    between atoms: C_4  and  C_6
REMARK    5  A    between atoms: C_6  and  N_7
REMARK    6  A    between atoms: C_9  and  C_10
REMARK    7  A    between atoms: C_11  and  N_12
REMARK    8  A    between atoms: C_13  and  C_15
REMARK    9  A    between atoms: C_21  and  C_22
REMARK                            x       y       z     vdW  Elec       q    Type
REMARK                         _______ _______ _______ _____ _____    ______ ____
ROOT
ATOM      1  N   UNL     1       5.691   4.574  16.695  0.00  0.00    +0.000 N 
ATOM      2  N   UNL     1       4.719   3.639  16.679  0.00  0.00    +0.000 NA
ATOM      3  C   UNL     1       3.681   4.241  17.271  0.00  0.00    +0.000 A 
ATOM      4  C   UNL     1       2.398   3.524  17.439  0.00  0.00    +0.000 C 
ATOM      5  C   UNL     1       3.970   5.591  17.586  0.00  0.00    +0.000 A 
ATOM      6  C   UNL     1       5.301   5.768  17.258  0.00  0.00    +0.000 A 
ATOM      7  C   UNL     1       6.235   6.900  17.502  0.00  0.00    +0.000 C 
ENDROOT
BRANCH   5   8
ATOM      8  N   UNL     1       3.109   6.501  18.170  0.00  0.00    +0.000 N 
ATOM      9  C   UNL     1       2.726   6.444  19.505  0.00  0.00    +0.000 C 
ATOM     10  O   UNL     1       3.049   5.562  20.291  0.00  0.00    +0.000 OA
ATOM     11  H   UNL     1       3.057   7.421  17.747  0.00  0.00    +0.000 HD
BRANCH   9  12
ATOM     12  C   UNL     1       1.948   7.604  19.899  0.00  0.00    +0.000 A 
ATOM     13  C   UNL     1       1.314   7.915  21.088  0.00  0.00    +0.000 A 
ATOM     14  C   UNL     1       0.679   9.168  20.897  0.00  0.00    +0.000 A 
ATOM     15  C   UNL     1       0.973   9.554  19.610  0.00  0.00    +0.000 A 
ATOM     16 BR   UNL     1       0.380  11.123  18.796  0.00  0.00    +0.000 Br
ATOM     17  O   UNL     1       1.758   8.625  19.002  0.00  0.00    +0.000 OA
ENDBRANCH   9  12
ENDBRANCH   5   8
BRANCH   1  18
ATOM     18  C   UNL     1       6.968   4.249  16.093  0.00  0.00    +0.000 C 
BRANCH  18  19
ATOM     19  C   UNL     1       6.992   4.570  14.626  0.00  0.00    +0.000 C 
ATOM     20  O   UNL     1       7.504   5.549  14.099  0.00  0.00    +0.000 OA
BRANCH  19  21
ATOM     21  O   UNL     1       6.249   3.637  13.956  0.00  0.00    +0.000 OA
BRANCH  21  23
ATOM     22  C   UNL     1       5.086   3.274  11.899  0.00  0.00    +0.000 C 
ATOM     23  C   UNL     1       6.417   3.642  12.532  0.00  0.00    +0.000 C 
ENDBRANCH  21  23
ENDBRANCH  19  21
ENDBRANCH  18  19
ENDBRANCH   1  18
TORSDOF 6
ENDMDL
MODEL 3
REMARK VINA RESULT:      -6.7      3.973      7.831
REMARK  Name = 
REMARK  9 active torsions:
REMARK  status: ('A' for Active; 'I' for Inactive)
REMARK    1  A    between atoms: C_1  and  C_2
REMARK    2  A    between atoms: C_2  and  O_3
REMARK    3  A    between atoms: O_3  and  C_4
REMARK    4  A    between atoms: C_4  and  C_6
REMARK    5  A    between atoms: C_6  and  N_7
REMARK    6  A    between atoms: C_9  and  C_10
REMARK    7  A    between atoms: C_11  and  N_12
REMARK    8  A    between atoms: C_13  and  C_15
REMARK    9  A    between atoms: C_21  and  C_22
REMARK                            x       y       z     vdW  Elec       q    Type
REMARK                         _______ _______ _______ _____ _____    ______ ____
ROOT
ATOM      1  N   UNL     1       4.452   4.309  19.173  0.00  0.00    +0.000 N 
ATOM      2  N   UNL     1       5.679   4.812  19.416  0.00  0.00    +0.000 NA
ATOM      3  C   UNL     1       6.320   4.680  18.250  0.00  0.00    +0.000 A 
ATOM      4  C   UNL     1       7.722   5.136  18.111  0.00  0.00    +0.000 C 
ATOM      5  C   UNL     1       5.469   4.168  17.240  0.00  0.00    +0.000 A 
ATOM      6  C   UNL     1       4.278   3.878  17.877  0.00  0.00    +0.000 A 
ATOM      7  C   UNL     1       3.057   3.169  17.409  0.00  0.00    +0.000 C 
ENDROOT
BRANCH   5   8
ATOM      8  N   UNL     1       5.805   3.943  15.919  0.00  0.00    +0.000 N 
ATOM      9  C   UNL     1       5.905   4.955  14.971  0.00  0.00    +0.000 C 
ATOM     10  O   UNL     1       5.649   6.136  15.175  0.00  0.00    +0.000 OA
ATOM     11  H   UNL     1       6.351   3.113  15.718  0.00  0.00    +0.000 HD
BRANCH   9  12
ATOM     12  C   UNL     1       6.426   4.470  13.707  0.00  0.00    +0.000 A 
ATOM     13  C   UNL     1       7.295   5.046  12.798  0.00  0.00    +0.000 A 
ATOM     14  C   UNL     1       7.430   4.131  11.724  0.00  0.00    +0.000 A 
ATOM     15  C   UNL     1       6.647   3.046  12.045  0.00  0.00    +0.000 A 
ATOM     16 BR   UNL     1       6.419   1.531  10.982  0.00  0.00    +0.000 Br
ATOM     17  O   UNL     1       6.051   3.230  13.254  0.00  0.00    +0.000 OA
ENDBRANCH   9  12
ENDBRANCH   5   8
BRANCH   1  18
ATOM     18  C   UNL     1       3.476   4.325  20.243  0.00  0.00    +0.000 C 
BRANCH  18  19
ATOM     19  C   UNL     1       2.450   5.404  20.046  0.00  0.00    +0.000 C 
ATOM     20  O   UNL     1       2.666   6.579  19.775  0.00  0.00    +0.000 OA
BRANCH  19  21
ATOM     21  O   UNL     1       1.211   4.895  20.322  0.00  0.00    +0.000 OA
BRANCH  21  23
ATOM     22  C   UNL     1       0.463   2.728  19.645  0.00  0.00    +0.000 C 
ATOM     23  C   UNL     1       1.200   3.516  20.715  0.00  0.00    +0.000 C 
ENDBRANCH  21  23
ENDBRANCH  19  21
ENDBRANCH  18  19
ENDBRANCH   1  18
TORSDOF 6
ENDMDL
MODEL 4
REMARK VINA RESULT:      -6.7      1.348      1.452
REMARK  Name = 
REMARK  9 active torsions:
REMARK  status: ('A' for Active; 'I' for Inactive)
REMARK    1  A    between atoms: C_1  and  C_2
REMARK    2  A    between atoms: C_2  and  O_3
REMARK    3  A    between atoms: O_3  and  C_4
REMARK    4  A    between atoms: C_4  and  C_6
REMARK    5  A    between atoms: C_6  and  N_7
REMARK    6  A    between atoms: C_9  and  C_10
REMARK    7  A    between atoms: C_11  and  N_12
REMARK    8  A    between atoms: C_13  and  C_15
REMARK    9  A    between atoms: C_21  and  C_22
REMARK                            x       y       z     vdW  Elec       q    Type
REMARK                         _______ _______ _______ _____ _____    ______ ____
ROOT
ATOM      1  N   UNL     1       5.201   4.423  17.064  0.00  0.00    +0.000 N 
ATOM      2  N   UNL     1       4.057   3.746  16.838  0.00  0.00    +0.000 NA
ATOM      3  C   UNL     1       3.154   4.372  17.600  0.00  0.00    +0.000 A 
ATOM      4  C   UNL     1       1.746   3.916  17.618  0.00  0.00    +0.000 C 
ATOM      5  C   UNL     1       3.709   5.503  18.247  0.00  0.00    +0.000 A 
ATOM      6  C   UNL     1       5.055   5.482  17.932  0.00  0.00    +0.000 A 
ATOM      7  C   UNL     1       6.198   6.293  18.432  0.00  0.00    +0.000 C 
ENDROOT
BRANCH   5   8
ATOM      8  N   UNL     1       3.043   6.385  19.076  0.00  0.00    +0.000 N 
ATOM      9  C   UNL     1       2.519   7.598  18.642  0.00  0.00    +0.000 C 
ATOM     10  O   UNL     1       2.640   8.049  17.509  0.00  0.00    +0.000 OA
ATOM     11  H   UNL     1       2.596   5.995  19.898  0.00  0.00    +0.000 HD
BRANCH   9  12
ATOM     12  C   UNL     1       1.734   8.253  19.670  0.00  0.00    +0.000 A 
ATOM     13  C   UNL     1       1.462   7.893  20.977  0.00  0.00    +0.000 A 
ATOM     14  C   UNL     1       0.614   8.896  21.510  0.00  0.00    +0.000 A 
ATOM     15  C   UNL     1       0.429   9.815  20.503  0.00  0.00    +0.000 A 
ATOM     16 BR   UNL     1      -0.623  11.350  20.628  0.00  0.00    +0.000 Br
ATOM     17  O   UNL     1       1.119   9.448  19.391  0.00  0.00    +0.000 OA
ENDBRANCH   9  12
ENDBRANCH   5   8
BRANCH   1  18
ATOM     18  C   UNL     1       6.396   4.012  16.357  0.00  0.00    +0.000 C 
BRANCH  18  19
ATOM     19  C   UNL     1       6.413   4.522  14.944  0.00  0.00    +0.000 C 
ATOM     20  O   UNL     1       6.556   5.685  14.588  0.00  0.00    +0.000 OA
BRANCH  19  21
ATOM     21  O   UNL     1       6.134   3.487  14.095  0.00  0.00    +0.000 OA
BRANCH  21  23
ATOM     22  C   UNL     1       5.188   3.192  11.920  0.00  0.00    +0.000 C 
ATOM     23  C   UNL     1       6.352   3.770  12.706  0.00  0.00    +0.000 C 
ENDBRANCH  21  23
ENDBRANCH  19  21
ENDBRANCH  18  19
ENDBRANCH   1  18
TORSDOF 6
ENDMDL
MODEL 5
REMARK VINA RESULT:      -6.6      3.595      7.240
REMARK  Name = 
REMARK  9 active torsions:
REMARK  status: ('A' for Active; 'I' for Inactive)
REMARK    1  A    between atoms: C_1  and  C_2
REMARK    2  A    between atoms: C_2  and  O_3
REMARK    3  A    between atoms: O_3  and  C_4
REMARK    4  A    between atoms: C_4  and  C_6
REMARK    5  A    between atoms: C_6  and  N_7
REMARK    6  A    between atoms: C_9  and  C_10
REMARK    7  A    between atoms: C_11  and  N_12
REMARK    8  A    between atoms: C_13  and  C_15
REMARK    9  A    between atoms: C_21  and  C_22
REMARK                            x       y       z     vdW  Elec       q    Type
REMARK                         _______ _______ _______ _____ _____    ______ ____
ROOT
ATOM      1  N   UNL     1       2.992   5.236  20.130  0.00  0.00    +0.000 N 
ATOM      2  N   UNL     1       2.522   6.431  19.719  0.00  0.00    +0.000 NA
ATOM      3  C   UNL     1       3.032   6.575  18.491  0.00  0.00    +0.000 A 
ATOM      4  C   UNL     1       2.731   7.785  17.693  0.00  0.00    +0.000 C 
ATOM      5  C   UNL     1       3.759   5.428  18.089  0.00  0.00    +0.000 A 
ATOM      6  C   UNL     1       3.770   4.595  19.192  0.00  0.00    +0.000 A 
ATOM      7  C   UNL     1       4.502   3.329  19.465  0.00  0.00    +0.000 C 
ENDROOT
BRANCH   5   8
ATOM      8  N   UNL     1       4.382   5.235  16.871  0.00  0.00    +0.000 N 
ATOM      9  C   UNL     1       5.758   5.331  16.691  0.00  0.00    +0.000 C 
ATOM     10  O   UNL     1       6.559   5.654  17.560  0.00  0.00    +0.000 OA
ATOM     11  H   UNL     1       3.901   4.653  16.195  0.00  0.00    +0.000 HD
BRANCH   9  12
ATOM     12  C   UNL     1       6.163   4.927  15.358  0.00  0.00    +0.000 A 
ATOM     13  C   UNL     1       7.335   5.145  14.657  0.00  0.00    +0.000 A 
ATOM     14  C   UNL     1       7.167   4.546  13.382  0.00  0.00    +0.000 A 
ATOM     15  C   UNL     1       5.909   3.988  13.385  0.00  0.00    +0.000 A 
ATOM     16 BR   UNL     1       5.133   3.080  11.954  0.00  0.00    +0.000 Br
ATOM     17  O   UNL     1       5.300   4.194  14.583  0.00  0.00    +0.000 OA
ENDBRANCH   9  12
ENDBRANCH   5   8
BRANCH   1  18
ATOM     18  C   UNL     1       2.598   4.753  21.437  0.00  0.00    +0.000 C 
BRANCH  18  19
ATOM     19  C   UNL     1       1.799   3.484  21.347  0.00  0.00    +0.000 C 
ATOM     20  O   UNL     1       2.026   2.434  21.933  0.00  0.00    +0.000 OA
BRANCH  19  21
ATOM     21  O   UNL     1       0.815   3.644  20.411  0.00  0.00    +0.000 OA
BRANCH  21  23
ATOM     22  C   UNL     1       1.026   3.003  18.118  0.00  0.00    +0.000 C 
ATOM     23  C   UNL     1       0.649   2.538  19.514  0.00  0.00    +0.000 C 
ENDBRANCH  21  23
ENDBRANCH  19  21
ENDBRANCH  18  19
ENDBRANCH   1  18
TORSDOF 6
ENDMDL
MODEL 6
REMARK VINA RESULT:      -6.6      1.227      1.314
REMARK  Name = 
REMARK  9 active torsions:
REMARK  status: ('A' for Active; 'I' for Inactive)
REMARK    1  A    between atoms: C_1  and  C_2
REMARK    2  A    between atoms: C_2  and  O_3
REMARK    3  A    between atoms: O_3  and  C_4
REMARK    4  A    between atoms: C_4  and  C_6
REMARK    5  A    between atoms: C_6  and  N_7
REMARK    6  A    between atoms: C_9  and  C_10
REMARK    7  A    between atoms: C_11  and  N_12
REMARK    8  A    between atoms: C_13  and  C_15
REMARK    9  A    between atoms: C_21  and  C_22
REMARK                            x       y       z     vdW  Elec       q    Type
REMARK                         _______ _______ _______ _____ _____    ______ ____
ROOT
ATOM      1  N   UNL     1       5.593   4.714  16.920  0.00  0.00    +0.000 N 
ATOM      2  N   UNL     1       4.565   3.842  16.932  0.00  0.00    +0.000 NA
ATOM      3  C   UNL     1       3.586   4.503  17.559  0.00  0.00    +0.000 A 
ATOM      4  C   UNL     1       2.266   3.865  17.766  0.00  0.00    +0.000 C 
ATOM      5  C   UNL     1       3.968   5.831  17.871  0.00  0.00    +0.000 A 
ATOM      6  C   UNL     1       5.296   5.927  17.500  0.00  0.00    +0.000 A 
ATOM      7  C   UNL     1       6.306   6.997  17.720  0.00  0.00    +0.000 C 
ENDROOT
BRANCH   5   8
ATOM      8  N   UNL     1       3.184   6.788  18.486  0.00  0.00    +0.000 N 
ATOM      9  C   UNL     1       2.759   7.952  17.854  0.00  0.00    +0.000 C 
ATOM     10  O   UNL     1       3.077   8.290  16.720  0.00  0.00    +0.000 OA
ATOM     11  H   UNL     1       2.599   6.479  19.254  0.00  0.00    +0.000 HD
BRANCH   9  12
ATOM     12  C   UNL     1       1.821   8.703  18.667  0.00  0.00    +0.000 A 
ATOM     13  C   UNL     1       0.981   9.755  18.352  0.00  0.00    +0.000 A 
ATOM     14  C   UNL     1       0.311  10.116  19.548  0.00  0.00    +0.000 A 
ATOM     15  C   UNL     1       0.770   9.255  20.518  0.00  0.00    +0.000 A 
ATOM     16 BR   UNL     1       0.248   9.276  22.308  0.00  0.00    +0.000 Br
ATOM     17  O   UNL     1       1.670   8.381  19.993  0.00  0.00    +0.000 OA
ENDBRANCH   9  12
ENDBRANCH   5   8
BRANCH   1  18
ATOM     18  C   UNL     1       6.827   4.316  16.276  0.00  0.00    +0.000 C 
BRANCH  18  19
ATOM     19  C   UNL     1       6.793   4.570  14.796  0.00  0.00    +0.000 C 
ATOM     20  O   UNL     1       7.131   5.598  14.222  0.00  0.00    +0.000 OA
BRANCH  19  21
ATOM     21  O   UNL     1       6.217   3.497  14.174  0.00  0.00    +0.000 OA
BRANCH  21  23
ATOM     22  C   UNL     1       6.597   2.842  11.907  0.00  0.00    +0.000 C 
ATOM     23  C   UNL     1       5.787   3.739  12.828  0.00  0.00    +0.000 C 
ENDBRANCH  21  23
ENDBRANCH  19  21
ENDBRANCH  18  19
ENDBRANCH   1  18
TORSDOF 6
ENDMDL
MODEL 7
REMARK VINA RESULT:      -6.6      3.495      8.032
REMARK  Name = 
REMARK  9 active torsions:
REMARK  status: ('A' for Active; 'I' for Inactive)
REMARK    1  A    between atoms: C_1  and  C_2
REMARK    2  A    between atoms: C_2  and  O_3
REMARK    3  A    between atoms: O_3  and  C_4
REMARK    4  A    between atoms: C_4  and  C_6
REMARK    5  A    between atoms: C_6  and  N_7
REMARK    6  A    between atoms: C_9  and  C_10
REMARK    7  A    between atoms: C_11  and  N_12
REMARK    8  A    between atoms: C_13  and  C_15
REMARK    9  A    between atoms: C_21  and  C_22
REMARK                            x       y       z     vdW  Elec       q    Type
REMARK                         _______ _______ _______ _____ _____    ______ ____
ROOT
ATOM      1  N   UNL     1       3.637   5.311  19.269  0.00  0.00    +0.000 N 
ATOM      2  N   UNL     1       4.902   5.602  19.632  0.00  0.00    +0.000 NA
ATOM      3  C   UNL     1       5.632   5.268  18.562  0.00  0.00    +0.000 A 
ATOM      4  C   UNL     1       7.100   5.452  18.572  0.00  0.00    +0.000 C 
ATOM      5  C   UNL     1       4.816   4.842  17.486  0.00  0.00    +0.000 A 
ATOM      6  C   UNL     1       3.528   4.820  17.987  0.00  0.00    +0.000 A 
ATOM      7  C   UNL     1       2.255   4.309  17.412  0.00  0.00    +0.000 C 
ENDROOT
BRANCH   5   8
ATOM      8  N   UNL     1       5.247   4.459  16.230  0.00  0.00    +0.000 N 
ATOM      9  C   UNL     1       5.559   5.363  15.219  0.00  0.00    +0.000 C 
ATOM     10  O   UNL     1       5.430   6.578  15.300  0.00  0.00    +0.000 OA
ATOM     11  H   UNL     1       5.705   3.558  16.155  0.00  0.00    +0.000 HD
BRANCH   9  12
ATOM     12  C   UNL     1       6.136   4.708  14.061  0.00  0.00    +0.000 A 
ATOM     13  C   UNL     1       7.291   4.970  13.346  0.00  0.00    +0.000 A 
ATOM     14  C   UNL     1       7.342   4.026  12.290  0.00  0.00    +0.000 A 
ATOM     15  C   UNL     1       6.225   3.236  12.429  0.00  0.00    +0.000 A 
ATOM     16 BR   UNL     1       5.755   1.828  11.299  0.00  0.00    +0.000 Br
ATOM     17  O   UNL     1       5.498   3.625  13.510  0.00  0.00    +0.000 OA
ENDBRANCH   9  12
ENDBRANCH   5   8
BRANCH   1  18
ATOM     18  C   UNL     1       2.569   5.585  20.209  0.00  0.00    +0.000 C 
BRANCH  18  19
ATOM     19  C   UNL     1       2.064   6.993  20.085  0.00  0.00    +0.000 C 
ATOM     20  O   UNL     1       2.296   7.777  19.173  0.00  0.00    +0.000 OA
BRANCH  19  21
ATOM     21  O   UNL     1       1.373   7.319  21.219  0.00  0.00    +0.000 OA
BRANCH  21  23
ATOM     22  C   UNL     1      -0.357   8.725  22.082  0.00  0.00    +0.000 C 
ATOM     23  C   UNL     1       0.939   8.684  21.291  0.00  0.00    +0.000 C 
ENDBRANCH  21  23
ENDBRANCH  19  21
ENDBRANCH  18  19
ENDBRANCH   1  18
TORSDOF 6
ENDMDL
MODEL 8
REMARK VINA RESULT:      -6.5      3.697      7.686
REMARK  Name = 
REMARK  9 active torsions:
REMARK  status: ('A' for Active; 'I' for Inactive)
REMARK    1  A    between atoms: C_1  and  C_2
REMARK    2  A    between atoms: C_2  and  O_3
REMARK    3  A    between atoms: O_3  and  C_4
REMARK    4  A    between atoms: C_4  and  C_6
REMARK    5  A    between atoms: C_6  and  N_7
REMARK    6  A    between atoms: C_9  and  C_10
REMARK    7  A    between atoms: C_11  and  N_12
REMARK    8  A    between atoms: C_13  and  C_15
REMARK    9  A    between atoms: C_21  and  C_22
REMARK                            x       y       z     vdW  Elec       q    Type
REMARK                         _______ _______ _______ _____ _____    ______ ____
ROOT
ATOM      1  N   UNL     1       4.092   4.679  19.123  0.00  0.00    +0.000 N 
ATOM      2  N   UNL     1       5.350   5.054  19.430  0.00  0.00    +0.000 NA
ATOM      3  C   UNL     1       6.039   4.828  18.305  0.00  0.00    +0.000 A 
ATOM      4  C   UNL     1       7.487   5.128  18.243  0.00  0.00    +0.000 C 
ATOM      5  C   UNL     1       5.196   4.389  17.255  0.00  0.00    +0.000 A 
ATOM      6  C   UNL     1       3.946   4.242  17.825  0.00  0.00    +0.000 A 
ATOM      7  C   UNL     1       2.683   3.658  17.297  0.00  0.00    +0.000 C 
ENDROOT
BRANCH   5   8
ATOM      8  N   UNL     1       5.580   4.101  15.960  0.00  0.00    +0.000 N 
ATOM      9  C   UNL     1       5.775   5.073  14.985  0.00  0.00    +0.000 C 
ATOM     10  O   UNL     1       5.571   6.271  15.138  0.00  0.00    +0.000 OA
ATOM     11  H   UNL     1       6.091   3.238  15.813  0.00  0.00    +0.000 HD
BRANCH   9  12
ATOM     12  C   UNL     1       6.328   4.518  13.764  0.00  0.00    +0.000 A 
ATOM     13  C   UNL     1       7.294   4.999  12.900  0.00  0.00    +0.000 A 
ATOM     14  C   UNL     1       7.415   4.052  11.852  0.00  0.00    +0.000 A 
ATOM     15  C   UNL     1       6.526   3.043  12.144  0.00  0.00    +0.000 A 
ATOM     16 BR   UNL     1       6.237   1.528  11.096  0.00  0.00    +0.000 Br
ATOM     17  O   UNL     1       5.877   3.303  13.310  0.00  0.00    +0.000 OA
ENDBRANCH   9  12
ENDBRANCH   5   8
BRANCH   1  18
ATOM     18  C   UNL     1       3.064   4.823  20.133  0.00  0.00    +0.000 C 
BRANCH  18  19
ATOM     19  C   UNL     1       2.424   6.181  20.089  0.00  0.00    +0.000 C 
ATOM     20  O   UNL     1       1.492   6.573  20.779  0.00  0.00    +0.000 OA
BRANCH  19  21
ATOM     21  O   UNL     1       2.979   6.901  19.067  0.00  0.00    +0.000 OA
BRANCH  21  23
ATOM     22  C   UNL     1       2.265   8.867  17.909  0.00  0.00    +0.000 C 
ATOM     23  C   UNL     1       2.046   7.374  18.085  0.00  0.00    +0.000 C 
ENDBRANCH  21  23
ENDBRANCH  19  21
ENDBRANCH  18  19
ENDBRANCH   1  18
TORSDOF 6
ENDMDL
MODEL 9
REMARK VINA RESULT:      -6.4      1.188      1.504
REMARK  Name = 
REMARK  9 active torsions:
REMARK  status: ('A' for Active; 'I' for Inactive)
REMARK    1  A    between atoms: C_1  and  C_2
REMARK    2  A    between atoms: C_2  and  O_3
REMARK    3  A    between atoms: O_3  and  C_4
REMARK    4  A    between atoms: C_4  and  C_6
REMARK    5  A    between atoms: C_6  and  N_7
REMARK    6  A    between atoms: C_9  and  C_10
REMARK    7  A    between atoms: C_11  and  N_12
REMARK    8  A    between atoms: C_13  and  C_15
REMARK    9  A    between atoms: C_21  and  C_22
REMARK                            x       y       z     vdW  Elec       q    Type
REMARK                         _______ _______ _______ _____ _____    ______ ____
ROOT
ATOM      1  N   UNL     1       4.634   4.369  16.578  0.00  0.00    +0.000 N 
ATOM      2  N   UNL     1       3.786   3.425  17.034  0.00  0.00    +0.000 NA
ATOM      3  C   UNL     1       2.905   4.109  17.772  0.00  0.00    +0.000 A 
ATOM      4  C   UNL     1       1.791   3.407  18.447  0.00  0.00    +0.000 C 
ATOM      5  C   UNL     1       3.146   5.503  17.715  0.00  0.00    +0.000 A 
ATOM      6  C   UNL     1       4.310   5.645  16.983  0.00  0.00    +0.000 A 
ATOM      7  C   UNL     1       5.168   6.830  16.714  0.00  0.00    +0.000 C 
ENDROOT
BRANCH   5   8
ATOM      8  N   UNL     1       2.404   6.492  18.332  0.00  0.00    +0.000 N 
ATOM      9  C   UNL     1       2.390   6.692  19.708  0.00  0.00    +0.000 C 
ATOM     10  O   UNL     1       2.973   5.989  20.526  0.00  0.00    +0.000 OA
ATOM     11  H   UNL     1       2.173   7.308  17.778  0.00  0.00    +0.000 HD
BRANCH   9  12
ATOM     12  C   UNL     1       1.659   7.889  20.078  0.00  0.00    +0.000 A 
ATOM     13  C   UNL     1       1.389   9.047  19.372  0.00  0.00    +0.000 A 
ATOM     14  C   UNL     1       0.658   9.896  20.242  0.00  0.00    +0.000 A 
ATOM     15  C   UNL     1       0.513   9.201  21.420  0.00  0.00    +0.000 A 
ATOM     16 BR   UNL     1      -0.354   9.838  22.944  0.00  0.00    +0.000 Br
ATOM     17  O   UNL     1       1.096   7.977  21.327  0.00  0.00    +0.000 OA
ENDBRANCH   9  12
ENDBRANCH   5   8
BRANCH   1  18
ATOM     18  C   UNL     1       5.716   3.961  15.706  0.00  0.00    +0.000 C 
BRANCH  18  19
ATOM     19  C   UNL     1       7.053   4.392  16.237  0.00  0.00    +0.000 C 
ATOM     20  O   UNL     1       7.428   4.345  17.402  0.00  0.00    +0.000 OA
BRANCH  19  21
ATOM     21  O   UNL     1       7.774   4.955  15.220  0.00  0.00    +0.000 OA
BRANCH  21  23
ATOM     22  C   UNL     1       8.094   5.518  12.919  0.00  0.00    +0.000 C 
ATOM     23  C   UNL     1       7.143   4.905  13.933  0.00  0.00    +0.000 C 
ENDBRANCH  21  23
ENDBRANCH  19  21
ENDBRANCH  18  19
ENDBRANCH   1  18
TORSDOF 6
ENDMDL
