MODEL 1
REMARK VINA RESULT:      -7.8      0.000      0.000
REMARK  Name = 
REMARK  4 active torsions:
REMARK  status: ('A' for Active; 'I' for Inactive)
REMARK    1  A    between atoms: C_1  and  C_2
REMARK    2  A    between atoms: C_2  and  C_3
REMARK    3  A    between atoms: N_5  and  C_6
REMARK    4  A    between atoms: C_6  and  C_7
REMARK                            x       y       z     vdW  Elec       q    Type
REMARK                         _______ _______ _______ _____ _____    ______ ____
ROOT
ATOM      1  C   UNL     1       2.595   5.274  19.699  0.00  0.00    +0.000 C 
ATOM      2  O   UNL     1       2.725   4.718  20.786  0.00  0.00    +0.000 OA
ATOM      3  N   UNL     1       2.166   6.572  19.617  0.00  0.00    +0.000 N 
ATOM      4  H   UNL     1       1.793   6.941  18.752  0.00  0.00    +0.000 HD
ENDROOT
BRANCH   1   6
ATOM      5  C   UNL     1       1.665   4.250  17.625  0.00  0.00    +0.000 C 
ATOM      6  C   UNL     1       2.972   4.598  18.362  0.00  0.00    +0.000 C 
ATOM      7  C   UNL     1       3.800   5.559  17.482  0.00  0.00    +0.000 C 
ATOM      8  C   UNL     1       5.192   5.817  18.053  0.00  0.00    +0.000 C 
ATOM      9  C   UNL     1       5.917   4.553  18.446  0.00  0.00    +0.000 C 
ATOM     10  O   UNL     1       7.139   4.441  18.393  0.00  0.00    +0.000 OA
ATOM     11  N   UNL     1       5.155   3.553  18.984  0.00  0.00    +0.000 N 
ATOM     12  C   UNL     1       3.793   3.318  18.560  0.00  0.00    +0.000 C 
ATOM     13  H   UNL     1       5.714   2.744  19.235  0.00  0.00    +0.000 HD
ENDBRANCH   1   6
BRANCH   3  14
ATOM     14  C   UNL     1       1.767   7.301  20.806  0.00  0.00    +0.000 C 
BRANCH  14  15
ATOM     15  C   UNL     1       1.181   8.625  20.406  0.00  0.00    +0.000 A 
ATOM     16  N   UNL     1       1.415   9.075  19.166  0.00  0.00    +0.000 NA
ATOM     17  S   UNL     1       0.659  10.529  18.969  0.00  0.00    +0.000 S 
ATOM     18  C   UNL     1      -0.009  10.620  20.548  0.00  0.00    +0.000 A 
ATOM     19  C   UNL     1      -0.806  11.628  21.117  0.00  0.00    +0.000 A 
ATOM     20  C   UNL     1      -1.225  11.474  22.440  0.00  0.00    +0.000 A 
ATOM     21  C   UNL     1      -0.863  10.350  23.171  0.00  0.00    +0.000 A 
ATOM     22  C   UNL     1      -0.073   9.348  22.592  0.00  0.00    +0.000 A 
ATOM     23  C   UNL     1       0.370   9.475  21.253  0.00  0.00    +0.000 A 
ENDBRANCH  14  15
ENDBRANCH   3  14
TORSDOF 3
ENDMDL
MODEL 2
REMARK VINA RESULT:      -7.6      3.390      4.676
REMARK  Name = 
REMARK  4 active torsions:
REMARK  status: ('A' for Active; 'I' for Inactive)
REMARK    1  A    between atoms: C_1  and  C_2
REMARK    2  A    between atoms: C_2  and  C_3
REMARK    3  A    between atoms: N_5  and  C_6
REMARK    4  A    between atoms: C_6  and  C_7
REMARK                            x       y       z     vdW  Elec       q    Type
REMARK                         _______ _______ _______ _____ _____    ______ ____
ROOT
ATOM      1  C   UNL     1       4.895   3.968  17.066  0.00  0.00    +0.000 C 
ATOM      2  O   UNL     1       5.281   3.587  18.168  0.00  0.00    +0.000 OA
ATOM      3  N   UNL     1       3.585   3.831  16.691  0.00  0.00    +0.000 N 
ATOM      4  H   UNL     1       3.318   3.874  15.717  0.00  0.00    +0.000 HD
ENDROOT
BRANCH   1   6
ATOM      5  C   UNL     1       5.535   4.111  14.661  0.00  0.00    +0.000 C 
ATOM      6  C   UNL     1       5.816   4.692  16.060  0.00  0.00    +0.000 C 
ATOM      7  C   UNL     1       5.516   6.206  16.041  0.00  0.00    +0.000 C 
ATOM      8  C   UNL     1       5.936   6.899  17.334  0.00  0.00    +0.000 C 
ATOM      9  C   UNL     1       7.340   6.548  17.769  0.00  0.00    +0.000 C 
ATOM     10  O   UNL     1       8.060   7.327  18.387  0.00  0.00    +0.000 OA
ATOM     11  N   UNL     1       7.745   5.262  17.543  0.00  0.00    +0.000 N 
ATOM     12  C   UNL     1       7.304   4.512  16.389  0.00  0.00    +0.000 C 
ATOM     13  H   UNL     1       8.691   5.100  17.874  0.00  0.00    +0.000 HD
ENDBRANCH   1   6
BRANCH   3  14
ATOM     14  C   UNL     1       2.632   3.150  17.549  0.00  0.00    +0.000 C 
BRANCH  14  15
ATOM     15  C   UNL     1       2.402   3.970  18.787  0.00  0.00    +0.000 A 
ATOM     16  N   UNL     1       2.306   3.333  19.962  0.00  0.00    +0.000 NA
ATOM     17  S   UNL     1       2.070   4.444  21.159  0.00  0.00    +0.000 S 
ATOM     18  C   UNL     1       2.079   5.830  20.147  0.00  0.00    +0.000 A 
ATOM     19  C   UNL     1       1.924   7.183  20.494  0.00  0.00    +0.000 A 
ATOM     20  C   UNL     1       1.962   8.138  19.476  0.00  0.00    +0.000 A 
ATOM     21  C   UNL     1       2.150   7.755  18.153  0.00  0.00    +0.000 A 
ATOM     22  C   UNL     1       2.309   6.405  17.819  0.00  0.00    +0.000 A 
ATOM     23  C   UNL     1       2.274   5.411  18.829  0.00  0.00    +0.000 A 
ENDBRANCH  14  15
ENDBRANCH   3  14
TORSDOF 3
ENDMDL
MODEL 3
REMARK VINA RESULT:      -7.5      4.150      5.891
REMARK  Name = 
REMARK  4 active torsions:
REMARK  status: ('A' for Active; 'I' for Inactive)
REMARK    1  A    between atoms: C_1  and  C_2
REMARK    2  A    between atoms: C_2  and  C_3
REMARK    3  A    between atoms: N_5  and  C_6
REMARK    4  A    between atoms: C_6  and  C_7
REMARK                            x       y       z     vdW  Elec       q    Type
REMARK                         _______ _______ _______ _____ _____    ______ ____
ROOT
ATOM      1  C   UNL     1       5.552   5.962  16.217  0.00  0.00    +0.000 C 
ATOM      2  O   UNL     1       5.265   6.761  15.329  0.00  0.00    +0.000 OA
ATOM      3  N   UNL     1       4.824   5.905  17.376  0.00  0.00    +0.000 N 
ATOM      4  H   UNL     1       5.206   5.470  18.206  0.00  0.00    +0.000 HD
ENDROOT
BRANCH   1   6
ATOM      5  C   UNL     1       7.364   4.772  17.448  0.00  0.00    +0.000 C 
ATOM      6  C   UNL     1       6.684   4.921  16.074  0.00  0.00    +0.000 C 
ATOM      7  C   UNL     1       6.112   3.552  15.649  0.00  0.00    +0.000 C 
ATOM      8  C   UNL     1       5.577   3.563  14.219  0.00  0.00    +0.000 C 
ATOM      9  C   UNL     1       6.542   4.170  13.228  0.00  0.00    +0.000 C 
ATOM     10  O   UNL     1       6.602   3.814  12.054  0.00  0.00    +0.000 OA
ATOM     11  N   UNL     1       7.282   5.232  13.667  0.00  0.00    +0.000 N 
ATOM     12  C   UNL     1       7.736   5.334  15.036  0.00  0.00    +0.000 C 
ATOM     13  H   UNL     1       7.894   5.592  12.942  0.00  0.00    +0.000 HD
ENDBRANCH   1   6
BRANCH   3  14
ATOM     14  C   UNL     1       3.749   6.846  17.627  0.00  0.00    +0.000 C 
BRANCH  14  15
ATOM     15  C   UNL     1       2.847   6.297  18.696  0.00  0.00    +0.000 A 
ATOM     16  N   UNL     1       2.502   7.101  19.711  0.00  0.00    +0.000 NA
ATOM     17  S   UNL     1       1.505   6.277  20.735  0.00  0.00    +0.000 S 
ATOM     18  C   UNL     1       1.500   4.800  19.862  0.00  0.00    +0.000 A 
ATOM     19  C   UNL     1       0.836   3.596  20.156  0.00  0.00    +0.000 A 
ATOM     20  C   UNL     1       0.997   2.519  19.283  0.00  0.00    +0.000 A 
ATOM     21  C   UNL     1       1.793   2.639  18.150  0.00  0.00    +0.000 A 
ATOM     22  C   UNL     1       2.445   3.844  17.863  0.00  0.00    +0.000 A 
ATOM     23  C   UNL     1       2.304   4.955  18.730  0.00  0.00    +0.000 A 
ENDBRANCH  14  15
ENDBRANCH   3  14
TORSDOF 3
ENDMDL
MODEL 4
REMARK VINA RESULT:      -7.3      1.430      1.888
REMARK  Name = 
REMARK  4 active torsions:
REMARK  status: ('A' for Active; 'I' for Inactive)
REMARK    1  A    between atoms: C_1  and  C_2
REMARK    2  A    between atoms: C_2  and  C_3
REMARK    3  A    between atoms: N_5  and  C_6
REMARK    4  A    between atoms: C_6  and  C_7
REMARK                            x       y       z     vdW  Elec       q    Type
REMARK                         _______ _______ _______ _____ _____    ______ ____
ROOT
ATOM      1  C   UNL     1       2.468   5.483  19.343  0.00  0.00    +0.000 C 
ATOM      2  O   UNL     1       1.543   4.726  19.627  0.00  0.00    +0.000 OA
ATOM      3  N   UNL     1       2.602   6.698  19.961  0.00  0.00    +0.000 N 
ATOM      4  H   UNL     1       3.169   7.428  19.551  0.00  0.00    +0.000 HD
ENDROOT
BRANCH   1   6
ATOM      5  C   UNL     1       4.099   6.404  17.697  0.00  0.00    +0.000 C 
ATOM      6  C   UNL     1       3.583   5.104  18.343  0.00  0.00    +0.000 C 
ATOM      7  C   UNL     1       4.754   4.410  19.072  0.00  0.00    +0.000 C 
ATOM      8  C   UNL     1       4.377   3.025  19.590  0.00  0.00    +0.000 C 
ATOM      9  C   UNL     1       3.694   2.167  18.552  0.00  0.00    +0.000 C 
ATOM     10  O   UNL     1       3.799   0.944  18.525  0.00  0.00    +0.000 OA
ATOM     11  N   UNL     1       2.845   2.807  17.692  0.00  0.00    +0.000 N 
ATOM     12  C   UNL     1       3.089   4.158  17.241  0.00  0.00    +0.000 C 
ATOM     13  H   UNL     1       2.415   2.163  17.036  0.00  0.00    +0.000 HD
ENDBRANCH   1   6
BRANCH   3  14
ATOM     14  C   UNL     1       1.605   7.166  20.905  0.00  0.00    +0.000 C 
BRANCH  14  15
ATOM     15  C   UNL     1       1.156   8.545  20.512  0.00  0.00    +0.000 A 
ATOM     16  N   UNL     1       1.503   9.006  19.303  0.00  0.00    +0.000 NA
ATOM     17  S   UNL     1       0.884  10.523  19.107  0.00  0.00    +0.000 S 
ATOM     18  C   UNL     1       0.130  10.630  20.645  0.00  0.00    +0.000 A 
ATOM     19  C   UNL     1      -0.615  11.686  21.197  0.00  0.00    +0.000 A 
ATOM     20  C   UNL     1      -1.127  11.534  22.487  0.00  0.00    +0.000 A 
ATOM     21  C   UNL     1      -0.905  10.364  23.203  0.00  0.00    +0.000 A 
ATOM     22  C   UNL     1      -0.167   9.315  22.641  0.00  0.00    +0.000 A 
ATOM     23  C   UNL     1       0.368   9.439  21.335  0.00  0.00    +0.000 A 
ENDBRANCH  14  15
ENDBRANCH   3  14
TORSDOF 3
ENDMDL
MODEL 5
REMARK VINA RESULT:      -7.2      3.974      5.421
REMARK  Name = 
REMARK  4 active torsions:
REMARK  status: ('A' for Active; 'I' for Inactive)
REMARK    1  A    between atoms: C_1  and  C_2
REMARK    2  A    between atoms: C_2  and  C_3
REMARK    3  A    between atoms: N_5  and  C_6
REMARK    4  A    between atoms: C_6  and  C_7
REMARK                            x       y       z     vdW  Elec       q    Type
REMARK                         _______ _______ _______ _____ _____    ______ ____
ROOT
ATOM      1  C   UNL     1       5.355   6.272  16.278  0.00  0.00    +0.000 C 
ATOM      2  O   UNL     1       4.973   6.977  15.347  0.00  0.00    +0.000 OA
ATOM      3  N   UNL     1       4.551   6.036  17.361  0.00  0.00    +0.000 N 
ATOM      4  H   UNL     1       4.942   5.707  18.234  0.00  0.00    +0.000 HD
ENDROOT
BRANCH   1   6
ATOM      5  C   UNL     1       7.047   5.174  14.812  0.00  0.00    +0.000 C 
ATOM      6  C   UNL     1       6.717   5.543  16.271  0.00  0.00    +0.000 C 
ATOM      7  C   UNL     1       7.829   6.464  16.817  0.00  0.00    +0.000 C 
ATOM      8  C   UNL     1       7.679   6.736  18.311  0.00  0.00    +0.000 C 
ATOM      9  C   UNL     1       7.454   5.483  19.124  0.00  0.00    +0.000 C 
ATOM     10  O   UNL     1       7.841   5.363  20.283  0.00  0.00    +0.000 OA
ATOM     11  N   UNL     1       6.687   4.509  18.546  0.00  0.00    +0.000 N 
ATOM     12  C   UNL     1       6.706   4.266  17.122  0.00  0.00    +0.000 C 
ATOM     13  H   UNL     1       6.570   3.707  19.158  0.00  0.00    +0.000 HD
ENDBRANCH   1   6
BRANCH   3  14
ATOM     14  C   UNL     1       3.258   6.682  17.484  0.00  0.00    +0.000 C 
BRANCH  14  15
ATOM     15  C   UNL     1       2.537   6.132  18.681  0.00  0.00    +0.000 A 
ATOM     16  N   UNL     1       2.314   6.949  19.720  0.00  0.00    +0.000 NA
ATOM     17  S   UNL     1       1.503   6.119  20.892  0.00  0.00    +0.000 S 
ATOM     18  C   UNL     1       1.425   4.621  20.058  0.00  0.00    +0.000 A 
ATOM     19  C   UNL     1       0.852   3.405  20.469  0.00  0.00    +0.000 A 
ATOM     20  C   UNL     1       0.924   2.313  19.603  0.00  0.00    +0.000 A 
ATOM     21  C   UNL     1       1.546   2.429  18.366  0.00  0.00    +0.000 A 
ATOM     22  C   UNL     1       2.108   3.647  17.964  0.00  0.00    +0.000 A 
ATOM     23  C   UNL     1       2.053   4.775  18.820  0.00  0.00    +0.000 A 
ENDBRANCH  14  15
ENDBRANCH   3  14
TORSDOF 3
ENDMDL
MODEL 6
REMARK VINA RESULT:      -7.0      1.773      2.461
REMARK  Name = 
REMARK  4 active torsions:
REMARK  status: ('A' for Active; 'I' for Inactive)
REMARK    1  A    between atoms: C_1  and  C_2
REMARK    2  A    between atoms: C_2  and  C_3
REMARK    3  A    between atoms: N_5  and  C_6
REMARK    4  A    between atoms: C_6  and  C_7
REMARK                            x       y       z     vdW  Elec       q    Type
REMARK                         _______ _______ _______ _____ _____    ______ ____
ROOT
ATOM      1  C   UNL     1       2.893   5.266  19.298  0.00  0.00    +0.000 C 
ATOM      2  O   UNL     1       4.103   5.343  19.493  0.00  0.00    +0.000 OA
ATOM      3  N   UNL     1       2.218   6.265  18.649  0.00  0.00    +0.000 N 
ATOM      4  H   UNL     1       1.213   6.349  18.730  0.00  0.00    +0.000 HD
ENDROOT
BRANCH   1   6
ATOM      5  C   UNL     1       0.873   4.506  20.546  0.00  0.00    +0.000 C 
ATOM      6  C   UNL     1       2.059   4.025  19.687  0.00  0.00    +0.000 C 
ATOM      7  C   UNL     1       1.510   3.322  18.427  0.00  0.00    +0.000 C 
ATOM      8  C   UNL     1       2.611   2.657  17.606  0.00  0.00    +0.000 C 
ATOM      9  C   UNL     1       3.542   1.807  18.438  0.00  0.00    +0.000 C 
ATOM     10  O   UNL     1       4.100   0.805  17.999  0.00  0.00    +0.000 OA
ATOM     11  N   UNL     1       3.836   2.269  19.691  0.00  0.00    +0.000 N 
ATOM     12  C   UNL     1       2.871   2.996  20.484  0.00  0.00    +0.000 C 
ATOM     13  H   UNL     1       4.477   1.652  20.181  0.00  0.00    +0.000 HD
ENDBRANCH   1   6
BRANCH   3  14
ATOM     14  C   UNL     1       2.896   7.486  18.252  0.00  0.00    +0.000 C 
BRANCH  14  15
ATOM     15  C   UNL     1       2.022   8.666  18.570  0.00  0.00    +0.000 A 
ATOM     16  N   UNL     1       1.825   9.586  17.616  0.00  0.00    +0.000 NA
ATOM     17  S   UNL     1       0.829  10.763  18.202  0.00  0.00    +0.000 S 
ATOM     18  C   UNL     1       0.627  10.092  19.768  0.00  0.00    +0.000 A 
ATOM     19  C   UNL     1      -0.124  10.578  20.853  0.00  0.00    +0.000 A 
ATOM     20  C   UNL     1      -0.124   9.845  22.041  0.00  0.00    +0.000 A 
ATOM     21  C   UNL     1       0.600   8.663  22.143  0.00  0.00    +0.000 A 
ATOM     22  C   UNL     1       1.339   8.185  21.055  0.00  0.00    +0.000 A 
ATOM     23  C   UNL     1       1.362   8.906  19.836  0.00  0.00    +0.000 A 
ENDBRANCH  14  15
ENDBRANCH   3  14
TORSDOF 3
ENDMDL
MODEL 7
REMARK VINA RESULT:      -7.0      2.313      3.256
REMARK  Name = 
REMARK  4 active torsions:
REMARK  status: ('A' for Active; 'I' for Inactive)
REMARK    1  A    between atoms: C_1  and  C_2
REMARK    2  A    between atoms: C_2  and  C_3
REMARK    3  A    between atoms: N_5  and  C_6
REMARK    4  A    between atoms: C_6  and  C_7
REMARK                            x       y       z     vdW  Elec       q    Type
REMARK                         _______ _______ _______ _____ _____    ______ ____
ROOT
ATOM      1  C   UNL     1       4.896   6.226  16.571  0.00  0.00    +0.000 C 
ATOM      2  O   UNL     1       5.063   6.951  15.593  0.00  0.00    +0.000 OA
ATOM      3  N   UNL     1       3.939   6.514  17.507  0.00  0.00    +0.000 N 
ATOM      4  H   UNL     1       3.979   6.104  18.431  0.00  0.00    +0.000 HD
ENDROOT
BRANCH   1   6
ATOM      5  C   UNL     1       5.356   3.974  15.604  0.00  0.00    +0.000 C 
ATOM      6  C   UNL     1       5.680   4.912  16.783  0.00  0.00    +0.000 C 
ATOM      7  C   UNL     1       7.200   5.184  16.801  0.00  0.00    +0.000 C 
ATOM      8  C   UNL     1       7.637   5.960  18.041  0.00  0.00    +0.000 C 
ATOM      9  C   UNL     1       7.092   5.384  19.326  0.00  0.00    +0.000 C 
ATOM     10  O   UNL     1       7.693   5.453  20.395  0.00  0.00    +0.000 OA
ATOM     11  N   UNL     1       5.825   4.871  19.277  0.00  0.00    +0.000 N 
ATOM     12  C   UNL     1       5.312   4.213  18.098  0.00  0.00    +0.000 C 
ATOM     13  H   UNL     1       5.526   4.517  20.180  0.00  0.00    +0.000 HD
ENDBRANCH   1   6
BRANCH   3  14
ATOM     14  C   UNL     1       3.154   7.731  17.420  0.00  0.00    +0.000 C 
BRANCH  14  15
ATOM     15  C   UNL     1       2.370   7.910  18.689  0.00  0.00    +0.000 A 
ATOM     16  N   UNL     1       2.453   6.957  19.627  0.00  0.00    +0.000 NA
ATOM     17  S   UNL     1       1.520   7.390  20.917  0.00  0.00    +0.000 S 
ATOM     18  C   UNL     1       0.958   8.875  20.267  0.00  0.00    +0.000 A 
ATOM     19  C   UNL     1       0.087   9.821  20.836  0.00  0.00    +0.000 A 
ATOM     20  C   UNL     1      -0.228  10.961  20.096  0.00  0.00    +0.000 A 
ATOM     21  C   UNL     1       0.309  11.154  18.829  0.00  0.00    +0.000 A 
ATOM     22  C   UNL     1       1.180  10.209  18.274  0.00  0.00    +0.000 A 
ATOM     23  C   UNL     1       1.519   9.040  18.998  0.00  0.00    +0.000 A 
ENDBRANCH  14  15
ENDBRANCH   3  14
TORSDOF 3
ENDMDL
MODEL 8
REMARK VINA RESULT:      -7.0      1.625      1.949
REMARK  Name = 
REMARK  4 active torsions:
REMARK  status: ('A' for Active; 'I' for Inactive)
REMARK    1  A    between atoms: C_1  and  C_2
REMARK    2  A    between atoms: C_2  and  C_3
REMARK    3  A    between atoms: N_5  and  C_6
REMARK    4  A    between atoms: C_6  and  C_7
REMARK                            x       y       z     vdW  Elec       q    Type
REMARK                         _______ _______ _______ _____ _____    ______ ____
ROOT
ATOM      1  C   UNL     1       4.209   5.247  18.935  0.00  0.00    +0.000 C 
ATOM      2  O   UNL     1       4.877   5.407  19.953  0.00  0.00    +0.000 OA
ATOM      3  N   UNL     1       2.926   5.717  18.851  0.00  0.00    +0.000 N 
ATOM      4  H   UNL     1       2.286   5.357  18.155  0.00  0.00    +0.000 HD
ENDROOT
BRANCH   1   6
ATOM      5  C   UNL     1       3.959   3.305  17.391  0.00  0.00    +0.000 C 
ATOM      6  C   UNL     1       4.774   4.585  17.658  0.00  0.00    +0.000 C 
ATOM      7  C   UNL     1       4.629   5.531  16.447  0.00  0.00    +0.000 C 
ATOM      8  C   UNL     1       5.546   6.746  16.545  0.00  0.00    +0.000 C 
ATOM      9  C   UNL     1       6.973   6.390  16.890  0.00  0.00    +0.000 C 
ATOM     10  O   UNL     1       7.936   7.045  16.501  0.00  0.00    +0.000 OA
ATOM     11  N   UNL     1       7.149   5.353  17.764  0.00  0.00    +0.000 N 
ATOM     12  C   UNL     1       6.257   4.217  17.793  0.00  0.00    +0.000 C 
ATOM     13  H   UNL     1       8.131   5.184  17.956  0.00  0.00    +0.000 HD
ENDBRANCH   1   6
BRANCH   3  14
ATOM     14  C   UNL     1       2.285   6.340  19.995  0.00  0.00    +0.000 C 
BRANCH  14  15
ATOM     15  C   UNL     1       1.871   7.738  19.633  0.00  0.00    +0.000 A 
ATOM     16  N   UNL     1       2.109   8.170  18.387  0.00  0.00    +0.000 NA
ATOM     17  S   UNL     1       1.555   9.717  18.237  0.00  0.00    +0.000 S 
ATOM     18  C   UNL     1       0.977   9.877  19.846  0.00  0.00    +0.000 A 
ATOM     19  C   UNL     1       0.353  10.976  20.460  0.00  0.00    +0.000 A 
ATOM     20  C   UNL     1      -0.024  10.862  21.799  0.00  0.00    +0.000 A 
ATOM     21  C   UNL     1       0.211   9.688  22.503  0.00  0.00    +0.000 A 
ATOM     22  C   UNL     1       0.828   8.596  21.880  0.00  0.00    +0.000 A 
ATOM     23  C   UNL     1       1.224   8.680  20.523  0.00  0.00    +0.000 A 
ENDBRANCH  14  15
ENDBRANCH   3  14
TORSDOF 3
ENDMDL
MODEL 9
REMARK VINA RESULT:      -7.0      1.811      3.024
REMARK  Name = 
REMARK  4 active torsions:
REMARK  status: ('A' for Active; 'I' for Inactive)
REMARK    1  A    between atoms: C_1  and  C_2
REMARK    2  A    between atoms: C_2  and  C_3
REMARK    3  A    between atoms: N_5  and  C_6
REMARK    4  A    between atoms: C_6  and  C_7
REMARK                            x       y       z     vdW  Elec       q    Type
REMARK                         _______ _______ _______ _____ _____    ______ ____
ROOT
ATOM      1  C   UNL     1       3.058   5.138  19.000  0.00  0.00    +0.000 C 
ATOM      2  O   UNL     1       4.087   5.272  19.656  0.00  0.00    +0.000 OA
ATOM      3  N   UNL     1       2.453   6.214  18.407  0.00  0.00    +0.000 N 
ATOM      4  H   UNL     1       1.486   6.169  18.115  0.00  0.00    +0.000 HD
ENDROOT
BRANCH   1   6
ATOM      5  C   UNL     1       2.472   3.506  17.208  0.00  0.00    +0.000 C 
ATOM      6  C   UNL     1       2.413   3.761  18.726  0.00  0.00    +0.000 C 
ATOM      7  C   UNL     1       3.192   2.643  19.451  0.00  0.00    +0.000 C 
ATOM      8  C   UNL     1       3.036   2.714  20.967  0.00  0.00    +0.000 C 
ATOM      9  C   UNL     1       1.600   2.861  21.412  0.00  0.00    +0.000 C 
ATOM     10  O   UNL     1       1.181   2.406  22.472  0.00  0.00    +0.000 OA
ATOM     11  N   UNL     1       0.793   3.636  20.625  0.00  0.00    +0.000 N 
ATOM     12  C   UNL     1       0.952   3.693  19.190  0.00  0.00    +0.000 C 
ATOM     13  H   UNL     1      -0.150   3.697  20.996  0.00  0.00    +0.000 HD
ENDBRANCH   1   6
BRANCH   3  14
ATOM     14  C   UNL     1       2.961   7.559  18.610  0.00  0.00    +0.000 C 
BRANCH  14  15
ATOM     15  C   UNL     1       1.807   8.506  18.781  0.00  0.00    +0.000 A 
ATOM     16  N   UNL     1       1.264   9.050  17.683  0.00  0.00    +0.000 NA
ATOM     17  S   UNL     1       0.018  10.034  18.131  0.00  0.00    +0.000 S 
ATOM     18  C   UNL     1       0.160   9.778  19.822  0.00  0.00    +0.000 A 
ATOM     19  C   UNL     1      -0.604  10.320  20.870  0.00  0.00    +0.000 A 
ATOM     20  C   UNL     1      -0.284   9.959  22.180  0.00  0.00    +0.000 A 
ATOM     21  C   UNL     1       0.764   9.084  22.437  0.00  0.00    +0.000 A 
ATOM     22  C   UNL     1       1.515   8.545  21.386  0.00  0.00    +0.000 A 
ATOM     23  C   UNL     1       1.217   8.892  20.045  0.00  0.00    +0.000 A 
ENDBRANCH  14  15
ENDBRANCH   3  14
TORSDOF 3
ENDMDL
