MODEL 1
REMARK VINA RESULT:      -7.5      0.000      0.000
REMARK  Name = 
REMARK  6 active torsions:
REMARK  status: ('A' for Active; 'I' for Inactive)
REMARK    1  A    between atoms: C_1  and  C_2
REMARK    2  A    between atoms: C_2  and  C_3
REMARK    3  A    between atoms: C_2  and  C_5
REMARK    4  A    between atoms: C_8  and  N_9
REMARK    5  A    between atoms: C_18  and  C_19
REMARK    6  A    between atoms: C_20  and  C_21
REMARK                            x       y       z     vdW  Elec       q    Type
REMARK                         _______ _______ _______ _____ _____    ______ ____
ROOT
ATOM      1  N   UNL     1       0.911  10.338  19.203  0.00  0.00    +0.000 N 
ATOM      2  C   UNL     1       1.572  11.193  18.282  0.00  0.00    +0.000 A 
ATOM      3  N   UNL     1       1.445  12.463  18.566  0.00  0.00    +0.000 NA
ATOM      4  C   UNL     1       0.661  12.411  19.664  0.00  0.00    +0.000 A 
ATOM      5  C   UNL     1       0.799  13.093  20.875  0.00  0.00    +0.000 A 
ATOM      6  N   UNL     1       0.268  12.507  21.997  0.00  0.00    +0.000 NA
ATOM      7  C   UNL     1      -0.829  11.753  21.898  0.00  0.00    +0.000 A 
ATOM      8  C   UNL     1      -1.600  11.732  23.051  0.00  0.00    +0.000 A 
ATOM      9  C   UNL     1      -2.868  12.321  23.114  0.00  0.00    +0.000 A 
ATOM     10  C   UNL     1      -3.432  12.939  21.990  0.00  0.00    +0.000 A 
ATOM     11  C   UNL     1      -2.730  12.540  20.754  0.00  0.00    +0.000 A 
ATOM     12  C   UNL     1      -1.413  11.658  20.667  0.00  0.00    +0.000 A 
ATOM     13  C   UNL     1      -0.264  11.309  19.630  0.00  0.00    +0.000 A 
ENDROOT
BRANCH   1  17
ATOM     14  C   UNL     1       2.752   5.929  19.236  0.00  0.00    +0.000 A 
ATOM     15  C   UNL     1       2.815   6.851  18.166  0.00  0.00    +0.000 A 
ATOM     16  C   UNL     1       2.221   8.252  18.211  0.00  0.00    +0.000 A 
ATOM     17  C   UNL     1       1.512   8.879  19.318  0.00  0.00    +0.000 A 
ATOM     18  C   UNL     1       1.462   7.978  20.384  0.00  0.00    +0.000 A 
ATOM     19  C   UNL     1       2.045   6.555  20.332  0.00  0.00    +0.000 A 
BRANCH  14  21
ATOM     20  C   UNL     1       2.928   3.465  18.073  0.00  0.00    +0.000 C 
ATOM     21  C   UNL     1       3.448   4.262  19.253  0.00  0.00    +0.000 C 
BRANCH  21  22
ATOM     22  C   UNL     1       4.944   4.504  19.132  0.00  0.00    +0.000 C 
ATOM     23  N   UNL     1       6.184   4.704  19.030  0.00  0.00    +0.000 NA
ENDBRANCH  21  22
ENDBRANCH  14  21
ENDBRANCH   1  17
BRANCH  10  24
ATOM     24  C   UNL     1      -4.538  13.940  22.364  0.00  0.00    +0.000 C 
ATOM     25  C   UNL     1      -5.196  14.943  22.717  0.00  0.00    +0.000 C 
BRANCH  25  26
ATOM     26  C   UNL     1      -5.874  16.209  23.171  0.00  0.00    +0.000 A 
ATOM     27  C   UNL     1      -5.230  17.184  23.955  0.00  0.00    +0.000 A 
ATOM     28  C   UNL     1      -5.889  18.377  24.377  0.00  0.00    +0.000 A 
ATOM     29  C   UNL     1      -7.199  18.590  24.000  0.00  0.00    +0.000 A 
ATOM     30  N   UNL     1      -7.860  17.710  23.233  0.00  0.00    +0.000 NA
ATOM     31  C   UNL     1      -7.193  16.562  22.835  0.00  0.00    +0.000 A 
ENDBRANCH  25  26
ENDBRANCH  10  24
TORSDOF 5
ENDMDL
MODEL 2
REMARK VINA RESULT:      -7.5      1.564      1.938
REMARK  Name = 
REMARK  6 active torsions:
REMARK  status: ('A' for Active; 'I' for Inactive)
REMARK    1  A    between atoms: C_1  and  C_2
REMARK    2  A    between atoms: C_2  and  C_3
REMARK    3  A    between atoms: C_2  and  C_5
REMARK    4  A    between atoms: C_8  and  N_9
REMARK    5  A    between atoms: C_18  and  C_19
REMARK    6  A    between atoms: C_20  and  C_21
REMARK                            x       y       z     vdW  Elec       q    Type
REMARK                         _______ _______ _______ _____ _____    ______ ____
ROOT
ATOM      1  N   UNL     1       1.342   9.486  18.753  0.00  0.00    +0.000 N 
ATOM      2  C   UNL     1       2.078  10.247  17.806  0.00  0.00    +0.000 A 
ATOM      3  N   UNL     1       2.121  11.524  18.084  0.00  0.00    +0.000 NA
ATOM      4  C   UNL     1       1.371  11.576  19.206  0.00  0.00    +0.000 A 
ATOM      5  C   UNL     1       1.632  12.239  20.407  0.00  0.00    +0.000 A 
ATOM      6  N   UNL     1       1.067  11.728  21.549  0.00  0.00    +0.000 NA
ATOM      7  C   UNL     1      -0.120  11.119  21.489  0.00  0.00    +0.000 A 
ATOM      8  C   UNL     1      -0.851  11.200  22.665  0.00  0.00    +0.000 A 
ATOM      9  C   UNL     1      -2.031  11.945  22.763  0.00  0.00    +0.000 A 
ATOM     10  C   UNL     1      -2.548  12.626  21.652  0.00  0.00    +0.000 A 
ATOM     11  C   UNL     1      -1.940  12.137  20.398  0.00  0.00    +0.000 A 
ATOM     12  C   UNL     1      -0.749  11.094  20.277  0.00  0.00    +0.000 A 
ATOM     13  C   UNL     1       0.314  10.599  19.208  0.00  0.00    +0.000 A 
ENDROOT
BRANCH   1  17
ATOM     14  C   UNL     1       2.596   4.920  19.393  0.00  0.00    +0.000 A 
ATOM     15  C   UNL     1       2.034   5.774  20.368  0.00  0.00    +0.000 A 
ATOM     16  C   UNL     1       1.639   7.222  20.109  0.00  0.00    +0.000 A 
ATOM     17  C   UNL     1       1.758   7.963  18.861  0.00  0.00    +0.000 A 
ATOM     18  C   UNL     1       2.297   7.118  17.889  0.00  0.00    +0.000 A 
ATOM     19  C   UNL     1       2.714   5.661  18.155  0.00  0.00    +0.000 A 
BRANCH  14  21
ATOM     20  C   UNL     1       4.580   3.069  19.700  0.00  0.00    +0.000 C 
ATOM     21  C   UNL     1       3.070   3.193  19.629  0.00  0.00    +0.000 C 
BRANCH  21  22
ATOM     22  C   UNL     1       2.430   2.831  20.960  0.00  0.00    +0.000 C 
ATOM     23  N   UNL     1       1.899   2.531  22.063  0.00  0.00    +0.000 NA
ENDBRANCH  21  22
ENDBRANCH  14  21
ENDBRANCH   1  17
BRANCH  10  24
ATOM     24  C   UNL     1      -3.506  13.760  22.052  0.00  0.00    +0.000 C 
ATOM     25  C   UNL     1      -4.034  14.791  22.523  0.00  0.00    +0.000 C 
BRANCH  25  26
ATOM     26  C   UNL     1      -4.558  16.052  23.157  0.00  0.00    +0.000 A 
ATOM     27  C   UNL     1      -4.577  16.260  24.550  0.00  0.00    +0.000 A 
ATOM     28  C   UNL     1      -5.078  17.462  25.133  0.00  0.00    +0.000 A 
ATOM     29  C   UNL     1      -5.555  18.459  24.308  0.00  0.00    +0.000 A 
ATOM     30  N   UNL     1      -5.542  18.332  22.973  0.00  0.00    +0.000 NA
ATOM     31  C   UNL     1      -5.045  17.156  22.434  0.00  0.00    +0.000 A 
ENDBRANCH  25  26
ENDBRANCH  10  24
TORSDOF 5
ENDMDL
MODEL 3
REMARK VINA RESULT:      -7.4      1.288      1.669
REMARK  Name = 
REMARK  6 active torsions:
REMARK  status: ('A' for Active; 'I' for Inactive)
REMARK    1  A    between atoms: C_1  and  C_2
REMARK    2  A    between atoms: C_2  and  C_3
REMARK    3  A    between atoms: C_2  and  C_5
REMARK    4  A    between atoms: C_8  and  N_9
REMARK    5  A    between atoms: C_18  and  C_19
REMARK    6  A    between atoms: C_20  and  C_21
REMARK                            x       y       z     vdW  Elec       q    Type
REMARK                         _______ _______ _______ _____ _____    ______ ____
ROOT
ATOM      1  N   UNL     1       1.293   9.808  18.933  0.00  0.00    +0.000 N 
ATOM      2  C   UNL     1       2.053  10.560  17.996  0.00  0.00    +0.000 A 
ATOM      3  N   UNL     1       2.074  11.842  18.252  0.00  0.00    +0.000 NA
ATOM      4  C   UNL     1       1.287  11.907  19.347  0.00  0.00    +0.000 A 
ATOM      5  C   UNL     1       1.502  12.594  20.544  0.00  0.00    +0.000 A 
ATOM      6  N   UNL     1       0.904  12.099  21.675  0.00  0.00    +0.000 NA
ATOM      7  C   UNL     1      -0.274  11.477  21.588  0.00  0.00    +0.000 A 
ATOM      8  C   UNL     1      -1.045  11.573  22.738  0.00  0.00    +0.000 A 
ATOM      9  C   UNL     1      -2.234  12.307  22.782  0.00  0.00    +0.000 A 
ATOM     10  C   UNL     1      -2.720  12.961  21.643  0.00  0.00    +0.000 A 
ATOM     11  C   UNL     1      -2.067  12.456  20.419  0.00  0.00    +0.000 A 
ATOM     12  C   UNL     1      -0.862  11.424  20.357  0.00  0.00    +0.000 A 
ATOM     13  C   UNL     1       0.240  10.919  19.333  0.00  0.00    +0.000 A 
ENDROOT
BRANCH   1  17
ATOM     14  C   UNL     1       2.550   5.262  19.698  0.00  0.00    +0.000 A 
ATOM     15  C   UNL     1       1.887   6.110  20.616  0.00  0.00    +0.000 A 
ATOM     16  C   UNL     1       1.497   7.551  20.317  0.00  0.00    +0.000 A 
ATOM     17  C   UNL     1       1.720   8.293  19.083  0.00  0.00    +0.000 A 
ATOM     18  C   UNL     1       2.359   7.454  18.167  0.00  0.00    +0.000 A 
ATOM     19  C   UNL     1       2.771   6.004  18.475  0.00  0.00    +0.000 A 
BRANCH  14  21
ATOM     20  C   UNL     1       2.322   3.001  21.211  0.00  0.00    +0.000 C 
ATOM     21  C   UNL     1       3.026   3.543  19.982  0.00  0.00    +0.000 C 
BRANCH  21  22
ATOM     22  C   UNL     1       2.550   2.834  18.724  0.00  0.00    +0.000 C 
ATOM     23  N   UNL     1       2.157   2.247  17.681  0.00  0.00    +0.000 NA
ENDBRANCH  21  22
ENDBRANCH  14  21
ENDBRANCH   1  17
BRANCH  10  24
ATOM     24  C   UNL     1      -3.702  14.093  21.989  0.00  0.00    +0.000 C 
ATOM     25  C   UNL     1      -4.308  15.054  22.511  0.00  0.00    +0.000 C 
BRANCH  25  26
ATOM     26  C   UNL     1      -4.955  16.202  23.241  0.00  0.00    +0.000 A 
ATOM     27  C   UNL     1      -4.520  16.650  24.503  0.00  0.00    +0.000 A 
ATOM     28  C   UNL     1      -5.146  17.739  25.180  0.00  0.00    +0.000 A 
ATOM     29  C   UNL     1      -6.208  18.382  24.579  0.00  0.00    +0.000 A 
ATOM     30  N   UNL     1      -6.653  18.019  23.367  0.00  0.00    +0.000 NA
ATOM     31  C   UNL     1      -6.023  16.961  22.731  0.00  0.00    +0.000 A 
ENDBRANCH  25  26
ENDBRANCH  10  24
TORSDOF 5
ENDMDL
MODEL 4
REMARK VINA RESULT:      -7.4      1.423      1.684
REMARK  Name = 
REMARK  6 active torsions:
REMARK  status: ('A' for Active; 'I' for Inactive)
REMARK    1  A    between atoms: C_1  and  C_2
REMARK    2  A    between atoms: C_2  and  C_3
REMARK    3  A    between atoms: C_2  and  C_5
REMARK    4  A    between atoms: C_8  and  N_9
REMARK    5  A    between atoms: C_18  and  C_19
REMARK    6  A    between atoms: C_20  and  C_21
REMARK                            x       y       z     vdW  Elec       q    Type
REMARK                         _______ _______ _______ _____ _____    ______ ____
ROOT
ATOM      1  N   UNL     1       1.384   9.731  18.873  0.00  0.00    +0.000 N 
ATOM      2  C   UNL     1       2.216  10.448  17.972  0.00  0.00    +0.000 A 
ATOM      3  N   UNL     1       2.220  11.739  18.180  0.00  0.00    +0.000 NA
ATOM      4  C   UNL     1       1.350  11.844  19.208  0.00  0.00    +0.000 A 
ATOM      5  C   UNL     1       1.472  12.575  20.391  0.00  0.00    +0.000 A 
ATOM      6  N   UNL     1       0.786  12.122  21.490  0.00  0.00    +0.000 NA
ATOM      7  C   UNL     1      -0.382  11.496  21.334  0.00  0.00    +0.000 A 
ATOM      8  C   UNL     1      -1.241  11.633  22.416  0.00  0.00    +0.000 A 
ATOM      9  C   UNL     1      -2.428  12.367  22.340  0.00  0.00    +0.000 A 
ATOM     10  C   UNL     1      -2.823  12.978  21.143  0.00  0.00    +0.000 A 
ATOM     11  C   UNL     1      -2.077  12.428  19.993  0.00  0.00    +0.000 A 
ATOM     12  C   UNL     1      -0.873  11.396  20.064  0.00  0.00    +0.000 A 
ATOM     13  C   UNL     1       0.305  10.855  19.148  0.00  0.00    +0.000 A 
ENDROOT
BRANCH   1  17
ATOM     14  C   UNL     1       2.598   5.128  19.282  0.00  0.00    +0.000 A 
ATOM     15  C   UNL     1       2.613   5.891  18.093  0.00  0.00    +0.000 A 
ATOM     16  C   UNL     1       2.228   7.363  18.018  0.00  0.00    +0.000 A 
ATOM     17  C   UNL     1       1.795   8.223  19.112  0.00  0.00    +0.000 A 
ATOM     18  C   UNL     1       1.795   7.477  20.293  0.00  0.00    +0.000 A 
ATOM     19  C   UNL     1       2.165   5.985  20.365  0.00  0.00    +0.000 A 
BRANCH  14  21
ATOM     20  C   UNL     1       4.564   3.238  19.397  0.00  0.00    +0.000 C 
ATOM     21  C   UNL     1       3.057   3.388  19.443  0.00  0.00    +0.000 C 
BRANCH  21  22
ATOM     22  C   UNL     1       2.511   3.005  20.809  0.00  0.00    +0.000 C 
ATOM     23  N   UNL     1       2.059   2.688  21.942  0.00  0.00    +0.000 NA
ENDBRANCH  21  22
ENDBRANCH  14  21
ENDBRANCH   1  17
BRANCH  10  24
ATOM     24  C   UNL     1      -3.827  14.121  21.370  0.00  0.00    +0.000 C 
ATOM     25  C   UNL     1      -4.537  15.033  21.845  0.00  0.00    +0.000 C 
BRANCH  25  26
ATOM     26  C   UNL     1      -5.347  16.099  22.536  0.00  0.00    +0.000 A 
ATOM     27  C   UNL     1      -6.749  16.041  22.653  0.00  0.00    +0.000 A 
ATOM     28  C   UNL     1      -7.499  17.061  23.311  0.00  0.00    +0.000 A 
ATOM     29  C   UNL     1      -6.833  18.137  23.859  0.00  0.00    +0.000 A 
ATOM     30  N   UNL     1      -5.497  18.238  23.802  0.00  0.00    +0.000 NA
ATOM     31  C   UNL     1      -4.793  17.230  23.161  0.00  0.00    +0.000 A 
ENDBRANCH  25  26
ENDBRANCH  10  24
TORSDOF 5
ENDMDL
MODEL 5
REMARK VINA RESULT:      -7.3      1.990     11.779
REMARK  Name = 
REMARK  6 active torsions:
REMARK  status: ('A' for Active; 'I' for Inactive)
REMARK    1  A    between atoms: C_1  and  C_2
REMARK    2  A    between atoms: C_2  and  C_3
REMARK    3  A    between atoms: C_2  and  C_5
REMARK    4  A    between atoms: C_8  and  N_9
REMARK    5  A    between atoms: C_18  and  C_19
REMARK    6  A    between atoms: C_20  and  C_21
REMARK                            x       y       z     vdW  Elec       q    Type
REMARK                         _______ _______ _______ _____ _____    ______ ____
ROOT
ATOM      1  N   UNL     1      -1.110  12.795  21.703  0.00  0.00    +0.000 N 
ATOM      2  C   UNL     1      -0.239  13.725  22.331  0.00  0.00    +0.000 A 
ATOM      3  N   UNL     1       0.945  13.783  21.782  0.00  0.00    +0.000 NA
ATOM      4  C   UNL     1       0.834  12.850  20.812  0.00  0.00    +0.000 A 
ATOM      5  C   UNL     1       1.214  12.927  19.470  0.00  0.00    +0.000 A 
ATOM      6  N   UNL     1       0.534  12.142  18.573  0.00  0.00    +0.000 NA
ATOM      7  C   UNL     1       0.056  10.956  18.955  0.00  0.00    +0.000 A 
ATOM      8  C   UNL     1      -0.040  10.031  17.925  0.00  0.00    +0.000 A 
ATOM      9  C   UNL     1       0.770   8.893  17.863  0.00  0.00    +0.000 A 
ATOM     10  C   UNL     1       1.704   8.617  18.870  0.00  0.00    +0.000 A 
ATOM     11  C   UNL     1       1.429   9.412  20.084  0.00  0.00    +0.000 A 
ATOM     12  C   UNL     1       0.333  10.551  20.230  0.00  0.00    +0.000 A 
ATOM     13  C   UNL     1      -0.026  11.760  21.193  0.00  0.00    +0.000 A 
ENDROOT
BRANCH   1  17
ATOM     14  C   UNL     1      -5.773  13.545  22.426  0.00  0.00    +0.000 A 
ATOM     15  C   UNL     1      -4.858  13.016  23.365  0.00  0.00    +0.000 A 
ATOM     16  C   UNL     1      -3.375  12.808  23.088  0.00  0.00    +0.000 A 
ATOM     17  C   UNL     1      -2.653  13.106  21.859  0.00  0.00    +0.000 A 
ATOM     18  C   UNL     1      -3.549  13.644  20.933  0.00  0.00    +0.000 A 
ATOM     19  C   UNL     1      -5.052  13.836  21.206  0.00  0.00    +0.000 A 
BRANCH  14  21
ATOM     20  C   UNL     1      -7.915  13.470  24.118  0.00  0.00    +0.000 C 
ATOM     21  C   UNL     1      -7.536  13.831  22.695  0.00  0.00    +0.000 C 
BRANCH  21  22
ATOM     22  C   UNL     1      -7.691  15.324  22.452  0.00  0.00    +0.000 C 
ATOM     23  N   UNL     1      -7.819  16.561  22.251  0.00  0.00    +0.000 NA
ENDBRANCH  21  22
ENDBRANCH  14  21
ENDBRANCH   1  17
BRANCH  10  24
ATOM     24  C   UNL     1       2.814   7.663  18.397  0.00  0.00    +0.000 C 
ATOM     25  C   UNL     1       3.576   6.922  17.739  0.00  0.00    +0.000 C 
BRANCH  25  26
ATOM     26  C   UNL     1       4.411   6.045  16.844  0.00  0.00    +0.000 A 
ATOM     27  C   UNL     1       4.432   4.641  16.949  0.00  0.00    +0.000 A 
ATOM     28  C   UNL     1       5.232   3.827  16.091  0.00  0.00    +0.000 A 
ATOM     29  C   UNL     1       6.005   4.430  15.122  0.00  0.00    +0.000 A 
ATOM     30  N   UNL     1       6.010   5.761  14.956  0.00  0.00    +0.000 NA
ATOM     31  C   UNL     1       5.221   6.527  15.799  0.00  0.00    +0.000 A 
ENDBRANCH  25  26
ENDBRANCH  10  24
TORSDOF 5
ENDMDL
MODEL 6
REMARK VINA RESULT:      -7.3      2.657     11.747
REMARK  Name = 
REMARK  6 active torsions:
REMARK  status: ('A' for Active; 'I' for Inactive)
REMARK    1  A    between atoms: C_1  and  C_2
REMARK    2  A    between atoms: C_2  and  C_3
REMARK    3  A    between atoms: C_2  and  C_5
REMARK    4  A    between atoms: C_8  and  N_9
REMARK    5  A    between atoms: C_18  and  C_19
REMARK    6  A    between atoms: C_20  and  C_21
REMARK                            x       y       z     vdW  Elec       q    Type
REMARK                         _______ _______ _______ _____ _____    ______ ____
ROOT
ATOM      1  N   UNL     1      -2.091  12.227  21.392  0.00  0.00    +0.000 N 
ATOM      2  C   UNL     1      -1.750  12.471  22.750  0.00  0.00    +0.000 A 
ATOM      3  N   UNL     1      -0.481  12.294  23.009  0.00  0.00    +0.000 NA
ATOM      4  C   UNL     1      -0.017  11.898  21.803  0.00  0.00    +0.000 A 
ATOM      5  C   UNL     1       1.121  12.326  21.116  0.00  0.00    +0.000 A 
ATOM      6  N   UNL     1       1.105  12.237  19.747  0.00  0.00    +0.000 NA
ATOM      7  C   UNL     1       0.424  11.256  19.152  0.00  0.00    +0.000 A 
ATOM      8  C   UNL     1       0.939  10.885  17.917  0.00  0.00    +0.000 A 
ATOM      9  C   UNL     1       1.540   9.641  17.700  0.00  0.00    +0.000 A 
ATOM     10  C   UNL     1       1.622   8.691  18.727  0.00  0.00    +0.000 A 
ATOM     11  C   UNL     1       0.697   9.018  19.830  0.00  0.00    +0.000 A 
ATOM     12  C   UNL     1      -0.181  10.335  19.959  0.00  0.00    +0.000 A 
ATOM     13  C   UNL     1      -0.990  11.139  21.062  0.00  0.00    +0.000 A 
ENDROOT
BRANCH   1  17
ATOM     14  C   UNL     1      -5.994  14.323  19.602  0.00  0.00    +0.000 A 
ATOM     15  C   UNL     1      -5.598  12.981  19.395  0.00  0.00    +0.000 A 
ATOM     16  C   UNL     1      -4.348  12.357  20.001  0.00  0.00    +0.000 A 
ATOM     17  C   UNL     1      -3.371  12.996  20.872  0.00  0.00    +0.000 A 
ATOM     18  C   UNL     1      -3.766  14.317  21.093  0.00  0.00    +0.000 A 
ATOM     19  C   UNL     1      -5.019  14.954  20.465  0.00  0.00    +0.000 A 
BRANCH  14  21
ATOM     20  C   UNL     1      -7.648  16.494  19.542  0.00  0.00    +0.000 C 
ATOM     21  C   UNL     1      -7.468  15.119  18.928  0.00  0.00    +0.000 C 
BRANCH  21  22
ATOM     22  C   UNL     1      -7.165  15.221  17.442  0.00  0.00    +0.000 C 
ATOM     23  N   UNL     1      -6.914  15.305  16.210  0.00  0.00    +0.000 NA
ENDBRANCH  21  22
ENDBRANCH  14  21
ENDBRANCH   1  17
BRANCH  10  24
ATOM     24  C   UNL     1       2.724   7.649  18.476  0.00  0.00    +0.000 C 
ATOM     25  C   UNL     1       3.674   6.974  18.021  0.00  0.00    +0.000 C 
BRANCH  25  26
ATOM     26  C   UNL     1       4.813   6.239  17.365  0.00  0.00    +0.000 A 
ATOM     27  C   UNL     1       4.702   4.917  16.894  0.00  0.00    +0.000 A 
ATOM     28  C   UNL     1       5.794   4.236  16.276  0.00  0.00    +0.000 A 
ATOM     29  C   UNL     1       6.997   4.894  16.127  0.00  0.00    +0.000 A 
ATOM     30  N   UNL     1       7.159   6.162  16.533  0.00  0.00    +0.000 NA
ATOM     31  C   UNL     1       6.080   6.800  17.125  0.00  0.00    +0.000 A 
ENDBRANCH  25  26
ENDBRANCH  10  24
TORSDOF 5
ENDMDL
MODEL 7
REMARK VINA RESULT:      -7.3      1.690      1.987
REMARK  Name = 
REMARK  6 active torsions:
REMARK  status: ('A' for Active; 'I' for Inactive)
REMARK    1  A    between atoms: C_1  and  C_2
REMARK    2  A    between atoms: C_2  and  C_3
REMARK    3  A    between atoms: C_2  and  C_5
REMARK    4  A    between atoms: C_8  and  N_9
REMARK    5  A    between atoms: C_18  and  C_19
REMARK    6  A    between atoms: C_20  and  C_21
REMARK                            x       y       z     vdW  Elec       q    Type
REMARK                         _______ _______ _______ _____ _____    ______ ____
ROOT
ATOM      1  N   UNL     1       1.294   9.664  18.989  0.00  0.00    +0.000 N 
ATOM      2  C   UNL     1       2.091  10.386  18.061  0.00  0.00    +0.000 A 
ATOM      3  N   UNL     1       2.088  11.677  18.266  0.00  0.00    +0.000 NA
ATOM      4  C   UNL     1       1.248  11.777  19.319  0.00  0.00    +0.000 A 
ATOM      5  C   UNL     1       1.398  12.513  20.496  0.00  0.00    +0.000 A 
ATOM      6  N   UNL     1       0.750  12.056  21.616  0.00  0.00    +0.000 NA
ATOM      7  C   UNL     1      -0.416  11.417  21.496  0.00  0.00    +0.000 A 
ATOM      8  C   UNL     1      -1.243  11.549  22.603  0.00  0.00    +0.000 A 
ATOM      9  C   UNL     1      -2.440  12.270  22.561  0.00  0.00    +0.000 A 
ATOM     10  C   UNL     1      -2.877  12.874  21.374  0.00  0.00    +0.000 A 
ATOM     11  C   UNL     1      -2.160  12.329  20.204  0.00  0.00    +0.000 A 
ATOM     12  C   UNL     1      -0.943  11.308  20.241  0.00  0.00    +0.000 A 
ATOM     13  C   UNL     1       0.212  10.777  19.292  0.00  0.00    +0.000 A 
ENDROOT
BRANCH   1  17
ATOM     14  C   UNL     1       2.590   5.080  19.371  0.00  0.00    +0.000 A 
ATOM     15  C   UNL     1       2.638   5.865  18.196  0.00  0.00    +0.000 A 
ATOM     16  C   UNL     1       2.225   7.329  18.130  0.00  0.00    +0.000 A 
ATOM     17  C   UNL     1       1.727   8.160  19.219  0.00  0.00    +0.000 A 
ATOM     18  C   UNL     1       1.694   7.394  20.386  0.00  0.00    +0.000 A 
ATOM     19  C   UNL     1       2.093   5.909  20.449  0.00  0.00    +0.000 A 
BRANCH  14  21
ATOM     20  C   UNL     1       4.591   3.230  19.535  0.00  0.00    +0.000 C 
ATOM     21  C   UNL     1       3.080   3.348  19.521  0.00  0.00    +0.000 C 
BRANCH  21  22
ATOM     22  C   UNL     1       2.488   2.930  20.858  0.00  0.00    +0.000 C 
ATOM     23  N   UNL     1       1.997   2.584  21.966  0.00  0.00    +0.000 NA
ENDBRANCH  21  22
ENDBRANCH  14  21
ENDBRANCH   1  17
BRANCH  10  24
ATOM     24  C   UNL     1      -3.885  14.007  21.627  0.00  0.00    +0.000 C 
ATOM     25  C   UNL     1      -4.621  15.014  21.548  0.00  0.00    +0.000 C 
BRANCH  25  26
ATOM     26  C   UNL     1      -5.448  16.256  21.338  0.00  0.00    +0.000 A 
ATOM     27  C   UNL     1      -6.525  16.315  20.432  0.00  0.00    +0.000 A 
ATOM     28  C   UNL     1      -7.297  17.501  20.246  0.00  0.00    +0.000 A 
ATOM     29  C   UNL     1      -6.986  18.626  20.980  0.00  0.00    +0.000 A 
ATOM     30  N   UNL     1      -5.988  18.626  21.876  0.00  0.00    +0.000 NA
ATOM     31  C   UNL     1      -5.258  17.459  22.039  0.00  0.00    +0.000 A 
ENDBRANCH  25  26
ENDBRANCH  10  24
TORSDOF 5
ENDMDL
MODEL 8
REMARK VINA RESULT:      -7.3      1.796      2.188
REMARK  Name = 
REMARK  6 active torsions:
REMARK  status: ('A' for Active; 'I' for Inactive)
REMARK    1  A    between atoms: C_1  and  C_2
REMARK    2  A    between atoms: C_2  and  C_3
REMARK    3  A    between atoms: C_2  and  C_5
REMARK    4  A    between atoms: C_8  and  N_9
REMARK    5  A    between atoms: C_18  and  C_19
REMARK    6  A    between atoms: C_20  and  C_21
REMARK                            x       y       z     vdW  Elec       q    Type
REMARK                         _______ _______ _______ _____ _____    ______ ____
ROOT
ATOM      1  N   UNL     1       1.342   9.419  19.045  0.00  0.00    +0.000 N 
ATOM      2  C   UNL     1       2.129  10.042  18.041  0.00  0.00    +0.000 A 
ATOM      3  N   UNL     1       2.125  11.348  18.111  0.00  0.00    +0.000 NA
ATOM      4  C   UNL     1       1.294  11.554  19.155  0.00  0.00    +0.000 A 
ATOM      5  C   UNL     1       1.452  12.408  20.248  0.00  0.00    +0.000 A 
ATOM      6  N   UNL     1       0.814  12.069  21.415  0.00  0.00    +0.000 NA
ATOM      7  C   UNL     1      -0.351  11.420  21.372  0.00  0.00    +0.000 A 
ATOM      8  C   UNL     1      -1.170  11.664  22.466  0.00  0.00    +0.000 A 
ATOM      9  C   UNL     1      -2.369  12.376  22.359  0.00  0.00    +0.000 A 
ATOM     10  C   UNL     1      -2.816  12.853  21.120  0.00  0.00    +0.000 A 
ATOM     11  C   UNL     1      -2.108  12.190  20.007  0.00  0.00    +0.000 A 
ATOM     12  C   UNL     1      -0.889  11.181  20.139  0.00  0.00    +0.000 A 
ATOM     13  C   UNL     1       0.260  10.556  19.241  0.00  0.00    +0.000 A 
ENDROOT
BRANCH   1  17
ATOM     14  C   UNL     1       2.740   4.928  19.892  0.00  0.00    +0.000 A 
ATOM     15  C   UNL     1       3.055   5.698  18.749  0.00  0.00    +0.000 A 
ATOM     16  C   UNL     1       2.594   7.133  18.533  0.00  0.00    +0.000 A 
ATOM     17  C   UNL     1       1.780   7.947  19.426  0.00  0.00    +0.000 A 
ATOM     18  C   UNL     1       1.480   7.197  20.565  0.00  0.00    +0.000 A 
ATOM     19  C   UNL     1       1.929   5.740  20.775  0.00  0.00    +0.000 A 
BRANCH  14  21
ATOM     20  C   UNL     1       2.465   2.645  21.363  0.00  0.00    +0.000 C 
ATOM     21  C   UNL     1       3.266   3.232  20.217  0.00  0.00    +0.000 C 
BRANCH  21  22
ATOM     22  C   UNL     1       2.960   2.512  18.913  0.00  0.00    +0.000 C 
ATOM     23  N   UNL     1       2.706   1.916  17.832  0.00  0.00    +0.000 NA
ENDBRANCH  21  22
ENDBRANCH  14  21
ENDBRANCH   1  17
BRANCH  10  24
ATOM     24  C   UNL     1      -3.825  14.005  21.264  0.00  0.00    +0.000 C 
ATOM     25  C   UNL     1      -4.714  14.866  21.088  0.00  0.00    +0.000 C 
BRANCH  25  26
ATOM     26  C   UNL     1      -5.788  15.866  20.750  0.00  0.00    +0.000 A 
ATOM     27  C   UNL     1      -6.111  16.226  19.427  0.00  0.00    +0.000 A 
ATOM     28  C   UNL     1      -7.132  17.177  19.126  0.00  0.00    +0.000 A 
ATOM     29  C   UNL     1      -7.833  17.760  20.161  0.00  0.00    +0.000 A 
ATOM     30  N   UNL     1      -7.589  17.441  21.441  0.00  0.00    +0.000 NA
ATOM     31  C   UNL     1      -6.595  16.511  21.704  0.00  0.00    +0.000 A 
ENDBRANCH  25  26
ENDBRANCH  10  24
TORSDOF 5
ENDMDL
MODEL 9
REMARK VINA RESULT:      -7.3      1.466      1.803
REMARK  Name = 
REMARK  6 active torsions:
REMARK  status: ('A' for Active; 'I' for Inactive)
REMARK    1  A    between atoms: C_1  and  C_2
REMARK    2  A    between atoms: C_2  and  C_3
REMARK    3  A    between atoms: C_2  and  C_5
REMARK    4  A    between atoms: C_8  and  N_9
REMARK    5  A    between atoms: C_18  and  C_19
REMARK    6  A    between atoms: C_20  and  C_21
REMARK                            x       y       z     vdW  Elec       q    Type
REMARK                         _______ _______ _______ _____ _____    ______ ____
ROOT
ATOM      1  N   UNL     1       1.336   9.838  18.815  0.00  0.00    +0.000 N 
ATOM      2  C   UNL     1       2.107  10.656  17.946  0.00  0.00    +0.000 A 
ATOM      3  N   UNL     1       2.104  11.920  18.281  0.00  0.00    +0.000 NA
ATOM      4  C   UNL     1       1.289  11.906  19.358  0.00  0.00    +0.000 A 
ATOM      5  C   UNL     1       1.464  12.520  20.600  0.00  0.00    +0.000 A 
ATOM      6  N   UNL     1       0.845  11.948  21.683  0.00  0.00    +0.000 NA
ATOM      7  C   UNL     1      -0.321  11.317  21.527  0.00  0.00    +0.000 A 
ATOM      8  C   UNL     1      -1.121  11.331  22.660  0.00  0.00    +0.000 A 
ATOM      9  C   UNL     1      -2.322  12.045  22.720  0.00  0.00    +0.000 A 
ATOM     10  C   UNL     1      -2.789  12.763  21.611  0.00  0.00    +0.000 A 
ATOM     11  C   UNL     1      -2.098  12.344  20.375  0.00  0.00    +0.000 A 
ATOM     12  C   UNL     1      -0.877  11.333  20.280  0.00  0.00    +0.000 A 
ATOM     13  C   UNL     1       0.257  10.908  19.255  0.00  0.00    +0.000 A 
ENDROOT
BRANCH   1  17
ATOM     14  C   UNL     1       2.667   5.278  19.330  0.00  0.00    +0.000 A 
ATOM     15  C   UNL     1       2.054   6.084  20.317  0.00  0.00    +0.000 A 
ATOM     16  C   UNL     1       1.637   7.532  20.097  0.00  0.00    +0.000 A 
ATOM     17  C   UNL     1       1.781   8.322  18.881  0.00  0.00    +0.000 A 
ATOM     18  C   UNL     1       2.371   7.524  17.898  0.00  0.00    +0.000 A 
ATOM     19  C   UNL     1       2.810   6.067  18.125  0.00  0.00    +0.000 A 
BRANCH  14  21
ATOM     20  C   UNL     1       4.680   3.437  19.442  0.00  0.00    +0.000 C 
ATOM     21  C   UNL     1       3.170   3.554  19.519  0.00  0.00    +0.000 C 
BRANCH  21  22
ATOM     22  C   UNL     1       2.666   3.190  20.907  0.00  0.00    +0.000 C 
ATOM     23  N   UNL     1       2.247   2.889  22.057  0.00  0.00    +0.000 NA
ENDBRANCH  21  22
ENDBRANCH  14  21
ENDBRANCH   1  17
BRANCH  10  24
ATOM     24  C   UNL     1      -3.796  13.858  22.002  0.00  0.00    +0.000 C 
ATOM     25  C   UNL     1      -4.630  14.789  22.013  0.00  0.00    +0.000 C 
BRANCH  25  26
ATOM     26  C   UNL     1      -5.616  15.922  21.896  0.00  0.00    +0.000 A 
ATOM     27  C   UNL     1      -5.314  17.243  22.280  0.00  0.00    +0.000 A 
ATOM     28  C   UNL     1      -6.262  18.303  22.163  0.00  0.00    +0.000 A 
ATOM     29  C   UNL     1      -7.513  18.032  21.650  0.00  0.00    +0.000 A 
ATOM     30  N   UNL     1      -7.853  16.800  21.245  0.00  0.00    +0.000 NA
ATOM     31  C   UNL     1      -6.911  15.790  21.366  0.00  0.00    +0.000 A 
ENDBRANCH  25  26
ENDBRANCH  10  24
TORSDOF 5
ENDMDL
