MODEL 1
REMARK VINA RESULT:      -7.5      0.000      0.000
REMARK  Name = 
REMARK  16 active torsions:
REMARK  status: ('A' for Active; 'I' for Inactive)
REMARK    1  A    between atoms: N_6  and  C_7
REMARK    2  A    between atoms: C_13  and  C_14
REMARK    3  A    between atoms: C_15  and  C_16
REMARK    4  A    between atoms: C_16  and  N_17
REMARK    5  A    between atoms: N_17  and  S_18
REMARK    6  A    between atoms: S_18  and  C_21
REMARK    7  A    between atoms: C_21  and  C_23
REMARK    8  A    between atoms: C_23  and  O_24
REMARK    9  A    between atoms: C_23  and  C_25
REMARK   10  A    between atoms: C_25  and  O_26
REMARK   11  A    between atoms: C_25  and  C_27
REMARK   12  A    between atoms: C_27  and  O_28
REMARK   13  A    between atoms: C_27  and  C_29
REMARK   14  A    between atoms: C_29  and  O_30
REMARK   15  A    between atoms: C_29  and  C_31
REMARK   16  A    between atoms: C_31  and  O_32
REMARK                            x       y       z     vdW  Elec       q    Type
REMARK                         _______ _______ _______ _____ _____    ______ ____
ROOT
ATOM      1  N   UNL     1       6.760   7.755  17.126  0.00  0.00    +0.000 NA
ATOM      2  H   UNL     1       6.790   8.378  16.316  0.00  0.00    +0.000 HD
ENDROOT
BRANCH   1   3
ATOM      3  S   UNL     1       6.528   6.133  16.603  0.00  0.00    +0.000 S 
ATOM      4  O   UNL     1       5.139   6.005  16.215  0.00  0.00    +0.000 OA
ATOM      5  O   UNL     1       7.595   5.802  15.683  0.00  0.00    +0.000 OA
BRANCH   3   6
ATOM      6  C   UNL     1       6.756   5.027  18.034  0.00  0.00    +0.000 C 
ATOM      7  O   UNL     1       7.839   4.422  18.072  0.00  0.00    +0.000 OA
BRANCH   6   8
ATOM      8  C   UNL     1       5.713   4.785  19.144  0.00  0.00    +0.000 C 
BRANCH   8   9
ATOM      9  O   UNL     1       4.913   5.960  19.310  0.00  0.00    +0.000 OA
ATOM     10  H   UNL     1       4.567   6.194  18.421  0.00  0.00    +0.000 HD
ENDBRANCH   8   9
BRANCH   8  11
ATOM     11  C   UNL     1       4.828   3.568  18.806  0.00  0.00    +0.000 C 
BRANCH  11  12
ATOM     12  O   UNL     1       5.139   3.164  17.469  0.00  0.00    +0.000 OA
ATOM     13  H   UNL     1       4.721   3.797  16.860  0.00  0.00    +0.000 HD
ENDBRANCH  11  12
BRANCH  11  14
ATOM     14  C   UNL     1       3.296   3.831  18.989  0.00  0.00    +0.000 C 
BRANCH  14  15
ATOM     15  O   UNL     1       2.736   4.540  17.873  0.00  0.00    +0.000 OA
ATOM     16  H   UNL     1       3.240   5.373  17.799  0.00  0.00    +0.000 HD
ENDBRANCH  14  15
BRANCH  14  17
ATOM     17  C   UNL     1       2.461   2.540  19.190  0.00  0.00    +0.000 C 
BRANCH  17  18
ATOM     18  O   UNL     1       2.548   1.732  18.005  0.00  0.00    +0.000 OA
ATOM     19  H   UNL     1       3.502   1.585  17.838  0.00  0.00    +0.000 HD
ENDBRANCH  17  18
BRANCH  17  20
ATOM     20  C   UNL     1       0.967   2.833  19.440  0.00  0.00    +0.000 C 
BRANCH  20  21
ATOM     21  O   UNL     1       0.164   2.187  18.451  0.00  0.00    +0.000 OA
ATOM     22  H   UNL     1      -0.769   2.406  18.655  0.00  0.00    +0.000 HD
ENDBRANCH  20  21
ENDBRANCH  17  20
ENDBRANCH  14  17
ENDBRANCH  11  14
ENDBRANCH   8  11
ENDBRANCH   6   8
ENDBRANCH   3   6
ENDBRANCH   1   3
BRANCH   1  23
ATOM     23  C   UNL     1       7.950   7.867  17.983  0.00  0.00    +0.000 C 
BRANCH  23  25
ATOM     24  C   UNL     1       8.976  10.485  18.229  0.00  0.00    +0.000 C 
ATOM     25  C   UNL     1       8.502   9.276  18.116  0.00  0.00    +0.000 C 
BRANCH  24  33
ATOM     26  N   UNL     1      11.780  11.290  17.488  0.00  0.00    +0.000 N 
ATOM     27  C   UNL     1      10.927  12.242  17.992  0.00  0.00    +0.000 A 
ATOM     28  N   UNL     1      11.410  13.438  18.120  0.00  0.00    +0.000 NA
ATOM     29  C   UNL     1      10.636  14.448  18.641  0.00  0.00    +0.000 A 
ATOM     30  O   UNL     1      11.113  15.571  18.798  0.00  0.00    +0.000 OA
ATOM     31  N   UNL     1       9.312  14.164  19.007  0.00  0.00    +0.000 N 
ATOM     32  C   UNL     1       8.791  12.893  18.851  0.00  0.00    +0.000 A 
ATOM     33  C   UNL     1       9.529  11.896  18.361  0.00  0.00    +0.000 A 
ATOM     34  H   UNL     1      12.592  11.688  17.027  0.00  0.00    +0.000 HD
ATOM     35  H   UNL     1      11.374  10.495  17.013  0.00  0.00    +0.000 HD
BRANCH  31  36
ATOM     36  C   UNL     1       8.525  15.234  19.610  0.00  0.00    +0.000 C 
ATOM     37  C   UNL     1       7.333  14.745  20.437  0.00  0.00    +0.000 C 
ATOM     38  C   UNL     1       6.468  15.970  20.690  0.00  0.00    +0.000 C 
ATOM     39  C   UNL     1       6.267  16.664  19.350  0.00  0.00    +0.000 C 
ATOM     40  S   UNL     1       7.781  16.369  18.394  0.00  0.00    +0.000 S 
ENDBRANCH  31  36
ENDBRANCH  24  33
ENDBRANCH  23  25
ENDBRANCH   1  23
TORSDOF 16
ENDMDL
MODEL 2
REMARK VINA RESULT:      -7.3      1.775      2.059
REMARK  Name = 
REMARK  16 active torsions:
REMARK  status: ('A' for Active; 'I' for Inactive)
REMARK    1  A    between atoms: N_6  and  C_7
REMARK    2  A    between atoms: C_13  and  C_14
REMARK    3  A    between atoms: C_15  and  C_16
REMARK    4  A    between atoms: C_16  and  N_17
REMARK    5  A    between atoms: N_17  and  S_18
REMARK    6  A    between atoms: S_18  and  C_21
REMARK    7  A    between atoms: C_21  and  C_23
REMARK    8  A    between atoms: C_23  and  O_24
REMARK    9  A    between atoms: C_23  and  C_25
REMARK   10  A    between atoms: C_25  and  O_26
REMARK   11  A    between atoms: C_25  and  C_27
REMARK   12  A    between atoms: C_27  and  O_28
REMARK   13  A    between atoms: C_27  and  C_29
REMARK   14  A    between atoms: C_29  and  O_30
REMARK   15  A    between atoms: C_29  and  C_31
REMARK   16  A    between atoms: C_31  and  O_32
REMARK                            x       y       z     vdW  Elec       q    Type
REMARK                         _______ _______ _______ _____ _____    ______ ____
ROOT
ATOM      1  N   UNL     1       7.958   6.599  17.972  0.00  0.00    +0.000 NA
ATOM      2  H   UNL     1       7.683   6.436  18.944  0.00  0.00    +0.000 HD
ENDROOT
BRANCH   1   3
ATOM      3  S   UNL     1       7.425   5.291  16.991  0.00  0.00    +0.000 S 
ATOM      4  O   UNL     1       7.392   5.768  15.624  0.00  0.00    +0.000 OA
ATOM      5  O   UNL     1       8.189   4.117  17.355  0.00  0.00    +0.000 OA
BRANCH   3   6
ATOM      6  C   UNL     1       5.699   4.905  17.431  0.00  0.00    +0.000 C 
ATOM      7  O   UNL     1       5.059   4.275  16.575  0.00  0.00    +0.000 OA
BRANCH   6   8
ATOM      8  C   UNL     1       5.003   5.319  18.743  0.00  0.00    +0.000 C 
BRANCH   8   9
ATOM      9  O   UNL     1       3.930   6.220  18.450  0.00  0.00    +0.000 OA
ATOM     10  H   UNL     1       3.417   6.325  19.281  0.00  0.00    +0.000 HD
ENDBRANCH   8   9
BRANCH   8  11
ATOM     11  C   UNL     1       4.482   4.080  19.500  0.00  0.00    +0.000 C 
BRANCH  11  12
ATOM     12  O   UNL     1       5.218   2.946  19.033  0.00  0.00    +0.000 OA
ATOM     13  H   UNL     1       6.050   3.269  18.647  0.00  0.00    +0.000 HD
ENDBRANCH  11  12
BRANCH  11  14
ATOM     14  C   UNL     1       2.937   3.863  19.368  0.00  0.00    +0.000 C 
BRANCH  14  15
ATOM     15  O   UNL     1       2.511   3.865  17.997  0.00  0.00    +0.000 OA
ATOM     16  H   UNL     1       3.246   4.249  17.484  0.00  0.00    +0.000 HD
ENDBRANCH  14  15
BRANCH  14  17
ATOM     17  C   UNL     1       2.435   2.546  20.013  0.00  0.00    +0.000 C 
BRANCH  17  18
ATOM     18  O   UNL     1       2.252   1.557  18.986  0.00  0.00    +0.000 OA
ATOM     19  H   UNL     1       2.646   0.728  19.325  0.00  0.00    +0.000 HD
ENDBRANCH  17  18
BRANCH  17  20
ATOM     20  C   UNL     1       1.083   2.718  20.736  0.00  0.00    +0.000 C 
BRANCH  20  21
ATOM     21  O   UNL     1       0.487   3.967  20.381  0.00  0.00    +0.000 OA
ATOM     22  H   UNL     1       0.428   3.985  19.403  0.00  0.00    +0.000 HD
ENDBRANCH  20  21
ENDBRANCH  17  20
ENDBRANCH  14  17
ENDBRANCH  11  14
ENDBRANCH   8  11
ENDBRANCH   6   8
ENDBRANCH   3   6
ENDBRANCH   1   3
BRANCH   1  23
ATOM     23  C   UNL     1       7.475   7.883  17.445  0.00  0.00    +0.000 C 
BRANCH  23  25
ATOM     24  C   UNL     1       8.808  10.149  18.475  0.00  0.00    +0.000 C 
ATOM     25  C   UNL     1       8.192   9.103  17.999  0.00  0.00    +0.000 C 
BRANCH  24  33
ATOM     26  N   UNL     1      11.264  11.380  17.247  0.00  0.00    +0.000 N 
ATOM     27  C   UNL     1      10.746  11.934  18.392  0.00  0.00    +0.000 A 
ATOM     28  N   UNL     1      11.374  12.961  18.870  0.00  0.00    +0.000 NA
ATOM     29  C   UNL     1      10.941  13.564  20.027  0.00  0.00    +0.000 A 
ATOM     30  O   UNL     1      11.566  14.514  20.498  0.00  0.00    +0.000 OA
ATOM     31  N   UNL     1       9.798  13.060  20.664  0.00  0.00    +0.000 N 
ATOM     32  C   UNL     1       9.116  11.977  20.142  0.00  0.00    +0.000 A 
ATOM     33  C   UNL     1       9.526  11.369  19.029  0.00  0.00    +0.000 A 
ATOM     34  H   UNL     1      11.911  11.996  16.764  0.00  0.00    +0.000 HD
ATOM     35  H   UNL     1      10.635  10.872  16.640  0.00  0.00    +0.000 HD
BRANCH  31  36
ATOM     36  C   UNL     1       9.387  13.678  21.920  0.00  0.00    +0.000 C 
ATOM     37  C   UNL     1       8.735  12.708  22.911  0.00  0.00    +0.000 C 
ATOM     38  C   UNL     1       8.089  13.576  23.980  0.00  0.00    +0.000 C 
ATOM     39  C   UNL     1       7.270  14.640  23.264  0.00  0.00    +0.000 C 
ATOM     40  S   UNL     1       8.149  14.998  21.716  0.00  0.00    +0.000 S 
ENDBRANCH  31  36
ENDBRANCH  24  33
ENDBRANCH  23  25
ENDBRANCH   1  23
TORSDOF 16
ENDMDL
MODEL 3
REMARK VINA RESULT:      -7.2      1.771      2.188
REMARK  Name = 
REMARK  16 active torsions:
REMARK  status: ('A' for Active; 'I' for Inactive)
REMARK    1  A    between atoms: N_6  and  C_7
REMARK    2  A    between atoms: C_13  and  C_14
REMARK    3  A    between atoms: C_15  and  C_16
REMARK    4  A    between atoms: C_16  and  N_17
REMARK    5  A    between atoms: N_17  and  S_18
REMARK    6  A    between atoms: S_18  and  C_21
REMARK    7  A    between atoms: C_21  and  C_23
REMARK    8  A    between atoms: C_23  and  O_24
REMARK    9  A    between atoms: C_23  and  C_25
REMARK   10  A    between atoms: C_25  and  O_26
REMARK   11  A    between atoms: C_25  and  C_27
REMARK   12  A    between atoms: C_27  and  O_28
REMARK   13  A    between atoms: C_27  and  C_29
REMARK   14  A    between atoms: C_29  and  O_30
REMARK   15  A    between atoms: C_29  and  C_31
REMARK   16  A    between atoms: C_31  and  O_32
REMARK                            x       y       z     vdW  Elec       q    Type
REMARK                         _______ _______ _______ _____ _____    ______ ____
ROOT
ATOM      1  N   UNL     1       7.914   6.794  18.176  0.00  0.00    +0.000 NA
ATOM      2  H   UNL     1       7.636   6.820  19.160  0.00  0.00    +0.000 HD
ENDROOT
BRANCH   1   3
ATOM      3  S   UNL     1       7.186   5.440  17.404  0.00  0.00    +0.000 S 
ATOM      4  O   UNL     1       6.477   5.941  16.245  0.00  0.00    +0.000 OA
ATOM      5  O   UNL     1       8.190   4.405  17.276  0.00  0.00    +0.000 OA
BRANCH   3   6
ATOM      6  C   UNL     1       5.916   4.754  18.516  0.00  0.00    +0.000 C 
ATOM      7  O   UNL     1       6.159   4.855  19.729  0.00  0.00    +0.000 OA
BRANCH   6   8
ATOM      8  C   UNL     1       4.618   4.060  18.059  0.00  0.00    +0.000 C 
BRANCH   8   9
ATOM      9  O   UNL     1       4.428   2.859  18.814  0.00  0.00    +0.000 OA
ATOM     10  H   UNL     1       3.458   2.724  18.889  0.00  0.00    +0.000 HD
ENDBRANCH   8   9
BRANCH   8  11
ATOM     11  C   UNL     1       3.407   5.002  18.223  0.00  0.00    +0.000 C 
BRANCH  11  12
ATOM     12  O   UNL     1       3.436   5.515  19.559  0.00  0.00    +0.000 OA
ATOM     13  H   UNL     1       3.105   4.819  20.153  0.00  0.00    +0.000 HD
ENDBRANCH  11  12
BRANCH  11  14
ATOM     14  C   UNL     1       2.034   4.329  17.891  0.00  0.00    +0.000 C 
BRANCH  14  15
ATOM     15  O   UNL     1       2.174   3.265  16.937  0.00  0.00    +0.000 OA
ATOM     16  H   UNL     1       3.105   2.979  16.985  0.00  0.00    +0.000 HD
ENDBRANCH  14  15
BRANCH  14  17
ATOM     17  C   UNL     1       1.304   3.754  19.132  0.00  0.00    +0.000 C 
BRANCH  17  18
ATOM     18  O   UNL     1       2.237   3.646  20.220  0.00  0.00    +0.000 OA
ATOM     19  H   UNL     1       2.447   4.561  20.498  0.00  0.00    +0.000 HD
ENDBRANCH  17  18
BRANCH  17  20
ATOM     20  C   UNL     1       0.726   2.346  18.879  0.00  0.00    +0.000 C 
BRANCH  20  21
ATOM     21  O   UNL     1       1.774   1.376  18.862  0.00  0.00    +0.000 OA
ATOM     22  H   UNL     1       2.139   1.335  19.770  0.00  0.00    +0.000 HD
ENDBRANCH  20  21
ENDBRANCH  17  20
ENDBRANCH  14  17
ENDBRANCH  11  14
ENDBRANCH   8  11
ENDBRANCH   6   8
ENDBRANCH   3   6
ENDBRANCH   1   3
BRANCH   1  23
ATOM     23  C   UNL     1       7.606   8.038  17.457  0.00  0.00    +0.000 C 
BRANCH  23  25
ATOM     24  C   UNL     1       8.904  10.331  18.473  0.00  0.00    +0.000 C 
ATOM     25  C   UNL     1       8.305   9.272  18.004  0.00  0.00    +0.000 C 
BRANCH  24  33
ATOM     26  N   UNL     1      11.395  11.537  17.292  0.00  0.00    +0.000 N 
ATOM     27  C   UNL     1      10.841  12.117  18.407  0.00  0.00    +0.000 A 
ATOM     28  N   UNL     1      11.453  13.157  18.880  0.00  0.00    +0.000 NA
ATOM     29  C   UNL     1      10.984  13.787  20.008  0.00  0.00    +0.000 A 
ATOM     30  O   UNL     1      11.593  14.748  20.475  0.00  0.00    +0.000 OA
ATOM     31  N   UNL     1       9.822  13.295  20.622  0.00  0.00    +0.000 N 
ATOM     32  C   UNL     1       9.158  12.199  20.105  0.00  0.00    +0.000 A 
ATOM     33  C   UNL     1       9.603  11.566  19.019  0.00  0.00    +0.000 A 
ATOM     34  H   UNL     1      12.056  12.143  16.815  0.00  0.00    +0.000 HD
ATOM     35  H   UNL     1      10.786  11.014  16.678  0.00  0.00    +0.000 HD
BRANCH  31  36
ATOM     36  C   UNL     1       9.372  13.942  21.849  0.00  0.00    +0.000 C 
ATOM     37  C   UNL     1       8.890  12.968  22.929  0.00  0.00    +0.000 C 
ATOM     38  C   UNL     1       8.167  13.817  23.964  0.00  0.00    +0.000 C 
ATOM     39  C   UNL     1       7.189  14.709  23.213  0.00  0.00    +0.000 C 
ATOM     40  S   UNL     1       7.960  15.067  21.609  0.00  0.00    +0.000 S 
ENDBRANCH  31  36
ENDBRANCH  24  33
ENDBRANCH  23  25
ENDBRANCH   1  23
TORSDOF 16
ENDMDL
MODEL 4
REMARK VINA RESULT:      -7.2      1.696      2.139
REMARK  Name = 
REMARK  16 active torsions:
REMARK  status: ('A' for Active; 'I' for Inactive)
REMARK    1  A    between atoms: N_6  and  C_7
REMARK    2  A    between atoms: C_13  and  C_14
REMARK    3  A    between atoms: C_15  and  C_16
REMARK    4  A    between atoms: C_16  and  N_17
REMARK    5  A    between atoms: N_17  and  S_18
REMARK    6  A    between atoms: S_18  and  C_21
REMARK    7  A    between atoms: C_21  and  C_23
REMARK    8  A    between atoms: C_23  and  O_24
REMARK    9  A    between atoms: C_23  and  C_25
REMARK   10  A    between atoms: C_25  and  O_26
REMARK   11  A    between atoms: C_25  and  C_27
REMARK   12  A    between atoms: C_27  and  O_28
REMARK   13  A    between atoms: C_27  and  C_29
REMARK   14  A    between atoms: C_29  and  O_30
REMARK   15  A    between atoms: C_29  and  C_31
REMARK   16  A    between atoms: C_31  and  O_32
REMARK                            x       y       z     vdW  Elec       q    Type
REMARK                         _______ _______ _______ _____ _____    ______ ____
ROOT
ATOM      1  N   UNL     1       7.891   6.884  18.233  0.00  0.00    +0.000 NA
ATOM      2  H   UNL     1       7.491   6.876  19.174  0.00  0.00    +0.000 HD
ENDROOT
BRANCH   1   3
ATOM      3  S   UNL     1       7.323   5.521  17.351  0.00  0.00    +0.000 S 
ATOM      4  O   UNL     1       7.580   5.782  15.950  0.00  0.00    +0.000 OA
ATOM      5  O   UNL     1       7.831   4.328  17.994  0.00  0.00    +0.000 OA
BRANCH   3   6
ATOM      6  C   UNL     1       5.511   5.435  17.524  0.00  0.00    +0.000 C 
ATOM      7  O   UNL     1       4.873   6.279  16.876  0.00  0.00    +0.000 OA
BRANCH   6   8
ATOM      8  C   UNL     1       4.751   4.431  18.413  0.00  0.00    +0.000 C 
BRANCH   8   9
ATOM      9  O   UNL     1       5.523   4.152  19.585  0.00  0.00    +0.000 OA
ATOM     10  H   UNL     1       5.650   3.178  19.614  0.00  0.00    +0.000 HD
ENDBRANCH   8   9
BRANCH   8  11
ATOM     11  C   UNL     1       3.362   4.982  18.797  0.00  0.00    +0.000 C 
BRANCH  11  12
ATOM     12  O   UNL     1       3.439   5.448  20.147  0.00  0.00    +0.000 OA
ATOM     13  H   UNL     1       3.915   6.297  20.143  0.00  0.00    +0.000 HD
ENDBRANCH  11  12
BRANCH  11  14
ATOM     14  C   UNL     1       2.198   3.953  18.605  0.00  0.00    +0.000 C 
BRANCH  14  15
ATOM     15  O   UNL     1       1.979   3.643  17.220  0.00  0.00    +0.000 OA
ATOM     16  H   UNL     1       2.445   4.332  16.710  0.00  0.00    +0.000 HD
ENDBRANCH  14  15
BRANCH  14  17
ATOM     17  C   UNL     1       2.419   2.615  19.356  0.00  0.00    +0.000 C 
BRANCH  17  18
ATOM     18  O   UNL     1       2.011   1.527  18.511  0.00  0.00    +0.000 OA
ATOM     19  H   UNL     1       1.035   1.578  18.443  0.00  0.00    +0.000 HD
ENDBRANCH  17  18
BRANCH  17  20
ATOM     20  C   UNL     1       1.596   2.523  20.658  0.00  0.00    +0.000 C 
BRANCH  20  21
ATOM     21  O   UNL     1       0.316   3.130  20.477  0.00  0.00    +0.000 OA
ATOM     22  H   UNL     1      -0.245   2.837  21.225  0.00  0.00    +0.000 HD
ENDBRANCH  20  21
ENDBRANCH  17  20
ENDBRANCH  14  17
ENDBRANCH  11  14
ENDBRANCH   8  11
ENDBRANCH   6   8
ENDBRANCH   3   6
ENDBRANCH   1   3
BRANCH   1  23
ATOM     23  C   UNL     1       7.622   8.132  17.503  0.00  0.00    +0.000 C 
BRANCH  23  25
ATOM     24  C   UNL     1       8.989  10.391  18.503  0.00  0.00    +0.000 C 
ATOM     25  C   UNL     1       8.357   9.348  18.041  0.00  0.00    +0.000 C 
BRANCH  24  33
ATOM     26  N   UNL     1      11.552  11.473  17.355  0.00  0.00    +0.000 N 
ATOM     27  C   UNL     1      10.997  12.097  18.444  0.00  0.00    +0.000 A 
ATOM     28  N   UNL     1      11.639  13.122  18.910  0.00  0.00    +0.000 NA
ATOM     29  C   UNL     1      11.171  13.794  20.014  0.00  0.00    +0.000 A 
ATOM     30  O   UNL     1      11.807  14.740  20.475  0.00  0.00    +0.000 OA
ATOM     31  N   UNL     1       9.977  13.362  20.611  0.00  0.00    +0.000 N 
ATOM     32  C   UNL     1       9.281  12.282  20.101  0.00  0.00    +0.000 A 
ATOM     33  C   UNL     1       9.725  11.608  19.039  0.00  0.00    +0.000 A 
ATOM     34  H   UNL     1      12.246  12.041  16.880  0.00  0.00    +0.000 HD
ATOM     35  H   UNL     1      10.936  10.961  16.738  0.00  0.00    +0.000 HD
BRANCH  31  36
ATOM     36  C   UNL     1       9.527  14.051  21.815  0.00  0.00    +0.000 C 
ATOM     37  C   UNL     1       8.829  13.144  22.832  0.00  0.00    +0.000 C 
ATOM     38  C   UNL     1       8.152  14.074  23.827  0.00  0.00    +0.000 C 
ATOM     39  C   UNL     1       7.371  15.104  23.023  0.00  0.00    +0.000 C 
ATOM     40  S   UNL     1       8.310  15.368  21.492  0.00  0.00    +0.000 S 
ENDBRANCH  31  36
ENDBRANCH  24  33
ENDBRANCH  23  25
ENDBRANCH   1  23
TORSDOF 16
ENDMDL
MODEL 5
REMARK VINA RESULT:      -7.2      1.241      1.717
REMARK  Name = 
REMARK  16 active torsions:
REMARK  status: ('A' for Active; 'I' for Inactive)
REMARK    1  A    between atoms: N_6  and  C_7
REMARK    2  A    between atoms: C_13  and  C_14
REMARK    3  A    between atoms: C_15  and  C_16
REMARK    4  A    between atoms: C_16  and  N_17
REMARK    5  A    between atoms: N_17  and  S_18
REMARK    6  A    between atoms: S_18  and  C_21
REMARK    7  A    between atoms: C_21  and  C_23
REMARK    8  A    between atoms: C_23  and  O_24
REMARK    9  A    between atoms: C_23  and  C_25
REMARK   10  A    between atoms: C_25  and  O_26
REMARK   11  A    between atoms: C_25  and  C_27
REMARK   12  A    between atoms: C_27  and  O_28
REMARK   13  A    between atoms: C_27  and  C_29
REMARK   14  A    between atoms: C_29  and  O_30
REMARK   15  A    between atoms: C_29  and  C_31
REMARK   16  A    between atoms: C_31  and  O_32
REMARK                            x       y       z     vdW  Elec       q    Type
REMARK                         _______ _______ _______ _____ _____    ______ ____
ROOT
ATOM      1  N   UNL     1       7.151   7.752  17.315  0.00  0.00    +0.000 NA
ATOM      2  H   UNL     1       7.259   8.175  16.390  0.00  0.00    +0.000 HD
ENDROOT
BRANCH   1   3
ATOM      3  S   UNL     1       7.020   6.044  17.161  0.00  0.00    +0.000 S 
ATOM      4  O   UNL     1       7.336   5.714  15.787  0.00  0.00    +0.000 OA
ATOM      5  O   UNL     1       7.742   5.438  18.260  0.00  0.00    +0.000 OA
BRANCH   3   6
ATOM      6  C   UNL     1       5.276   5.574  17.404  0.00  0.00    +0.000 C 
ATOM      7  O   UNL     1       4.497   5.932  16.507  0.00  0.00    +0.000 OA
BRANCH   6   8
ATOM      8  C   UNL     1       4.725   4.808  18.624  0.00  0.00    +0.000 C 
BRANCH   8   9
ATOM      9  O   UNL     1       5.519   5.111  19.776  0.00  0.00    +0.000 OA
ATOM     10  H   UNL     1       5.111   5.896  20.201  0.00  0.00    +0.000 HD
ENDBRANCH   8   9
BRANCH   8  11
ATOM     11  C   UNL     1       3.246   5.170  18.874  0.00  0.00    +0.000 C 
BRANCH  11  12
ATOM     12  O   UNL     1       3.153   5.727  20.189  0.00  0.00    +0.000 OA
ATOM     13  H   UNL     1       3.394   6.668  20.132  0.00  0.00    +0.000 HD
ENDBRANCH  11  12
BRANCH  11  14
ATOM     14  C   UNL     1       2.261   3.969  18.683  0.00  0.00    +0.000 C 
BRANCH  14  15
ATOM     15  O   UNL     1       2.184   3.551  17.312  0.00  0.00    +0.000 OA
ATOM     16  H   UNL     1       3.032   3.805  16.902  0.00  0.00    +0.000 HD
ENDBRANCH  14  15
BRANCH  14  17
ATOM     17  C   UNL     1       2.622   2.725  19.533  0.00  0.00    +0.000 C 
BRANCH  17  18
ATOM     18  O   UNL     1       2.464   1.543  18.731  0.00  0.00    +0.000 OA
ATOM     19  H   UNL     1       2.787   1.769  17.835  0.00  0.00    +0.000 HD
ENDBRANCH  17  18
BRANCH  17  20
ATOM     20  C   UNL     1       1.714   2.568  20.770  0.00  0.00    +0.000 C 
BRANCH  20  21
ATOM     21  O   UNL     1       2.275   3.261  21.887  0.00  0.00    +0.000 OA
ATOM     22  H   UNL     1       1.525   3.628  22.399  0.00  0.00    +0.000 HD
ENDBRANCH  20  21
ENDBRANCH  17  20
ENDBRANCH  14  17
ENDBRANCH  11  14
ENDBRANCH   8  11
ENDBRANCH   6   8
ENDBRANCH   3   6
ENDBRANCH   1   3
BRANCH   1  23
ATOM     23  C   UNL     1       8.230   8.115  18.244  0.00  0.00    +0.000 C 
BRANCH  23  25
ATOM     24  C   UNL     1       9.053  10.812  18.089  0.00  0.00    +0.000 C 
ATOM     25  C   UNL     1       8.673   9.566  18.161  0.00  0.00    +0.000 C 
BRANCH  24  33
ATOM     26  N   UNL     1      11.849  11.699  17.415  0.00  0.00    +0.000 N 
ATOM     27  C   UNL     1      10.896  12.651  17.680  0.00  0.00    +0.000 A 
ATOM     28  N   UNL     1      11.285  13.886  17.626  0.00  0.00    +0.000 NA
ATOM     29  C   UNL     1      10.405  14.906  17.901  0.00  0.00    +0.000 A 
ATOM     30  O   UNL     1      10.791  16.073  17.888  0.00  0.00    +0.000 OA
ATOM     31  N   UNL     1       9.077  14.584  18.219  0.00  0.00    +0.000 N 
ATOM     32  C   UNL     1       8.657  13.267  18.255  0.00  0.00    +0.000 A 
ATOM     33  C   UNL     1       9.498  12.263  18.005  0.00  0.00    +0.000 A 
ATOM     34  H   UNL     1      12.669  12.075  16.949  0.00  0.00    +0.000 HD
ATOM     35  H   UNL     1      11.539  10.803  17.063  0.00  0.00    +0.000 HD
BRANCH  31  36
ATOM     36  C   UNL     1       8.173  15.675  18.563  0.00  0.00    +0.000 C 
ATOM     37  C   UNL     1       8.204  16.071  20.042  0.00  0.00    +0.000 C 
ATOM     38  C   UNL     1       6.989  16.960  20.262  0.00  0.00    +0.000 C 
ATOM     39  C   UNL     1       5.789  16.241  19.663  0.00  0.00    +0.000 C 
ATOM     40  S   UNL     1       6.419  15.301  18.244  0.00  0.00    +0.000 S 
ENDBRANCH  31  36
ENDBRANCH  24  33
ENDBRANCH  23  25
ENDBRANCH   1  23
TORSDOF 16
ENDMDL
MODEL 6
REMARK VINA RESULT:      -7.1      2.065      2.829
REMARK  Name = 
REMARK  16 active torsions:
REMARK  status: ('A' for Active; 'I' for Inactive)
REMARK    1  A    between atoms: N_6  and  C_7
REMARK    2  A    between atoms: C_13  and  C_14
REMARK    3  A    between atoms: C_15  and  C_16
REMARK    4  A    between atoms: C_16  and  N_17
REMARK    5  A    between atoms: N_17  and  S_18
REMARK    6  A    between atoms: S_18  and  C_21
REMARK    7  A    between atoms: C_21  and  C_23
REMARK    8  A    between atoms: C_23  and  O_24
REMARK    9  A    between atoms: C_23  and  C_25
REMARK   10  A    between atoms: C_25  and  O_26
REMARK   11  A    between atoms: C_25  and  C_27
REMARK   12  A    between atoms: C_27  and  O_28
REMARK   13  A    between atoms: C_27  and  C_29
REMARK   14  A    between atoms: C_29  and  O_30
REMARK   15  A    between atoms: C_29  and  C_31
REMARK   16  A    between atoms: C_31  and  O_32
REMARK                            x       y       z     vdW  Elec       q    Type
REMARK                         _______ _______ _______ _____ _____    ______ ____
ROOT
ATOM      1  N   UNL     1       7.732   6.928  18.174  0.00  0.00    +0.000 NA
ATOM      2  H   UNL     1       7.099   7.048  18.968  0.00  0.00    +0.000 HD
ENDROOT
BRANCH   1   3
ATOM      3  S   UNL     1       7.206   5.610  17.204  0.00  0.00    +0.000 S 
ATOM      4  O   UNL     1       7.533   5.933  15.831  0.00  0.00    +0.000 OA
ATOM      5  O   UNL     1       7.677   4.386  17.817  0.00  0.00    +0.000 OA
BRANCH   3   6
ATOM      6  C   UNL     1       5.387   5.526  17.282  0.00  0.00    +0.000 C 
ATOM      7  O   UNL     1       4.797   6.609  17.149  0.00  0.00    +0.000 OA
BRANCH   6   8
ATOM      8  C   UNL     1       4.567   4.242  17.519  0.00  0.00    +0.000 C 
BRANCH   8   9
ATOM      9  O   UNL     1       5.218   3.136  16.884  0.00  0.00    +0.000 OA
ATOM     10  H   UNL     1       5.923   3.514  16.314  0.00  0.00    +0.000 HD
ENDBRANCH   8   9
BRANCH   8  11
ATOM     11  C   UNL     1       4.394   3.975  19.029  0.00  0.00    +0.000 C 
BRANCH  11  12
ATOM     12  O   UNL     1       5.624   4.322  19.673  0.00  0.00    +0.000 OA
ATOM     13  H   UNL     1       5.558   4.055  20.607  0.00  0.00    +0.000 HD
ENDBRANCH  11  12
BRANCH  11  14
ATOM     14  C   UNL     1       3.957   2.511  19.366  0.00  0.00    +0.000 C 
BRANCH  14  15
ATOM     15  O   UNL     1       4.988   1.788  20.056  0.00  0.00    +0.000 OA
ATOM     16  H   UNL     1       5.834   2.180  19.769  0.00  0.00    +0.000 HD
ENDBRANCH  14  15
BRANCH  14  17
ATOM     17  C   UNL     1       2.670   2.427  20.226  0.00  0.00    +0.000 C 
BRANCH  17  18
ATOM     18  O   UNL     1       1.559   2.084  19.381  0.00  0.00    +0.000 OA
ATOM     19  H   UNL     1       0.777   2.543  19.749  0.00  0.00    +0.000 HD
ENDBRANCH  17  18
BRANCH  17  20
ATOM     20  C   UNL     1       2.329   3.764  20.916  0.00  0.00    +0.000 C 
BRANCH  20  21
ATOM     21  O   UNL     1       1.092   4.277  20.418  0.00  0.00    +0.000 OA
ATOM     22  H   UNL     1       0.433   3.556  20.498  0.00  0.00    +0.000 HD
ENDBRANCH  20  21
ENDBRANCH  17  20
ENDBRANCH  14  17
ENDBRANCH  11  14
ENDBRANCH   8  11
ENDBRANCH   6   8
ENDBRANCH   3   6
ENDBRANCH   1   3
BRANCH   1  23
ATOM     23  C   UNL     1       7.881   8.149  17.367  0.00  0.00    +0.000 C 
BRANCH  23  25
ATOM     24  C   UNL     1       8.857  10.383  18.791  0.00  0.00    +0.000 C 
ATOM     25  C   UNL     1       8.406   9.351  18.134  0.00  0.00    +0.000 C 
BRANCH  24  33
ATOM     26  N   UNL     1       9.040  10.543  21.791  0.00  0.00    +0.000 N 
ATOM     27  C   UNL     1       9.441  11.622  21.043  0.00  0.00    +0.000 A 
ATOM     28  N   UNL     1       9.868  12.653  21.702  0.00  0.00    +0.000 NA
ATOM     29  C   UNL     1      10.266  13.789  21.037  0.00  0.00    +0.000 A 
ATOM     30  O   UNL     1      10.632  14.777  21.670  0.00  0.00    +0.000 OA
ATOM     31  N   UNL     1      10.221  13.800  19.635  0.00  0.00    +0.000 N 
ATOM     32  C   UNL     1       9.785  12.693  18.931  0.00  0.00    +0.000 A 
ATOM     33  C   UNL     1       9.382  11.587  19.557  0.00  0.00    +0.000 A 
ATOM     34  H   UNL     1       9.375  10.576  22.748  0.00  0.00    +0.000 HD
ATOM     35  H   UNL     1       9.081   9.628  21.362  0.00  0.00    +0.000 HD
BRANCH  31  36
ATOM     36  C   UNL     1      10.593  15.033  18.949  0.00  0.00    +0.000 C 
ATOM     37  C   UNL     1       9.402  15.862  18.460  0.00  0.00    +0.000 C 
ATOM     38  C   UNL     1       9.977  16.897  17.505  0.00  0.00    +0.000 C 
ATOM     39  C   UNL     1      10.877  16.157  16.527  0.00  0.00    +0.000 C 
ATOM     40  S   UNL     1      11.588  14.763  17.448  0.00  0.00    +0.000 S 
ENDBRANCH  31  36
ENDBRANCH  24  33
ENDBRANCH  23  25
ENDBRANCH   1  23
TORSDOF 16
ENDMDL
MODEL 7
REMARK VINA RESULT:      -7.1      1.013      1.503
REMARK  Name = 
REMARK  16 active torsions:
REMARK  status: ('A' for Active; 'I' for Inactive)
REMARK    1  A    between atoms: N_6  and  C_7
REMARK    2  A    between atoms: C_13  and  C_14
REMARK    3  A    between atoms: C_15  and  C_16
REMARK    4  A    between atoms: C_16  and  N_17
REMARK    5  A    between atoms: N_17  and  S_18
REMARK    6  A    between atoms: S_18  and  C_21
REMARK    7  A    between atoms: C_21  and  C_23
REMARK    8  A    between atoms: C_23  and  O_24
REMARK    9  A    between atoms: C_23  and  C_25
REMARK   10  A    between atoms: C_25  and  O_26
REMARK   11  A    between atoms: C_25  and  C_27
REMARK   12  A    between atoms: C_27  and  O_28
REMARK   13  A    between atoms: C_27  and  C_29
REMARK   14  A    between atoms: C_29  and  O_30
REMARK   15  A    between atoms: C_29  and  C_31
REMARK   16  A    between atoms: C_31  and  O_32
REMARK                            x       y       z     vdW  Elec       q    Type
REMARK                         _______ _______ _______ _____ _____    ______ ____
ROOT
ATOM      1  N   UNL     1       6.624   7.804  17.604  0.00  0.00    +0.000 NA
ATOM      2  H   UNL     1       6.354   8.531  16.936  0.00  0.00    +0.000 HD
ENDROOT
BRANCH   1   3
ATOM      3  S   UNL     1       6.258   6.254  16.955  0.00  0.00    +0.000 S 
ATOM      4  O   UNL     1       5.190   6.435  15.994  0.00  0.00    +0.000 OA
ATOM      5  O   UNL     1       7.504   5.622  16.576  0.00  0.00    +0.000 OA
BRANCH   3   6
ATOM      6  C   UNL     1       5.569   5.218  18.286  0.00  0.00    +0.000 C 
ATOM      7  O   UNL     1       6.085   5.375  19.404  0.00  0.00    +0.000 OA
BRANCH   6   8
ATOM      8  C   UNL     1       4.444   4.179  18.110  0.00  0.00    +0.000 C 
BRANCH   8   9
ATOM      9  O   UNL     1       4.745   3.014  18.886  0.00  0.00    +0.000 OA
ATOM     10  H   UNL     1       4.816   3.310  19.820  0.00  0.00    +0.000 HD
ENDBRANCH   8   9
BRANCH   8  11
ATOM     11  C   UNL     1       3.082   4.772  18.526  0.00  0.00    +0.000 C 
BRANCH  11  12
ATOM     12  O   UNL     1       3.209   6.197  18.512  0.00  0.00    +0.000 OA
ATOM     13  H   UNL     1       2.356   6.570  18.229  0.00  0.00    +0.000 HD
ENDBRANCH  11  12
BRANCH  11  14
ATOM     14  C   UNL     1       2.560   4.251  19.906  0.00  0.00    +0.000 C 
BRANCH  14  15
ATOM     15  O   UNL     1       2.529   5.291  20.895  0.00  0.00    +0.000 OA
ATOM     16  H   UNL     1       1.588   5.518  21.021  0.00  0.00    +0.000 HD
ENDBRANCH  14  15
BRANCH  14  17
ATOM     17  C   UNL     1       1.145   3.622  19.840  0.00  0.00    +0.000 C 
BRANCH  17  18
ATOM     18  O   UNL     1       0.868   2.953  21.081  0.00  0.00    +0.000 OA
ATOM     19  H   UNL     1       0.339   3.575  21.622  0.00  0.00    +0.000 HD
ENDBRANCH  17  18
BRANCH  17  20
ATOM     20  C   UNL     1       1.011   2.578  18.712  0.00  0.00    +0.000 C 
BRANCH  20  21
ATOM     21  O   UNL     1       1.963   1.529  18.894  0.00  0.00    +0.000 OA
ATOM     22  H   UNL     1       2.153   1.161  18.006  0.00  0.00    +0.000 HD
ENDBRANCH  20  21
ENDBRANCH  17  20
ENDBRANCH  14  17
ENDBRANCH  11  14
ENDBRANCH   8  11
ENDBRANCH   6   8
ENDBRANCH   3   6
ENDBRANCH   1   3
BRANCH   1  23
ATOM     23  C   UNL     1       8.036   7.887  18.004  0.00  0.00    +0.000 C 
BRANCH  23  25
ATOM     24  C   UNL     1       9.034  10.517  18.250  0.00  0.00    +0.000 C 
ATOM     25  C   UNL     1       8.573   9.302  18.137  0.00  0.00    +0.000 C 
BRANCH  24  33
ATOM     26  N   UNL     1      11.833  11.350  17.526  0.00  0.00    +0.000 N 
ATOM     27  C   UNL     1      10.967  12.293  18.021  0.00  0.00    +0.000 A 
ATOM     28  N   UNL     1      11.436  13.495  18.150  0.00  0.00    +0.000 NA
ATOM     29  C   UNL     1      10.648  14.498  18.662  0.00  0.00    +0.000 A 
ATOM     30  O   UNL     1      11.112  15.626  18.820  0.00  0.00    +0.000 OA
ATOM     31  N   UNL     1       9.325  14.200  19.021  0.00  0.00    +0.000 N 
ATOM     32  C   UNL     1       8.819  12.924  18.864  0.00  0.00    +0.000 A 
ATOM     33  C   UNL     1       9.570  11.933  18.382  0.00  0.00    +0.000 A 
ATOM     34  H   UNL     1      12.644  11.755  17.069  0.00  0.00    +0.000 HD
ATOM     35  H   UNL     1      11.439  10.549  17.050  0.00  0.00    +0.000 HD
BRANCH  31  36
ATOM     36  C   UNL     1       8.522  15.263  19.615  0.00  0.00    +0.000 C 
ATOM     37  C   UNL     1       7.396  14.764  20.525  0.00  0.00    +0.000 C 
ATOM     38  C   UNL     1       6.491  15.963  20.767  0.00  0.00    +0.000 C 
ATOM     39  C   UNL     1       6.193  16.584  19.410  0.00  0.00    +0.000 C 
ATOM     40  S   UNL     1       7.669  16.308  18.391  0.00  0.00    +0.000 S 
ENDBRANCH  31  36
ENDBRANCH  24  33
ENDBRANCH  23  25
ENDBRANCH   1  23
TORSDOF 16
ENDMDL
MODEL 8
REMARK VINA RESULT:      -7.0      2.059      2.563
REMARK  Name = 
REMARK  16 active torsions:
REMARK  status: ('A' for Active; 'I' for Inactive)
REMARK    1  A    between atoms: N_6  and  C_7
REMARK    2  A    between atoms: C_13  and  C_14
REMARK    3  A    between atoms: C_15  and  C_16
REMARK    4  A    between atoms: C_16  and  N_17
REMARK    5  A    between atoms: N_17  and  S_18
REMARK    6  A    between atoms: S_18  and  C_21
REMARK    7  A    between atoms: C_21  and  C_23
REMARK    8  A    between atoms: C_23  and  O_24
REMARK    9  A    between atoms: C_23  and  C_25
REMARK   10  A    between atoms: C_25  and  O_26
REMARK   11  A    between atoms: C_25  and  C_27
REMARK   12  A    between atoms: C_27  and  O_28
REMARK   13  A    between atoms: C_27  and  C_29
REMARK   14  A    between atoms: C_29  and  O_30
REMARK   15  A    between atoms: C_29  and  C_31
REMARK   16  A    between atoms: C_31  and  O_32
REMARK                            x       y       z     vdW  Elec       q    Type
REMARK                         _______ _______ _______ _____ _____    ______ ____
ROOT
ATOM      1  N   UNL     1       7.717   6.584  18.191  0.00  0.00    +0.000 NA
ATOM      2  H   UNL     1       7.135   6.537  19.030  0.00  0.00    +0.000 HD
ENDROOT
BRANCH   1   3
ATOM      3  S   UNL     1       7.443   5.195  17.214  0.00  0.00    +0.000 S 
ATOM      4  O   UNL     1       7.507   5.625  15.833  0.00  0.00    +0.000 OA
ATOM      5  O   UNL     1       8.290   4.129  17.705  0.00  0.00    +0.000 OA
BRANCH   3   6
ATOM      6  C   UNL     1       5.734   4.626  17.486  0.00  0.00    +0.000 C 
ATOM      7  O   UNL     1       5.058   4.457  16.459  0.00  0.00    +0.000 OA
BRANCH   6   8
ATOM      8  C   UNL     1       5.091   4.374  18.865  0.00  0.00    +0.000 C 
BRANCH   8   9
ATOM      9  O   UNL     1       5.901   4.968  19.884  0.00  0.00    +0.000 OA
ATOM     10  H   UNL     1       5.716   4.475  20.714  0.00  0.00    +0.000 HD
ENDBRANCH   8   9
BRANCH   8  11
ATOM     11  C   UNL     1       3.657   4.942  18.911  0.00  0.00    +0.000 C 
BRANCH  11  12
ATOM     12  O   UNL     1       3.648   6.020  19.851  0.00  0.00    +0.000 OA
ATOM     13  H   UNL     1       4.489   6.502  19.760  0.00  0.00    +0.000 HD
ENDBRANCH  11  12
BRANCH  11  14
ATOM     14  C   UNL     1       2.565   3.872  19.246  0.00  0.00    +0.000 C 
BRANCH  14  15
ATOM     15  O   UNL     1       3.123   2.556  19.372  0.00  0.00    +0.000 OA
ATOM     16  H   UNL     1       3.865   2.514  18.739  0.00  0.00    +0.000 HD
ENDBRANCH  14  15
BRANCH  14  17
ATOM     17  C   UNL     1       1.776   4.173  20.547  0.00  0.00    +0.000 C 
BRANCH  17  18
ATOM     18  O   UNL     1       2.591   4.975  21.418  0.00  0.00    +0.000 OA
ATOM     19  H   UNL     1       2.052   5.754  21.664  0.00  0.00    +0.000 HD
ENDBRANCH  17  18
BRANCH  17  20
ATOM     20  C   UNL     1       1.396   2.893  21.319  0.00  0.00    +0.000 C 
BRANCH  20  21
ATOM     21  O   UNL     1       2.476   2.483  22.160  0.00  0.00    +0.000 OA
ATOM     22  H   UNL     1       2.205   2.670  23.083  0.00  0.00    +0.000 HD
ENDBRANCH  20  21
ENDBRANCH  17  20
ENDBRANCH  14  17
ENDBRANCH  11  14
ENDBRANCH   8  11
ENDBRANCH   6   8
ENDBRANCH   3   6
ENDBRANCH   1   3
BRANCH   1  23
ATOM     23  C   UNL     1       7.514   7.819  17.418  0.00  0.00    +0.000 C 
BRANCH  23  25
ATOM     24  C   UNL     1       8.820  10.090  18.472  0.00  0.00    +0.000 C 
ATOM     25  C   UNL     1       8.217   9.041  17.985  0.00  0.00    +0.000 C 
BRANCH  24  33
ATOM     26  N   UNL     1      11.191  11.431  17.194  0.00  0.00    +0.000 N 
ATOM     27  C   UNL     1      10.701  11.933  18.374  0.00  0.00    +0.000 A 
ATOM     28  N   UNL     1      11.317  12.963  18.862  0.00  0.00    +0.000 NA
ATOM     29  C   UNL     1      10.912  13.517  20.054  0.00  0.00    +0.000 A 
ATOM     30  O   UNL     1      11.526  14.469  20.532  0.00  0.00    +0.000 OA
ATOM     31  N   UNL     1       9.809  12.958  20.717  0.00  0.00    +0.000 N 
ATOM     32  C   UNL     1       9.139  11.872  20.185  0.00  0.00    +0.000 A 
ATOM     33  C   UNL     1       9.524  11.313  19.038  0.00  0.00    +0.000 A 
ATOM     34  H   UNL     1      11.801  12.082  16.708  0.00  0.00    +0.000 HD
ATOM     35  H   UNL     1      10.554  10.924  16.594  0.00  0.00    +0.000 HD
BRANCH  31  36
ATOM     36  C   UNL     1       9.428  13.523  22.006  0.00  0.00    +0.000 C 
ATOM     37  C   UNL     1       8.806  12.512  22.974  0.00  0.00    +0.000 C 
ATOM     38  C   UNL     1       8.185  13.333  24.094  0.00  0.00    +0.000 C 
ATOM     39  C   UNL     1       7.344  14.421  23.443  0.00  0.00    +0.000 C 
ATOM     40  S   UNL     1       8.180  14.844  21.888  0.00  0.00    +0.000 S 
ENDBRANCH  31  36
ENDBRANCH  24  33
ENDBRANCH  23  25
ENDBRANCH   1  23
TORSDOF 16
ENDMDL
MODEL 9
REMARK VINA RESULT:      -7.0      6.309      7.379
REMARK  Name = 
REMARK  16 active torsions:
REMARK  status: ('A' for Active; 'I' for Inactive)
REMARK    1  A    between atoms: N_6  and  C_7
REMARK    2  A    between atoms: C_13  and  C_14
REMARK    3  A    between atoms: C_15  and  C_16
REMARK    4  A    between atoms: C_16  and  N_17
REMARK    5  A    between atoms: N_17  and  S_18
REMARK    6  A    between atoms: S_18  and  C_21
REMARK    7  A    between atoms: C_21  and  C_23
REMARK    8  A    between atoms: C_23  and  O_24
REMARK    9  A    between atoms: C_23  and  C_25
REMARK   10  A    between atoms: C_25  and  O_26
REMARK   11  A    between atoms: C_25  and  C_27
REMARK   12  A    between atoms: C_27  and  O_28
REMARK   13  A    between atoms: C_27  and  C_29
REMARK   14  A    between atoms: C_29  and  O_30
REMARK   15  A    between atoms: C_29  and  C_31
REMARK   16  A    between atoms: C_31  and  O_32
REMARK                            x       y       z     vdW  Elec       q    Type
REMARK                         _______ _______ _______ _____ _____    ______ ____
ROOT
ATOM      1  N   UNL     1       3.295   6.160  19.917  0.00  0.00    +0.000 NA
ATOM      2  H   UNL     1       3.777   5.372  20.356  0.00  0.00    +0.000 HD
ENDROOT
BRANCH   1   3
ATOM      3  S   UNL     1       3.122   5.870  18.231  0.00  0.00    +0.000 S 
ATOM      4  O   UNL     1       1.854   5.198  18.042  0.00  0.00    +0.000 OA
ATOM      5  O   UNL     1       3.427   7.100  17.531  0.00  0.00    +0.000 OA
BRANCH   3   6
ATOM      6  C   UNL     1       4.404   4.683  17.714  0.00  0.00    +0.000 C 
ATOM      7  O   UNL     1       4.564   4.571  16.489  0.00  0.00    +0.000 OA
BRANCH   6   8
ATOM      8  C   UNL     1       5.254   3.822  18.670  0.00  0.00    +0.000 C 
BRANCH   8   9
ATOM      9  O   UNL     1       5.970   4.674  19.570  0.00  0.00    +0.000 OA
ATOM     10  H   UNL     1       6.445   5.332  19.017  0.00  0.00    +0.000 HD
ENDBRANCH   8   9
BRANCH   8  11
ATOM     11  C   UNL     1       4.364   2.833  19.451  0.00  0.00    +0.000 C 
BRANCH  11  12
ATOM     12  O   UNL     1       5.228   1.972  20.199  0.00  0.00    +0.000 OA
ATOM     13  H   UNL     1       5.324   2.348  21.091  0.00  0.00    +0.000 HD
ENDBRANCH  11  12
BRANCH  11  14
ATOM     14  C   UNL     1       3.378   2.021  18.547  0.00  0.00    +0.000 C 
BRANCH  14  15
ATOM     15  O   UNL     1       3.904   0.730  18.204  0.00  0.00    +0.000 OA
ATOM     16  H   UNL     1       3.740   0.613  17.250  0.00  0.00    +0.000 HD
ENDBRANCH  14  15
BRANCH  14  17
ATOM     17  C   UNL     1       1.982   1.804  19.184  0.00  0.00    +0.000 C 
BRANCH  17  18
ATOM     18  O   UNL     1       0.967   2.140  18.224  0.00  0.00    +0.000 OA
ATOM     19  H   UNL     1       0.718   3.071  18.396  0.00  0.00    +0.000 HD
ENDBRANCH  17  18
BRANCH  17  20
ATOM     20  C   UNL     1       1.753   2.691  20.426  0.00  0.00    +0.000 C 
BRANCH  20  21
ATOM     21  O   UNL     1       0.561   3.463  20.270  0.00  0.00    +0.000 OA
ATOM     22  H   UNL     1       0.827   4.318  19.873  0.00  0.00    +0.000 HD
ENDBRANCH  20  21
ENDBRANCH  17  20
ENDBRANCH  14  17
ENDBRANCH  11  14
ENDBRANCH   8  11
ENDBRANCH   6   8
ENDBRANCH   3   6
ENDBRANCH   1   3
BRANCH   1  23
ATOM     23  C   UNL     1       1.995   6.457  20.536  0.00  0.00    +0.000 C 
BRANCH  23  25
ATOM     24  C   UNL     1       1.076   9.095  20.126  0.00  0.00    +0.000 C 
ATOM     25  C   UNL     1       1.500   7.877  20.316  0.00  0.00    +0.000 C 
BRANCH  24  33
ATOM     26  N   UNL     1       2.046  10.915  17.934  0.00  0.00    +0.000 N 
ATOM     27  C   UNL     1       1.100  11.381  18.814  0.00  0.00    +0.000 A 
ATOM     28  N   UNL     1       0.696  12.599  18.633  0.00  0.00    +0.000 NA
ATOM     29  C   UNL     1      -0.231  13.157  19.482  0.00  0.00    +0.000 A 
ATOM     30  O   UNL     1      -0.580  14.327  19.329  0.00  0.00    +0.000 OA
ATOM     31  N   UNL     1      -0.743  12.378  20.529  0.00  0.00    +0.000 N 
ATOM     32  C   UNL     1      -0.327  11.072  20.709  0.00  0.00    +0.000 A 
ATOM     33  C   UNL     1       0.580  10.515  19.906  0.00  0.00    +0.000 A 
ATOM     34  H   UNL     1       2.118  11.478  17.092  0.00  0.00    +0.000 HD
ATOM     35  H   UNL     1       2.097   9.917  17.778  0.00  0.00    +0.000 HD
BRANCH  31  36
ATOM     36  C   UNL     1      -1.682  13.005  21.452  0.00  0.00    +0.000 C 
ATOM     37  C   UNL     1      -1.730  12.352  22.837  0.00  0.00    +0.000 C 
ATOM     38  C   UNL     1      -2.970  12.911  23.519  0.00  0.00    +0.000 C 
ATOM     39  C   UNL     1      -4.126  12.770  22.541  0.00  0.00    +0.000 C 
ATOM     40  S   UNL     1      -3.412  12.957  20.883  0.00  0.00    +0.000 S 
ENDBRANCH  31  36
ENDBRANCH  24  33
ENDBRANCH  23  25
ENDBRANCH   1  23
TORSDOF 16
ENDMDL
