MODEL 1
REMARK VINA RESULT:      -9.5      0.000      0.000
REMARK  Name = 
REMARK  8 active torsions:
REMARK  status: ('A' for Active; 'I' for Inactive)
REMARK    1  A    between atoms: C_1  and  O_2
REMARK    2  A    between atoms: O_2  and  C_3
REMARK    3  A    between atoms: C_6  and  N_7
REMARK    4  A    between atoms: N_7  and  C_8
REMARK    5  A    between atoms: C_9  and  C_10
REMARK    6  A    between atoms: C_10  and  C_12
REMARK    7  A    between atoms: N_14  and  C_15
REMARK    8  A    between atoms: C_22  and  C_23
REMARK                            x       y       z     vdW  Elec       q    Type
REMARK                         _______ _______ _______ _____ _____    ______ ____
ROOT
ATOM      1  C   UNL     1       6.129   5.577  18.307  0.00  0.00    +0.000 A 
ATOM      2  C   UNL     1       5.290   5.348  19.381  0.00  0.00    +0.000 A 
ATOM      3  N   UNL     1       4.342   4.438  18.983  0.00  0.00    +0.000 N 
ATOM      4  N   UNL     1       4.557   4.034  17.712  0.00  0.00    +0.000 NA
ATOM      5  C   UNL     1       5.615   4.737  17.272  0.00  0.00    +0.000 A 
ENDROOT
BRANCH   5   6
ATOM      6  C   UNL     1       6.052   4.595  15.875  0.00  0.00    +0.000 A 
ATOM      7  C   UNL     1       7.326   5.016  15.456  0.00  0.00    +0.000 A 
ATOM      8  C   UNL     1       7.713   4.899  14.117  0.00  0.00    +0.000 A 
ATOM      9  C   UNL     1       6.822   4.378  13.189  0.00  0.00    +0.000 A 
ATOM     10  F   UNL     1       7.189   4.280  11.904  0.00  0.00    +0.000 F 
ATOM     11  C   UNL     1       5.554   3.965  13.574  0.00  0.00    +0.000 A 
ATOM     12  C   UNL     1       5.170   4.074  14.914  0.00  0.00    +0.000 A 
ENDBRANCH   5   6
BRANCH   3  13
ATOM     13  C   UNL     1       3.245   3.943  19.740  0.00  0.00    +0.000 A 
ATOM     14  C   UNL     1       1.948   4.446  19.550  0.00  0.00    +0.000 A 
ATOM     15  C   UNL     1       0.883   3.940  20.298  0.00  0.00    +0.000 A 
ATOM     16  C   UNL     1       1.101   2.933  21.238  0.00  0.00    +0.000 A 
ATOM     17  C   UNL     1       2.385   2.427  21.430  0.00  0.00    +0.000 A 
ATOM     18  C   UNL     1       3.455   2.926  20.682  0.00  0.00    +0.000 A 
ENDBRANCH   3  13
BRANCH   1  19
ATOM     19  C   UNL     1       7.279   6.457  18.268  0.00  0.00    +0.000 C 
ATOM     20  O   UNL     1       8.337   6.217  18.843  0.00  0.00    +0.000 OA
BRANCH  19  22
ATOM     21  C   UNL     1       7.792   8.781  17.646  0.00  0.00    +0.000 C 
ATOM     22  C   UNL     1       7.110   7.654  17.400  0.00  0.00    +0.000 C 
BRANCH  21  23
ATOM     23  N   UNL     1       8.659   9.020  18.678  0.00  0.00    +0.000 N 
ATOM     24  H   UNL     1       8.823   8.225  19.303  0.00  0.00    +0.000 HD
BRANCH  23  28
ATOM     25  C   UNL     1      10.715  12.578  19.641  0.00  0.00    +0.000 A 
ATOM     26  C   UNL     1      10.574  12.162  18.318  0.00  0.00    +0.000 A 
ATOM     27  C   UNL     1       9.859  11.001  18.015  0.00  0.00    +0.000 A 
ATOM     28  C   UNL     1       9.294  10.218  19.029  0.00  0.00    +0.000 A 
ATOM     29  C   UNL     1       9.468  10.630  20.354  0.00  0.00    +0.000 A 
ATOM     30  C   UNL     1      10.167  11.803  20.661  0.00  0.00    +0.000 A 
BRANCH  25  32
ATOM     31  C   UNL     1      10.650  14.915  19.937  0.00  0.00    +0.000 C 
ATOM     32  O   UNL     1      11.428  13.729  19.823  0.00  0.00    +0.000 OA
ENDBRANCH  25  32
ENDBRANCH  23  28
ENDBRANCH  21  23
ENDBRANCH  19  22
ENDBRANCH   1  19
TORSDOF 7
ENDMDL
MODEL 2
REMARK VINA RESULT:      -9.3      1.088      1.519
REMARK  Name = 
REMARK  8 active torsions:
REMARK  status: ('A' for Active; 'I' for Inactive)
REMARK    1  A    between atoms: C_1  and  O_2
REMARK    2  A    between atoms: O_2  and  C_3
REMARK    3  A    between atoms: C_6  and  N_7
REMARK    4  A    between atoms: N_7  and  C_8
REMARK    5  A    between atoms: C_9  and  C_10
REMARK    6  A    between atoms: C_10  and  C_12
REMARK    7  A    between atoms: N_14  and  C_15
REMARK    8  A    between atoms: C_22  and  C_23
REMARK                            x       y       z     vdW  Elec       q    Type
REMARK                         _______ _______ _______ _____ _____    ______ ____
ROOT
ATOM      1  C   UNL     1       5.528   5.955  17.393  0.00  0.00    +0.000 A 
ATOM      2  C   UNL     1       4.637   5.738  18.426  0.00  0.00    +0.000 A 
ATOM      3  N   UNL     1       3.856   4.662  18.083  0.00  0.00    +0.000 N 
ATOM      4  N   UNL     1       4.232   4.145  16.893  0.00  0.00    +0.000 NA
ATOM      5  C   UNL     1       5.222   4.934  16.441  0.00  0.00    +0.000 A 
ENDROOT
BRANCH   5   6
ATOM      6  C   UNL     1       5.795   4.692  15.109  0.00  0.00    +0.000 A 
ATOM      7  C   UNL     1       5.111   3.940  14.139  0.00  0.00    +0.000 A 
ATOM      8  C   UNL     1       5.685   3.697  12.887  0.00  0.00    +0.000 A 
ATOM      9  C   UNL     1       6.953   4.189  12.607  0.00  0.00    +0.000 A 
ATOM     10  F   UNL     1       7.508   3.942  11.413  0.00  0.00    +0.000 F 
ATOM     11  C   UNL     1       7.655   4.925  13.551  0.00  0.00    +0.000 A 
ATOM     12  C   UNL     1       7.077   5.176  14.799  0.00  0.00    +0.000 A 
ENDBRANCH   5   6
BRANCH   3  13
ATOM     13  C   UNL     1       2.771   4.109  18.819  0.00  0.00    +0.000 A 
ATOM     14  C   UNL     1       2.491   4.536  20.126  0.00  0.00    +0.000 A 
ATOM     15  C   UNL     1       1.416   3.987  20.828  0.00  0.00    +0.000 A 
ATOM     16  C   UNL     1       0.617   3.009  20.235  0.00  0.00    +0.000 A 
ATOM     17  C   UNL     1       0.887   2.583  18.937  0.00  0.00    +0.000 A 
ATOM     18  C   UNL     1       1.958   3.132  18.227  0.00  0.00    +0.000 A 
ENDBRANCH   3  13
BRANCH   1  19
ATOM     19  C   UNL     1       6.552   6.979  17.321  0.00  0.00    +0.000 C 
ATOM     20  O   UNL     1       6.449   7.995  16.641  0.00  0.00    +0.000 OA
BRANCH  19  22
ATOM     21  C   UNL     1       8.467   7.766  18.648  0.00  0.00    +0.000 C 
ATOM     22  C   UNL     1       7.722   6.742  18.211  0.00  0.00    +0.000 C 
BRANCH  21  23
ATOM     23  N   UNL     1       8.321   9.093  18.342  0.00  0.00    +0.000 N 
ATOM     24  H   UNL     1       7.580   9.305  17.667  0.00  0.00    +0.000 HD
BRANCH  23  28
ATOM     25  C   UNL     1      10.772  12.309  19.548  0.00  0.00    +0.000 A 
ATOM     26  C   UNL     1      10.592  12.007  18.199  0.00  0.00    +0.000 A 
ATOM     27  C   UNL     1       9.748  10.961  17.816  0.00  0.00    +0.000 A 
ATOM     28  C   UNL     1       9.089  10.180  18.774  0.00  0.00    +0.000 A 
ATOM     29  C   UNL     1       9.302  10.475  20.125  0.00  0.00    +0.000 A 
ATOM     30  C   UNL     1      10.131  11.535  20.512  0.00  0.00    +0.000 A 
BRANCH  25  32
ATOM     31  C   UNL     1      11.115  14.639  19.455  0.00  0.00    +0.000 C 
ATOM     32  O   UNL     1      11.614  13.353  19.808  0.00  0.00    +0.000 OA
ENDBRANCH  25  32
ENDBRANCH  23  28
ENDBRANCH  21  23
ENDBRANCH  19  22
ENDBRANCH   1  19
TORSDOF 7
ENDMDL
MODEL 3
REMARK VINA RESULT:      -9.3      1.051      1.514
REMARK  Name = 
REMARK  8 active torsions:
REMARK  status: ('A' for Active; 'I' for Inactive)
REMARK    1  A    between atoms: C_1  and  O_2
REMARK    2  A    between atoms: O_2  and  C_3
REMARK    3  A    between atoms: C_6  and  N_7
REMARK    4  A    between atoms: N_7  and  C_8
REMARK    5  A    between atoms: C_9  and  C_10
REMARK    6  A    between atoms: C_10  and  C_12
REMARK    7  A    between atoms: N_14  and  C_15
REMARK    8  A    between atoms: C_22  and  C_23
REMARK                            x       y       z     vdW  Elec       q    Type
REMARK                         _______ _______ _______ _____ _____    ______ ____
ROOT
ATOM      1  C   UNL     1       5.631   5.930  17.447  0.00  0.00    +0.000 A 
ATOM      2  C   UNL     1       4.739   5.719  18.482  0.00  0.00    +0.000 A 
ATOM      3  N   UNL     1       3.959   4.640  18.146  0.00  0.00    +0.000 N 
ATOM      4  N   UNL     1       4.337   4.115  16.960  0.00  0.00    +0.000 NA
ATOM      5  C   UNL     1       5.327   4.901  16.503  0.00  0.00    +0.000 A 
ENDROOT
BRANCH   5   6
ATOM      6  C   UNL     1       5.901   4.650  15.173  0.00  0.00    +0.000 A 
ATOM      7  C   UNL     1       7.162   5.152  14.808  0.00  0.00    +0.000 A 
ATOM      8  C   UNL     1       7.679   4.926  13.529  0.00  0.00    +0.000 A 
ATOM      9  C   UNL     1       6.929   4.213  12.602  0.00  0.00    +0.000 A 
ATOM     10  F   UNL     1       7.419   4.010  11.373  0.00  0.00    +0.000 F 
ATOM     11  C   UNL     1       5.676   3.716  12.933  0.00  0.00    +0.000 A 
ATOM     12  C   UNL     1       5.163   3.934  14.215  0.00  0.00    +0.000 A 
ENDBRANCH   5   6
BRANCH   3  13
ATOM     13  C   UNL     1       2.874   4.091  18.884  0.00  0.00    +0.000 A 
ATOM     14  C   UNL     1       2.731   4.345  20.257  0.00  0.00    +0.000 A 
ATOM     15  C   UNL     1       1.654   3.804  20.963  0.00  0.00    +0.000 A 
ATOM     16  C   UNL     1       0.716   3.006  20.307  0.00  0.00    +0.000 A 
ATOM     17  C   UNL     1       0.850   2.752  18.944  0.00  0.00    +0.000 A 
ATOM     18  C   UNL     1       1.923   3.294  18.231  0.00  0.00    +0.000 A 
ENDBRANCH   3  13
BRANCH   1  19
ATOM     19  C   UNL     1       6.653   6.954  17.370  0.00  0.00    +0.000 C 
ATOM     20  O   UNL     1       6.564   7.949  16.656  0.00  0.00    +0.000 OA
BRANCH  19  22
ATOM     21  C   UNL     1       8.533   7.788  18.719  0.00  0.00    +0.000 C 
ATOM     22  C   UNL     1       7.801   6.749  18.294  0.00  0.00    +0.000 C 
BRANCH  21  23
ATOM     23  N   UNL     1       8.389   9.104  18.371  0.00  0.00    +0.000 N 
ATOM     24  H   UNL     1       7.648   9.297  17.690  0.00  0.00    +0.000 HD
BRANCH  23  28
ATOM     25  C   UNL     1      10.573  12.475  19.665  0.00  0.00    +0.000 A 
ATOM     26  C   UNL     1       9.962  11.618  20.579  0.00  0.00    +0.000 A 
ATOM     27  C   UNL     1       9.273  10.486  20.135  0.00  0.00    +0.000 A 
ATOM     28  C   UNL     1       9.159  10.204  18.767  0.00  0.00    +0.000 A 
ATOM     29  C   UNL     1       9.752  11.088  17.860  0.00  0.00    +0.000 A 
ATOM     30  C   UNL     1      10.459  12.212  18.302  0.00  0.00    +0.000 A 
BRANCH  25  32
ATOM     31  C   UNL     1      11.514  14.605  19.302  0.00  0.00    +0.000 C 
ATOM     32  O   UNL     1      11.223  13.547  20.209  0.00  0.00    +0.000 OA
ENDBRANCH  25  32
ENDBRANCH  23  28
ENDBRANCH  21  23
ENDBRANCH  19  22
ENDBRANCH   1  19
TORSDOF 7
ENDMDL
MODEL 4
REMARK VINA RESULT:      -9.3      0.113      1.504
REMARK  Name = 
REMARK  8 active torsions:
REMARK  status: ('A' for Active; 'I' for Inactive)
REMARK    1  A    between atoms: C_1  and  O_2
REMARK    2  A    between atoms: O_2  and  C_3
REMARK    3  A    between atoms: C_6  and  N_7
REMARK    4  A    between atoms: N_7  and  C_8
REMARK    5  A    between atoms: C_9  and  C_10
REMARK    6  A    between atoms: C_10  and  C_12
REMARK    7  A    between atoms: N_14  and  C_15
REMARK    8  A    between atoms: C_22  and  C_23
REMARK                            x       y       z     vdW  Elec       q    Type
REMARK                         _______ _______ _______ _____ _____    ______ ____
ROOT
ATOM      1  C   UNL     1       6.155   5.558  18.284  0.00  0.00    +0.000 A 
ATOM      2  C   UNL     1       5.336   5.311  19.370  0.00  0.00    +0.000 A 
ATOM      3  N   UNL     1       4.374   4.417  18.970  0.00  0.00    +0.000 N 
ATOM      4  N   UNL     1       4.561   4.039  17.687  0.00  0.00    +0.000 NA
ATOM      5  C   UNL     1       5.614   4.744  17.241  0.00  0.00    +0.000 A 
ENDROOT
BRANCH   5   6
ATOM      6  C   UNL     1       6.024   4.631  15.833  0.00  0.00    +0.000 A 
ATOM      7  C   UNL     1       5.164   4.102  14.857  0.00  0.00    +0.000 A 
ATOM      8  C   UNL     1       5.581   3.976  13.528  0.00  0.00    +0.000 A 
ATOM      9  C   UNL     1       6.868   4.360  13.175  0.00  0.00    +0.000 A 
ATOM     10  F   UNL     1       7.272   4.225  11.905  0.00  0.00    +0.000 F 
ATOM     11  C   UNL     1       7.742   4.875  14.122  0.00  0.00    +0.000 A 
ATOM     12  C   UNL     1       7.321   5.010  15.448  0.00  0.00    +0.000 A 
ENDBRANCH   5   6
BRANCH   3  13
ATOM     13  C   UNL     1       3.287   3.912  19.738  0.00  0.00    +0.000 A 
ATOM     14  C   UNL     1       3.490   2.935  20.725  0.00  0.00    +0.000 A 
ATOM     15  C   UNL     1       2.412   2.460  21.474  0.00  0.00    +0.000 A 
ATOM     16  C   UNL     1       1.127   2.951  21.243  0.00  0.00    +0.000 A 
ATOM     17  C   UNL     1       0.918   3.923  20.267  0.00  0.00    +0.000 A 
ATOM     18  C   UNL     1       1.994   4.407  19.517  0.00  0.00    +0.000 A 
ENDBRANCH   3  13
BRANCH   1  19
ATOM     19  C   UNL     1       7.311   6.431  18.242  0.00  0.00    +0.000 C 
ATOM     20  O   UNL     1       8.360   6.196  18.834  0.00  0.00    +0.000 OA
BRANCH  19  22
ATOM     21  C   UNL     1       7.782   8.765  17.627  0.00  0.00    +0.000 C 
ATOM     22  C   UNL     1       7.158   7.612  17.349  0.00  0.00    +0.000 C 
BRANCH  21  23
ATOM     23  N   UNL     1       8.568   9.046  18.712  0.00  0.00    +0.000 N 
ATOM     24  H   UNL     1       8.584   8.323  19.437  0.00  0.00    +0.000 HD
BRANCH  23  28
ATOM     25  C   UNL     1      10.619  12.611  19.656  0.00  0.00    +0.000 A 
ATOM     26  C   UNL     1      10.144  11.766  20.658  0.00  0.00    +0.000 A 
ATOM     27  C   UNL     1       9.499  10.572  20.327  0.00  0.00    +0.000 A 
ATOM     28  C   UNL     1       9.293  10.211  18.989  0.00  0.00    +0.000 A 
ATOM     29  C   UNL     1       9.748  11.083  17.994  0.00  0.00    +0.000 A 
ATOM     30  C   UNL     1      10.411  12.271  18.321  0.00  0.00    +0.000 A 
BRANCH  25  32
ATOM     31  C   UNL     1      10.396  14.891  20.207  0.00  0.00    +0.000 C 
ATOM     32  O   UNL     1      11.237  13.749  20.091  0.00  0.00    +0.000 OA
ENDBRANCH  25  32
ENDBRANCH  23  28
ENDBRANCH  21  23
ENDBRANCH  19  22
ENDBRANCH   1  19
TORSDOF 7
ENDMDL
MODEL 5
REMARK VINA RESULT:      -9.3      4.797      7.715
REMARK  Name = 
REMARK  8 active torsions:
REMARK  status: ('A' for Active; 'I' for Inactive)
REMARK    1  A    between atoms: C_1  and  O_2
REMARK    2  A    between atoms: O_2  and  C_3
REMARK    3  A    between atoms: C_6  and  N_7
REMARK    4  A    between atoms: N_7  and  C_8
REMARK    5  A    between atoms: C_9  and  C_10
REMARK    6  A    between atoms: C_10  and  C_12
REMARK    7  A    between atoms: N_14  and  C_15
REMARK    8  A    between atoms: C_22  and  C_23
REMARK                            x       y       z     vdW  Elec       q    Type
REMARK                         _______ _______ _______ _____ _____    ______ ____
ROOT
ATOM      1  C   UNL     1       3.915   7.002  17.579  0.00  0.00    +0.000 A 
ATOM      2  C   UNL     1       3.300   8.218  17.813  0.00  0.00    +0.000 A 
ATOM      3  N   UNL     1       2.246   7.994  18.664  0.00  0.00    +0.000 N 
ATOM      4  N   UNL     1       2.180   6.694  19.027  0.00  0.00    +0.000 NA
ATOM      5  C   UNL     1       3.161   6.069  18.355  0.00  0.00    +0.000 A 
ENDROOT
BRANCH   5   6
ATOM      6  C   UNL     1       3.301   4.609  18.461  0.00  0.00    +0.000 A 
ATOM      7  C   UNL     1       4.008   4.012  19.518  0.00  0.00    +0.000 A 
ATOM      8  C   UNL     1       4.154   2.623  19.586  0.00  0.00    +0.000 A 
ATOM      9  C   UNL     1       3.609   1.826  18.588  0.00  0.00    +0.000 A 
ATOM     10  F   UNL     1       3.762   0.497  18.647  0.00  0.00    +0.000 F 
ATOM     11  C   UNL     1       2.915   2.391  17.527  0.00  0.00    +0.000 A 
ATOM     12  C   UNL     1       2.761   3.780  17.464  0.00  0.00    +0.000 A 
ENDBRANCH   5   6
BRANCH   3  13
ATOM     13  C   UNL     1       1.300   8.943  19.139  0.00  0.00    +0.000 A 
ATOM     14  C   UNL     1       0.720   9.884  18.274  0.00  0.00    +0.000 A 
ATOM     15  C   UNL     1      -0.215  10.801  18.759  0.00  0.00    +0.000 A 
ATOM     16  C   UNL     1      -0.574  10.791  20.107  0.00  0.00    +0.000 A 
ATOM     17  C   UNL     1      -0.004   9.858  20.971  0.00  0.00    +0.000 A 
ATOM     18  C   UNL     1       0.928   8.934  20.491  0.00  0.00    +0.000 A 
ENDBRANCH   3  13
BRANCH   1  19
ATOM     19  C   UNL     1       5.078   6.756  16.750  0.00  0.00    +0.000 C 
ATOM     20  O   UNL     1       5.238   7.257  15.640  0.00  0.00    +0.000 OA
BRANCH  19  22
ATOM     21  C   UNL     1       7.140   5.418  16.666  0.00  0.00    +0.000 C 
ATOM     22  C   UNL     1       6.118   5.902  17.385  0.00  0.00    +0.000 C 
BRANCH  21  23
ATOM     23  N   UNL     1       7.362   5.577  15.325  0.00  0.00    +0.000 N 
ATOM     24  H   UNL     1       7.981   6.354  15.075  0.00  0.00    +0.000 HD
BRANCH  23  28
ATOM     25  C   UNL     1       5.665   3.293  12.209  0.00  0.00    +0.000 A 
ATOM     26  C   UNL     1       5.009   3.447  13.429  0.00  0.00    +0.000 A 
ATOM     27  C   UNL     1       5.569   4.236  14.437  0.00  0.00    +0.000 A 
ATOM     28  C   UNL     1       6.807   4.866  14.255  0.00  0.00    +0.000 A 
ATOM     29  C   UNL     1       7.468   4.678  13.037  0.00  0.00    +0.000 A 
ATOM     30  C   UNL     1       6.902   3.904  12.018  0.00  0.00    +0.000 A 
BRANCH  25  32
ATOM     31  C   UNL     1       3.767   2.991  10.846  0.00  0.00    +0.000 C 
ATOM     32  O   UNL     1       5.027   2.503  11.294  0.00  0.00    +0.000 OA
ENDBRANCH  25  32
ENDBRANCH  23  28
ENDBRANCH  21  23
ENDBRANCH  19  22
ENDBRANCH   1  19
TORSDOF 7
ENDMDL
MODEL 6
REMARK VINA RESULT:      -9.2      1.069      1.673
REMARK  Name = 
REMARK  8 active torsions:
REMARK  status: ('A' for Active; 'I' for Inactive)
REMARK    1  A    between atoms: C_1  and  O_2
REMARK    2  A    between atoms: O_2  and  C_3
REMARK    3  A    between atoms: C_6  and  N_7
REMARK    4  A    between atoms: N_7  and  C_8
REMARK    5  A    between atoms: C_9  and  C_10
REMARK    6  A    between atoms: C_10  and  C_12
REMARK    7  A    between atoms: N_14  and  C_15
REMARK    8  A    between atoms: C_22  and  C_23
REMARK                            x       y       z     vdW  Elec       q    Type
REMARK                         _______ _______ _______ _____ _____    ______ ____
ROOT
ATOM      1  C   UNL     1       5.583   5.943  17.448  0.00  0.00    +0.000 A 
ATOM      2  C   UNL     1       4.714   5.718  18.500  0.00  0.00    +0.000 A 
ATOM      3  N   UNL     1       3.935   4.636  18.173  0.00  0.00    +0.000 N 
ATOM      4  N   UNL     1       4.291   4.123  16.975  0.00  0.00    +0.000 NA
ATOM      5  C   UNL     1       5.265   4.919  16.503  0.00  0.00    +0.000 A 
ENDROOT
BRANCH   5   6
ATOM      6  C   UNL     1       5.812   4.682  15.159  0.00  0.00    +0.000 A 
ATOM      7  C   UNL     1       5.090   3.974  14.184  0.00  0.00    +0.000 A 
ATOM      8  C   UNL     1       5.640   3.734  12.920  0.00  0.00    +0.000 A 
ATOM      9  C   UNL     1       6.921   4.186  12.633  0.00  0.00    +0.000 A 
ATOM     10  F   UNL     1       7.451   3.943  11.427  0.00  0.00    +0.000 F 
ATOM     11  C   UNL     1       7.660   4.879  13.582  0.00  0.00    +0.000 A 
ATOM     12  C   UNL     1       7.107   5.126  14.842  0.00  0.00    +0.000 A 
ENDBRANCH   5   6
BRANCH   3  13
ATOM     13  C   UNL     1       2.870   4.074  18.930  0.00  0.00    +0.000 A 
ATOM     14  C   UNL     1       1.949   3.194  18.342  0.00  0.00    +0.000 A 
ATOM     15  C   UNL     1       0.916   2.645  19.105  0.00  0.00    +0.000 A 
ATOM     16  C   UNL     1       0.793   2.972  20.456  0.00  0.00    +0.000 A 
ATOM     17  C   UNL     1       1.705   3.843  21.047  0.00  0.00    +0.000 A 
ATOM     18  C   UNL     1       2.744   4.391  20.290  0.00  0.00    +0.000 A 
ENDBRANCH   3  13
BRANCH   1  19
ATOM     19  C   UNL     1       6.596   6.974  17.357  0.00  0.00    +0.000 C 
ATOM     20  O   UNL     1       6.494   7.963  16.636  0.00  0.00    +0.000 OA
BRANCH  19  22
ATOM     21  C   UNL     1       8.495   7.830  18.663  0.00  0.00    +0.000 C 
ATOM     22  C   UNL     1       7.752   6.785  18.275  0.00  0.00    +0.000 C 
BRANCH  21  23
ATOM     23  N   UNL     1       8.359   9.137  18.280  0.00  0.00    +0.000 N 
ATOM     24  H   UNL     1       7.660   9.307  17.551  0.00  0.00    +0.000 HD
BRANCH  23  28
ATOM     25  C   UNL     1      10.441  12.534  19.672  0.00  0.00    +0.000 A 
ATOM     26  C   UNL     1      10.045  11.523  20.546  0.00  0.00    +0.000 A 
ATOM     27  C   UNL     1       9.389  10.388  20.063  0.00  0.00    +0.000 A 
ATOM     28  C   UNL     1       9.092  10.254  18.701  0.00  0.00    +0.000 A 
ATOM     29  C   UNL     1       9.468  11.289  17.839  0.00  0.00    +0.000 A 
ATOM     30  C   UNL     1      10.143  12.419  18.316  0.00  0.00    +0.000 A 
BRANCH  25  32
ATOM     31  C   UNL     1      10.256  14.432  21.057  0.00  0.00    +0.000 C 
ATOM     32  O   UNL     1      11.078  13.595  20.251  0.00  0.00    +0.000 OA
ENDBRANCH  25  32
ENDBRANCH  23  28
ENDBRANCH  21  23
ENDBRANCH  19  22
ENDBRANCH   1  19
TORSDOF 7
ENDMDL
MODEL 7
REMARK VINA RESULT:      -9.2      4.731      7.722
REMARK  Name = 
REMARK  8 active torsions:
REMARK  status: ('A' for Active; 'I' for Inactive)
REMARK    1  A    between atoms: C_1  and  O_2
REMARK    2  A    between atoms: O_2  and  C_3
REMARK    3  A    between atoms: C_6  and  N_7
REMARK    4  A    between atoms: N_7  and  C_8
REMARK    5  A    between atoms: C_9  and  C_10
REMARK    6  A    between atoms: C_10  and  C_12
REMARK    7  A    between atoms: N_14  and  C_15
REMARK    8  A    between atoms: C_22  and  C_23
REMARK                            x       y       z     vdW  Elec       q    Type
REMARK                         _______ _______ _______ _____ _____    ______ ____
ROOT
ATOM      1  C   UNL     1       3.891   7.035  17.535  0.00  0.00    +0.000 A 
ATOM      2  C   UNL     1       3.271   8.238  17.813  0.00  0.00    +0.000 A 
ATOM      3  N   UNL     1       2.240   7.983  18.683  0.00  0.00    +0.000 N 
ATOM      4  N   UNL     1       2.195   6.675  19.017  0.00  0.00    +0.000 NA
ATOM      5  C   UNL     1       3.166   6.076  18.307  0.00  0.00    +0.000 A 
ENDROOT
BRANCH   5   6
ATOM      6  C   UNL     1       3.322   4.615  18.375  0.00  0.00    +0.000 A 
ATOM      7  C   UNL     1       2.945   3.784  17.307  0.00  0.00    +0.000 A 
ATOM      8  C   UNL     1       3.075   2.394  17.402  0.00  0.00    +0.000 A 
ATOM      9  C   UNL     1       3.565   1.830  18.572  0.00  0.00    +0.000 A 
ATOM     10  F   UNL     1       3.675   0.499  18.667  0.00  0.00    +0.000 F 
ATOM     11  C   UNL     1       3.934   2.628  19.647  0.00  0.00    +0.000 A 
ATOM     12  C   UNL     1       3.812   4.017  19.548  0.00  0.00    +0.000 A 
ENDBRANCH   5   6
BRANCH   3  13
ATOM     13  C   UNL     1       1.296   8.912  19.204  0.00  0.00    +0.000 A 
ATOM     14  C   UNL     1       0.582   9.772  18.356  0.00  0.00    +0.000 A 
ATOM     15  C   UNL     1      -0.346  10.670  18.887  0.00  0.00    +0.000 A 
ATOM     16  C   UNL     1      -0.567  10.719  20.263  0.00  0.00    +0.000 A 
ATOM     17  C   UNL     1       0.136   9.866  21.111  0.00  0.00    +0.000 A 
ATOM     18  C   UNL     1       1.063   8.961  20.586  0.00  0.00    +0.000 A 
ENDBRANCH   3  13
BRANCH   1  19
ATOM     19  C   UNL     1       5.036   6.820  16.672  0.00  0.00    +0.000 C 
ATOM     20  O   UNL     1       5.088   7.203  15.507  0.00  0.00    +0.000 OA
BRANCH  19  22
ATOM     21  C   UNL     1       7.227   5.706  16.618  0.00  0.00    +0.000 C 
ATOM     22  C   UNL     1       6.193   6.163  17.337  0.00  0.00    +0.000 C 
BRANCH  21  23
ATOM     23  N   UNL     1       7.367   5.725  15.256  0.00  0.00    +0.000 N 
ATOM     24  H   UNL     1       7.849   6.546  14.878  0.00  0.00    +0.000 HD
BRANCH  23  28
ATOM     25  C   UNL     1       5.899   3.101  12.295  0.00  0.00    +0.000 A 
ATOM     26  C   UNL     1       7.025   3.889  12.064  0.00  0.00    +0.000 A 
ATOM     27  C   UNL     1       7.518   4.726  13.069  0.00  0.00    +0.000 A 
ATOM     28  C   UNL     1       6.882   4.810  14.313  0.00  0.00    +0.000 A 
ATOM     29  C   UNL     1       5.735   4.036  14.521  0.00  0.00    +0.000 A 
ATOM     30  C   UNL     1       5.249   3.182  13.524  0.00  0.00    +0.000 A 
BRANCH  25  32
ATOM     31  C   UNL     1       6.290   1.149  11.033  0.00  0.00    +0.000 C 
ATOM     32  O   UNL     1       5.505   2.318  11.246  0.00  0.00    +0.000 OA
ENDBRANCH  25  32
ENDBRANCH  23  28
ENDBRANCH  21  23
ENDBRANCH  19  22
ENDBRANCH   1  19
TORSDOF 7
ENDMDL
MODEL 8
REMARK VINA RESULT:      -9.2      4.652      7.635
REMARK  Name = 
REMARK  8 active torsions:
REMARK  status: ('A' for Active; 'I' for Inactive)
REMARK    1  A    between atoms: C_1  and  O_2
REMARK    2  A    between atoms: O_2  and  C_3
REMARK    3  A    between atoms: C_6  and  N_7
REMARK    4  A    between atoms: N_7  and  C_8
REMARK    5  A    between atoms: C_9  and  C_10
REMARK    6  A    between atoms: C_10  and  C_12
REMARK    7  A    between atoms: N_14  and  C_15
REMARK    8  A    between atoms: C_22  and  C_23
REMARK                            x       y       z     vdW  Elec       q    Type
REMARK                         _______ _______ _______ _____ _____    ______ ____
ROOT
ATOM      1  C   UNL     1       3.909   7.087  17.560  0.00  0.00    +0.000 A 
ATOM      2  C   UNL     1       3.268   8.286  17.811  0.00  0.00    +0.000 A 
ATOM      3  N   UNL     1       2.190   8.021  18.619  0.00  0.00    +0.000 N 
ATOM      4  N   UNL     1       2.132   6.710  18.940  0.00  0.00    +0.000 NA
ATOM      5  C   UNL     1       3.144   6.120  18.282  0.00  0.00    +0.000 A 
ENDROOT
BRANCH   5   6
ATOM      6  C   UNL     1       3.303   4.659  18.348  0.00  0.00    +0.000 A 
ATOM      7  C   UNL     1       2.680   3.808  17.420  0.00  0.00    +0.000 A 
ATOM      8  C   UNL     1       2.820   2.420  17.517  0.00  0.00    +0.000 A 
ATOM      9  C   UNL     1       3.568   1.877  18.553  0.00  0.00    +0.000 A 
ATOM     10  F   UNL     1       3.689   0.547  18.652  0.00  0.00    +0.000 F 
ATOM     11  C   UNL     1       4.186   2.694  19.489  0.00  0.00    +0.000 A 
ATOM     12  C   UNL     1       4.053   4.083  19.387  0.00  0.00    +0.000 A 
ENDBRANCH   5   6
BRANCH   3  13
ATOM     13  C   UNL     1       1.215   8.941  19.093  0.00  0.00    +0.000 A 
ATOM     14  C   UNL     1       0.919   9.043  20.461  0.00  0.00    +0.000 A 
ATOM     15  C   UNL     1      -0.036   9.960  20.906  0.00  0.00    +0.000 A 
ATOM     16  C   UNL     1      -0.703  10.776  19.993  0.00  0.00    +0.000 A 
ATOM     17  C   UNL     1      -0.413  10.683  18.634  0.00  0.00    +0.000 A 
ATOM     18  C   UNL     1       0.545   9.771  18.182  0.00  0.00    +0.000 A 
ENDBRANCH   3  13
BRANCH   1  19
ATOM     19  C   UNL     1       5.101   6.884  16.762  0.00  0.00    +0.000 C 
ATOM     20  O   UNL     1       5.198   7.229  15.587  0.00  0.00    +0.000 OA
BRANCH  19  22
ATOM     21  C   UNL     1       7.320   5.827  16.852  0.00  0.00    +0.000 C 
ATOM     22  C   UNL     1       6.245   6.290  17.505  0.00  0.00    +0.000 C 
BRANCH  21  23
ATOM     23  N   UNL     1       7.516   5.784  15.498  0.00  0.00    +0.000 N 
ATOM     24  H   UNL     1       8.124   6.518  15.122  0.00  0.00    +0.000 HD
BRANCH  23  28
ATOM     25  C   UNL     1       5.772   3.312  12.556  0.00  0.00    +0.000 A 
ATOM     26  C   UNL     1       6.826   4.170  12.244  0.00  0.00    +0.000 A 
ATOM     27  C   UNL     1       7.415   4.955  13.238  0.00  0.00    +0.000 A 
ATOM     28  C   UNL     1       6.947   4.918  14.558  0.00  0.00    +0.000 A 
ATOM     29  C   UNL     1       5.870   4.074  14.851  0.00  0.00    +0.000 A 
ATOM     30  C   UNL     1       5.289   3.272  13.861  0.00  0.00    +0.000 A 
BRANCH  25  32
ATOM     31  C   UNL     1       4.012   3.023  11.016  0.00  0.00    +0.000 C 
ATOM     32  O   UNL     1       5.274   2.588  11.509  0.00  0.00    +0.000 OA
ENDBRANCH  25  32
ENDBRANCH  23  28
ENDBRANCH  21  23
ENDBRANCH  19  22
ENDBRANCH   1  19
TORSDOF 7
ENDMDL
MODEL 9
REMARK VINA RESULT:      -9.1      1.081      1.298
REMARK  Name = 
REMARK  8 active torsions:
REMARK  status: ('A' for Active; 'I' for Inactive)
REMARK    1  A    between atoms: C_1  and  O_2
REMARK    2  A    between atoms: O_2  and  C_3
REMARK    3  A    between atoms: C_6  and  N_7
REMARK    4  A    between atoms: N_7  and  C_8
REMARK    5  A    between atoms: C_9  and  C_10
REMARK    6  A    between atoms: C_10  and  C_12
REMARK    7  A    between atoms: N_14  and  C_15
REMARK    8  A    between atoms: C_22  and  C_23
REMARK                            x       y       z     vdW  Elec       q    Type
REMARK                         _______ _______ _______ _____ _____    ______ ____
ROOT
ATOM      1  C   UNL     1       5.627   5.940  17.475  0.00  0.00    +0.000 A 
ATOM      2  C   UNL     1       4.758   5.720  18.528  0.00  0.00    +0.000 A 
ATOM      3  N   UNL     1       4.010   4.610  18.224  0.00  0.00    +0.000 N 
ATOM      4  N   UNL     1       4.387   4.075  17.043  0.00  0.00    +0.000 NA
ATOM      5  C   UNL     1       5.343   4.885  16.555  0.00  0.00    +0.000 A 
ENDROOT
BRANCH   5   6
ATOM      6  C   UNL     1       5.905   4.627  15.221  0.00  0.00    +0.000 A 
ATOM      7  C   UNL     1       7.159   5.132  14.840  0.00  0.00    +0.000 A 
ATOM      8  C   UNL     1       7.664   4.900  13.556  0.00  0.00    +0.000 A 
ATOM      9  C   UNL     1       6.908   4.177  12.643  0.00  0.00    +0.000 A 
ATOM     10  F   UNL     1       7.386   3.968  11.410  0.00  0.00    +0.000 F 
ATOM     11  C   UNL     1       5.661   3.675  12.990  0.00  0.00    +0.000 A 
ATOM     12  C   UNL     1       5.161   3.900  14.276  0.00  0.00    +0.000 A 
ENDBRANCH   5   6
BRANCH   3  13
ATOM     13  C   UNL     1       2.956   4.040  18.990  0.00  0.00    +0.000 A 
ATOM     14  C   UNL     1       2.735   2.654  19.000  0.00  0.00    +0.000 A 
ATOM     15  C   UNL     1       1.700   2.113  19.766  0.00  0.00    +0.000 A 
ATOM     16  C   UNL     1       0.878   2.948  20.524  0.00  0.00    +0.000 A 
ATOM     17  C   UNL     1       1.094   4.324  20.522  0.00  0.00    +0.000 A 
ATOM     18  C   UNL     1       2.131   4.871  19.761  0.00  0.00    +0.000 A 
ENDBRANCH   3  13
BRANCH   1  19
ATOM     19  C   UNL     1       6.613   6.996  17.362  0.00  0.00    +0.000 C 
ATOM     20  O   UNL     1       6.480   7.974  16.631  0.00  0.00    +0.000 OA
BRANCH  19  22
ATOM     21  C   UNL     1       8.535   7.906  18.598  0.00  0.00    +0.000 C 
ATOM     22  C   UNL     1       7.782   6.847  18.271  0.00  0.00    +0.000 C 
BRANCH  21  23
ATOM     23  N   UNL     1       8.397   9.194  18.155  0.00  0.00    +0.000 N 
ATOM     24  H   UNL     1       7.868   9.301  17.284  0.00  0.00    +0.000 HD
BRANCH  23  28
ATOM     25  C   UNL     1      10.133  12.742  19.638  0.00  0.00    +0.000 A 
ATOM     26  C   UNL     1       9.614  12.679  18.346  0.00  0.00    +0.000 A 
ATOM     27  C   UNL     1       9.011  11.507  17.884  0.00  0.00    +0.000 A 
ATOM     28  C   UNL     1       8.937  10.367  18.694  0.00  0.00    +0.000 A 
ATOM     29  C   UNL     1       9.488  10.435  19.978  0.00  0.00    +0.000 A 
ATOM     30  C   UNL     1      10.076  11.613  20.451  0.00  0.00    +0.000 A 
BRANCH  25  32
ATOM     31  C   UNL     1      10.353  14.415  21.284  0.00  0.00    +0.000 C 
ATOM     32  O   UNL     1      10.697  13.937  19.988  0.00  0.00    +0.000 OA
ENDBRANCH  25  32
ENDBRANCH  23  28
ENDBRANCH  21  23
ENDBRANCH  19  22
ENDBRANCH   1  19
TORSDOF 7
ENDMDL
