MODEL 1
REMARK VINA RESULT:      -9.0      0.000      0.000
REMARK  Name = 
REMARK  13 active torsions:
REMARK  status: ('A' for Active; 'I' for Inactive)
REMARK    1  A    between atoms: C_1  and  C_2
REMARK    2  A    between atoms: C_2  and  C_3
REMARK    3  A    between atoms: C_5  and  C_6
REMARK    4  A    between atoms: C_6  and  O_7
REMARK    5  A    between atoms: O_7  and  C_8
REMARK    6  A    between atoms: C_8  and  C_9
REMARK    7  A    between atoms: C_15  and  O_16
REMARK    8  A    between atoms: O_16  and  C_17
REMARK    9  A    between atoms: C_17  and  C_18
REMARK   10  A    between atoms: C_24  and  O_25
REMARK   11  A    between atoms: O_25  and  C_26
REMARK   12  A    between atoms: C_26  and  C_27
REMARK   13  A    between atoms: C_33  and  O_34
REMARK                            x       y       z     vdW  Elec       q    Type
REMARK                         _______ _______ _______ _____ _____    ______ ____
ROOT
ATOM      1  C   UNL     1       7.636   5.984  18.078  0.00  0.00    +0.000 C 
ATOM      2  O   UNL     1       6.991   5.791  16.818  0.00  0.00    +0.000 OA
ATOM      3  C   UNL     1       6.446   4.458  16.736  0.00  0.00    +0.000 C 
ATOM      4  C   UNL     1       5.169   4.378  17.599  0.00  0.00    +0.000 C 
ATOM      5  C   UNL     1       5.398   4.935  19.048  0.00  0.00    +0.000 C 
ATOM      6  C   UNL     1       6.665   5.793  19.261  0.00  0.00    +0.000 C 
ENDROOT
BRANCH   1   8
ATOM      7  C   UNL     1       7.399   8.513  17.513  0.00  0.00    +0.000 C 
ATOM      8  C   UNL     1       8.200   7.421  18.198  0.00  0.00    +0.000 C 
ENDBRANCH   1   8
BRANCH   6   9
ATOM      9  O   UNL     1       7.396   5.256  20.385  0.00  0.00    +0.000 OA
ATOM     10  H   UNL     1       6.893   4.504  20.741  0.00  0.00    +0.000 HD
ENDBRANCH   6   9
BRANCH   3  11
ATOM     11  C   UNL     1       6.147   4.074  15.261  0.00  0.00    +0.000 C 
BRANCH  11  12
ATOM     12  O   UNL     1       6.517   5.157  14.398  0.00  0.00    +0.000 OA
BRANCH  12  13
ATOM     13  C   UNL     1       7.291   4.739  13.268  0.00  0.00    +0.000 C 
BRANCH  13  14
ATOM     14  C   UNL     1       6.498   3.737  12.452  0.00  0.00    +0.000 A 
ATOM     15  C   UNL     1       7.120   2.623  11.871  0.00  0.00    +0.000 A 
ATOM     16  C   UNL     1       6.384   1.714  11.110  0.00  0.00    +0.000 A 
ATOM     17  C   UNL     1       5.009   1.893  10.935  0.00  0.00    +0.000 A 
ATOM     18  C   UNL     1       4.372   2.971  11.538  0.00  0.00    +0.000 A 
ATOM     19  C   UNL     1       5.110   3.880  12.301  0.00  0.00    +0.000 A 
ENDBRANCH  13  14
ENDBRANCH  12  13
ENDBRANCH  11  12
ENDBRANCH   3  11
BRANCH   4  20
ATOM     20  O   UNL     1       4.769   2.970  17.574  0.00  0.00    +0.000 OA
BRANCH  20  21
ATOM     21  C   UNL     1       3.368   2.767  17.636  0.00  0.00    +0.000 C 
BRANCH  21  22
ATOM     22  C   UNL     1       2.675   3.022  18.939  0.00  0.00    +0.000 A 
ATOM     23  C   UNL     1       1.427   3.645  18.962  0.00  0.00    +0.000 A 
ATOM     24  C   UNL     1       0.733   3.759  20.163  0.00  0.00    +0.000 A 
ATOM     25  C   UNL     1       1.277   3.230  21.333  0.00  0.00    +0.000 A 
ATOM     26  C   UNL     1       2.499   2.573  21.315  0.00  0.00    +0.000 A 
ATOM     27  C   UNL     1       3.192   2.451  20.114  0.00  0.00    +0.000 A 
ENDBRANCH  21  22
ENDBRANCH  20  21
ENDBRANCH   4  20
BRANCH   5  28
ATOM     28  O   UNL     1       4.316   5.829  19.510  0.00  0.00    +0.000 OA
BRANCH  28  29
ATOM     29  C   UNL     1       3.553   6.422  18.477  0.00  0.00    +0.000 C 
BRANCH  29  30
ATOM     30  C   UNL     1       2.505   7.434  18.824  0.00  0.00    +0.000 A 
ATOM     31  C   UNL     1       1.996   7.553  20.112  0.00  0.00    +0.000 A 
ATOM     32  C   UNL     1       1.161   8.624  20.424  0.00  0.00    +0.000 A 
ATOM     33  C   UNL     1       0.849   9.588  19.462  0.00  0.00    +0.000 A 
ATOM     34  C   UNL     1       1.375   9.493  18.178  0.00  0.00    +0.000 A 
ATOM     35  C   UNL     1       2.203   8.422  17.862  0.00  0.00    +0.000 A 
ENDBRANCH  29  30
ENDBRANCH  28  29
ENDBRANCH   5  28
TORSDOF 12
ENDMDL
MODEL 2
REMARK VINA RESULT:      -8.7      0.477      1.530
REMARK  Name = 
REMARK  13 active torsions:
REMARK  status: ('A' for Active; 'I' for Inactive)
REMARK    1  A    between atoms: C_1  and  C_2
REMARK    2  A    between atoms: C_2  and  C_3
REMARK    3  A    between atoms: C_5  and  C_6
REMARK    4  A    between atoms: C_6  and  O_7
REMARK    5  A    between atoms: O_7  and  C_8
REMARK    6  A    between atoms: C_8  and  C_9
REMARK    7  A    between atoms: C_15  and  O_16
REMARK    8  A    between atoms: O_16  and  C_17
REMARK    9  A    between atoms: C_17  and  C_18
REMARK   10  A    between atoms: C_24  and  O_25
REMARK   11  A    between atoms: O_25  and  C_26
REMARK   12  A    between atoms: C_26  and  C_27
REMARK   13  A    between atoms: C_33  and  O_34
REMARK                            x       y       z     vdW  Elec       q    Type
REMARK                         _______ _______ _______ _____ _____    ______ ____
ROOT
ATOM      1  C   UNL     1       7.193   6.252  17.563  0.00  0.00    +0.000 C 
ATOM      2  O   UNL     1       6.452   5.931  16.385  0.00  0.00    +0.000 OA
ATOM      3  C   UNL     1       6.058   4.544  16.406  0.00  0.00    +0.000 C 
ATOM      4  C   UNL     1       4.891   4.363  17.400  0.00  0.00    +0.000 C 
ATOM      5  C   UNL     1       5.199   5.007  18.798  0.00  0.00    +0.000 C 
ATOM      6  C   UNL     1       6.374   6.009  18.848  0.00  0.00    +0.000 C 
ENDROOT
BRANCH   1   8
ATOM      7  C   UNL     1       8.596   8.160  18.640  0.00  0.00    +0.000 C 
ATOM      8  C   UNL     1       7.598   7.746  17.575  0.00  0.00    +0.000 C 
ENDBRANCH   1   8
BRANCH   6   9
ATOM      9  O   UNL     1       7.270   5.607  19.906  0.00  0.00    +0.000 OA
ATOM     10  H   UNL     1       8.169   5.886  19.663  0.00  0.00    +0.000 HD
ENDBRANCH   6   9
BRANCH   3  11
ATOM     11  C   UNL     1       5.659   4.063  14.984  0.00  0.00    +0.000 C 
BRANCH  11  12
ATOM     12  O   UNL     1       5.951   5.090  14.029  0.00  0.00    +0.000 OA
BRANCH  12  13
ATOM     13  C   UNL     1       6.990   4.730  13.111  0.00  0.00    +0.000 C 
BRANCH  13  14
ATOM     14  C   UNL     1       6.557   3.523  12.304  0.00  0.00    +0.000 A 
ATOM     15  C   UNL     1       5.202   3.275  12.041  0.00  0.00    +0.000 A 
ATOM     16  C   UNL     1       4.812   2.153  11.309  0.00  0.00    +0.000 A 
ATOM     17  C   UNL     1       5.773   1.270  10.810  0.00  0.00    +0.000 A 
ATOM     18  C   UNL     1       7.122   1.523  11.029  0.00  0.00    +0.000 A 
ATOM     19  C   UNL     1       7.512   2.648  11.760  0.00  0.00    +0.000 A 
ENDBRANCH  13  14
ENDBRANCH  12  13
ENDBRANCH  11  12
ENDBRANCH   3  11
BRANCH   4  20
ATOM     20  O   UNL     1       4.655   2.919  17.464  0.00  0.00    +0.000 OA
BRANCH  20  21
ATOM     21  C   UNL     1       3.285   2.561  17.541  0.00  0.00    +0.000 C 
BRANCH  21  22
ATOM     22  C   UNL     1       2.581   2.745  18.849  0.00  0.00    +0.000 A 
ATOM     23  C   UNL     1       3.214   2.399  20.044  0.00  0.00    +0.000 A 
ATOM     24  C   UNL     1       2.605   2.695  21.260  0.00  0.00    +0.000 A 
ATOM     25  C   UNL     1       1.377   3.355  21.280  0.00  0.00    +0.000 A 
ATOM     26  C   UNL     1       0.758   3.740  20.099  0.00  0.00    +0.000 A 
ATOM     27  C   UNL     1       1.367   3.452  18.882  0.00  0.00    +0.000 A 
ENDBRANCH  21  22
ENDBRANCH  20  21
ENDBRANCH   4  20
BRANCH   5  28
ATOM     28  O   UNL     1       4.073   5.795  19.340  0.00  0.00    +0.000 OA
BRANCH  28  29
ATOM     29  C   UNL     1       3.278   6.443  18.365  0.00  0.00    +0.000 C 
BRANCH  29  30
ATOM     30  C   UNL     1       2.473   7.646  18.753  0.00  0.00    +0.000 A 
ATOM     31  C   UNL     1       2.023   8.564  17.811  0.00  0.00    +0.000 A 
ATOM     32  C   UNL     1       1.129   9.561  18.196  0.00  0.00    +0.000 A 
ATOM     33  C   UNL     1       0.666   9.633  19.513  0.00  0.00    +0.000 A 
ATOM     34  C   UNL     1       1.090   8.702  20.457  0.00  0.00    +0.000 A 
ATOM     35  C   UNL     1       1.986   7.711  20.077  0.00  0.00    +0.000 A 
ENDBRANCH  29  30
ENDBRANCH  28  29
ENDBRANCH   5  28
TORSDOF 12
ENDMDL
MODEL 3
REMARK VINA RESULT:      -8.4      0.869      1.459
REMARK  Name = 
REMARK  13 active torsions:
REMARK  status: ('A' for Active; 'I' for Inactive)
REMARK    1  A    between atoms: C_1  and  C_2
REMARK    2  A    between atoms: C_2  and  C_3
REMARK    3  A    between atoms: C_5  and  C_6
REMARK    4  A    between atoms: C_6  and  O_7
REMARK    5  A    between atoms: O_7  and  C_8
REMARK    6  A    between atoms: C_8  and  C_9
REMARK    7  A    between atoms: C_15  and  O_16
REMARK    8  A    between atoms: O_16  and  C_17
REMARK    9  A    between atoms: C_17  and  C_18
REMARK   10  A    between atoms: C_24  and  O_25
REMARK   11  A    between atoms: O_25  and  C_26
REMARK   12  A    between atoms: C_26  and  C_27
REMARK   13  A    between atoms: C_33  and  O_34
REMARK                            x       y       z     vdW  Elec       q    Type
REMARK                         _______ _______ _______ _____ _____    ______ ____
ROOT
ATOM      1  C   UNL     1       7.472   6.008  17.763  0.00  0.00    +0.000 C 
ATOM      2  O   UNL     1       7.128   5.961  16.378  0.00  0.00    +0.000 OA
ATOM      3  C   UNL     1       6.316   4.800  16.104  0.00  0.00    +0.000 C 
ATOM      4  C   UNL     1       4.886   5.047  16.629  0.00  0.00    +0.000 C 
ATOM      5  C   UNL     1       4.880   5.551  18.116  0.00  0.00    +0.000 C 
ATOM      6  C   UNL     1       6.224   6.077  18.668  0.00  0.00    +0.000 C 
ENDROOT
BRANCH   1   8
ATOM      7  C   UNL     1       7.732   8.594  17.642  0.00  0.00    +0.000 C 
ATOM      8  C   UNL     1       8.317   7.265  18.083  0.00  0.00    +0.000 C 
ENDBRANCH   1   8
BRANCH   6   9
ATOM      9  O   UNL     1       6.506   5.393  19.908  0.00  0.00    +0.000 OA
ATOM     10  H   UNL     1       7.346   4.914  19.805  0.00  0.00    +0.000 HD
ENDBRANCH   6   9
BRANCH   3  11
ATOM     11  C   UNL     1       6.305   4.481  14.585  0.00  0.00    +0.000 C 
BRANCH  11  12
ATOM     12  O   UNL     1       7.451   5.072  13.960  0.00  0.00    +0.000 OA
BRANCH  12  13
ATOM     13  C   UNL     1       7.361   5.106  12.531  0.00  0.00    +0.000 C 
BRANCH  13  14
ATOM     14  C   UNL     1       6.793   3.795  12.027  0.00  0.00    +0.000 A 
ATOM     15  C   UNL     1       5.408   3.590  11.944  0.00  0.00    +0.000 A 
ATOM     16  C   UNL     1       4.894   2.373  11.493  0.00  0.00    +0.000 A 
ATOM     17  C   UNL     1       5.758   1.348  11.098  0.00  0.00    +0.000 A 
ATOM     18  C   UNL     1       7.132   1.551  11.137  0.00  0.00    +0.000 A 
ATOM     19  C   UNL     1       7.645   2.769  11.588  0.00  0.00    +0.000 A 
ENDBRANCH  13  14
ENDBRANCH  12  13
ENDBRANCH  11  12
ENDBRANCH   3  11
BRANCH   4  20
ATOM     20  O   UNL     1       4.179   3.779  16.443  0.00  0.00    +0.000 OA
BRANCH  20  21
ATOM     21  C   UNL     1       4.314   2.877  17.529  0.00  0.00    +0.000 C 
BRANCH  21  22
ATOM     22  C   UNL     1       3.193   2.790  18.517  0.00  0.00    +0.000 A 
ATOM     23  C   UNL     1       3.463   2.765  19.886  0.00  0.00    +0.000 A 
ATOM     24  C   UNL     1       2.413   2.817  20.799  0.00  0.00    +0.000 A 
ATOM     25  C   UNL     1       1.100   2.917  20.342  0.00  0.00    +0.000 A 
ATOM     26  C   UNL     1       0.822   2.983  18.984  0.00  0.00    +0.000 A 
ATOM     27  C   UNL     1       1.870   2.938  18.070  0.00  0.00    +0.000 A 
ENDBRANCH  21  22
ENDBRANCH  20  21
ENDBRANCH   4  20
BRANCH   5  28
ATOM     28  O   UNL     1       3.965   6.689  18.345  0.00  0.00    +0.000 OA
BRANCH  28  29
ATOM     29  C   UNL     1       2.842   6.395  19.154  0.00  0.00    +0.000 C 
BRANCH  29  30
ATOM     30  C   UNL     1       1.956   7.510  19.616  0.00  0.00    +0.000 A 
ATOM     31  C   UNL     1       1.533   7.613  20.937  0.00  0.00    +0.000 A 
ATOM     32  C   UNL     1       0.863   8.761  21.355  0.00  0.00    +0.000 A 
ATOM     33  C   UNL     1       0.633   9.815  20.467  0.00  0.00    +0.000 A 
ATOM     34  C   UNL     1       1.076   9.733  19.151  0.00  0.00    +0.000 A 
ATOM     35  C   UNL     1       1.739   8.587  18.729  0.00  0.00    +0.000 A 
ENDBRANCH  29  30
ENDBRANCH  28  29
ENDBRANCH   5  28
TORSDOF 12
ENDMDL
MODEL 4
REMARK VINA RESULT:      -8.3      0.912      1.502
REMARK  Name = 
REMARK  13 active torsions:
REMARK  status: ('A' for Active; 'I' for Inactive)
REMARK    1  A    between atoms: C_1  and  C_2
REMARK    2  A    between atoms: C_2  and  C_3
REMARK    3  A    between atoms: C_5  and  C_6
REMARK    4  A    between atoms: C_6  and  O_7
REMARK    5  A    between atoms: O_7  and  C_8
REMARK    6  A    between atoms: C_8  and  C_9
REMARK    7  A    between atoms: C_15  and  O_16
REMARK    8  A    between atoms: O_16  and  C_17
REMARK    9  A    between atoms: C_17  and  C_18
REMARK   10  A    between atoms: C_24  and  O_25
REMARK   11  A    between atoms: O_25  and  C_26
REMARK   12  A    between atoms: C_26  and  C_27
REMARK   13  A    between atoms: C_33  and  O_34
REMARK                            x       y       z     vdW  Elec       q    Type
REMARK                         _______ _______ _______ _____ _____    ______ ____
ROOT
ATOM      1  C   UNL     1       7.423   5.978  17.963  0.00  0.00    +0.000 C 
ATOM      2  O   UNL     1       7.349   5.792  16.549  0.00  0.00    +0.000 OA
ATOM      3  C   UNL     1       6.538   4.640  16.239  0.00  0.00    +0.000 C 
ATOM      4  C   UNL     1       5.051   4.997  16.446  0.00  0.00    +0.000 C 
ATOM      5  C   UNL     1       4.789   5.660  17.844  0.00  0.00    +0.000 C 
ATOM      6  C   UNL     1       6.031   6.192  18.594  0.00  0.00    +0.000 C 
ENDROOT
BRANCH   1   8
ATOM      7  C   UNL     1       7.805   8.537  17.697  0.00  0.00    +0.000 C 
ATOM      8  C   UNL     1       8.263   7.230  18.316  0.00  0.00    +0.000 C 
ENDBRANCH   1   8
BRANCH   6   9
ATOM      9  O   UNL     1       6.030   5.638  19.927  0.00  0.00    +0.000 OA
ATOM     10  H   UNL     1       6.646   6.157  20.471  0.00  0.00    +0.000 HD
ENDBRANCH   6   9
BRANCH   3  11
ATOM     11  C   UNL     1       6.799   4.157  14.787  0.00  0.00    +0.000 C 
BRANCH  11  12
ATOM     12  O   UNL     1       6.918   5.290  13.916  0.00  0.00    +0.000 OA
BRANCH  12  13
ATOM     13  C   UNL     1       7.505   4.970  12.650  0.00  0.00    +0.000 C 
BRANCH  13  14
ATOM     14  C   UNL     1       6.842   3.732  12.082  0.00  0.00    +0.000 A 
ATOM     15  C   UNL     1       7.605   2.658  11.599  0.00  0.00    +0.000 A 
ATOM     16  C   UNL     1       6.985   1.528  11.064  0.00  0.00    +0.000 A 
ATOM     17  C   UNL     1       5.591   1.445  11.022  0.00  0.00    +0.000 A 
ATOM     18  C   UNL     1       4.822   2.484  11.532  0.00  0.00    +0.000 A 
ATOM     19  C   UNL     1       5.443   3.614  12.069  0.00  0.00    +0.000 A 
ENDBRANCH  13  14
ENDBRANCH  12  13
ENDBRANCH  11  12
ENDBRANCH   3  11
BRANCH   4  20
ATOM     20  O   UNL     1       4.319   3.743  16.251  0.00  0.00    +0.000 OA
BRANCH  20  21
ATOM     21  C   UNL     1       4.355   2.874  17.371  0.00  0.00    +0.000 C 
BRANCH  21  22
ATOM     22  C   UNL     1       3.217   2.927  18.342  0.00  0.00    +0.000 A 
ATOM     23  C   UNL     1       3.465   3.047  19.710  0.00  0.00    +0.000 A 
ATOM     24  C   UNL     1       2.403   3.228  20.592  0.00  0.00    +0.000 A 
ATOM     25  C   UNL     1       1.100   3.312  20.103  0.00  0.00    +0.000 A 
ATOM     26  C   UNL     1       0.846   3.236  18.741  0.00  0.00    +0.000 A 
ATOM     27  C   UNL     1       1.906   3.061  17.856  0.00  0.00    +0.000 A 
ENDBRANCH  21  22
ENDBRANCH  20  21
ENDBRANCH   4  20
BRANCH   5  28
ATOM     28  O   UNL     1       3.915   6.849  17.773  0.00  0.00    +0.000 OA
BRANCH  28  29
ATOM     29  C   UNL     1       2.632   6.678  18.345  0.00  0.00    +0.000 C 
BRANCH  29  30
ATOM     30  C   UNL     1       2.049   7.772  19.186  0.00  0.00    +0.000 A 
ATOM     31  C   UNL     1       1.615   8.972  18.634  0.00  0.00    +0.000 A 
ATOM     32  C   UNL     1       0.918   9.880  19.428  0.00  0.00    +0.000 A 
ATOM     33  C   UNL     1       0.633   9.586  20.764  0.00  0.00    +0.000 A 
ATOM     34  C   UNL     1       1.040   8.377  21.318  0.00  0.00    +0.000 A 
ATOM     35  C   UNL     1       1.741   7.472  20.531  0.00  0.00    +0.000 A 
ENDBRANCH  29  30
ENDBRANCH  28  29
ENDBRANCH   5  28
TORSDOF 12
ENDMDL
MODEL 5
REMARK VINA RESULT:      -8.2      3.273      9.279
REMARK  Name = 
REMARK  13 active torsions:
REMARK  status: ('A' for Active; 'I' for Inactive)
REMARK    1  A    between atoms: C_1  and  C_2
REMARK    2  A    between atoms: C_2  and  C_3
REMARK    3  A    between atoms: C_5  and  C_6
REMARK    4  A    between atoms: C_6  and  O_7
REMARK    5  A    between atoms: O_7  and  C_8
REMARK    6  A    between atoms: C_8  and  C_9
REMARK    7  A    between atoms: C_15  and  O_16
REMARK    8  A    between atoms: O_16  and  C_17
REMARK    9  A    between atoms: C_17  and  C_18
REMARK   10  A    between atoms: C_24  and  O_25
REMARK   11  A    between atoms: O_25  and  C_26
REMARK   12  A    between atoms: C_26  and  C_27
REMARK   13  A    between atoms: C_33  and  O_34
REMARK                            x       y       z     vdW  Elec       q    Type
REMARK                         _______ _______ _______ _____ _____    ______ ____
ROOT
ATOM      1  C   UNL     1       1.084  10.529  19.111  0.00  0.00    +0.000 C 
ATOM      2  O   UNL     1       1.476  10.258  20.458  0.00  0.00    +0.000 OA
ATOM      3  C   UNL     1       1.020   8.950  20.857  0.00  0.00    +0.000 C 
ATOM      4  C   UNL     1       1.913   7.878  20.197  0.00  0.00    +0.000 C 
ATOM      5  C   UNL     1       2.069   8.107  18.651  0.00  0.00    +0.000 C 
ATOM      6  C   UNL     1       1.665   9.500  18.120  0.00  0.00    +0.000 C 
ENDROOT
BRANCH   1   8
ATOM      7  C   UNL     1       0.557  13.026  18.602  0.00  0.00    +0.000 C 
ATOM      8  C   UNL     1       1.593  11.918  18.654  0.00  0.00    +0.000 C 
ENDBRANCH   1   8
BRANCH   6   9
ATOM      9  O   UNL     1       0.734   9.320  17.031  0.00  0.00    +0.000 OA
ATOM     10  H   UNL     1       0.768  10.114  16.470  0.00  0.00    +0.000 HD
ENDBRANCH   6   9
BRANCH   3  11
ATOM     11  C   UNL     1       1.031   8.809  22.403  0.00  0.00    +0.000 C 
BRANCH  11  12
ATOM     12  O   UNL     1       0.594  10.037  23.001  0.00  0.00    +0.000 OA
BRANCH  12  13
ATOM     13  C   UNL     1      -0.825  10.104  23.179  0.00  0.00    +0.000 C 
BRANCH  13  14
ATOM     14  C   UNL     1      -1.303  11.518  22.913  0.00  0.00    +0.000 A 
ATOM     15  C   UNL     1      -0.508  12.429  22.202  0.00  0.00    +0.000 A 
ATOM     16  C   UNL     1      -0.951  13.733  21.974  0.00  0.00    +0.000 A 
ATOM     17  C   UNL     1      -2.204  14.141  22.437  0.00  0.00    +0.000 A 
ATOM     18  C   UNL     1      -3.019  13.238  23.109  0.00  0.00    +0.000 A 
ATOM     19  C   UNL     1      -2.576  11.932  23.335  0.00  0.00    +0.000 A 
ENDBRANCH  13  14
ENDBRANCH  12  13
ENDBRANCH  11  12
ENDBRANCH   3  11
BRANCH   4  20
ATOM     20  O   UNL     1       1.296   6.594  20.535  0.00  0.00    +0.000 OA
BRANCH  20  21
ATOM     21  C   UNL     1       2.228   5.560  20.808  0.00  0.00    +0.000 C 
BRANCH  21  22
ATOM     22  C   UNL     1       2.485   4.543  19.741  0.00  0.00    +0.000 A 
ATOM     23  C   UNL     1       1.625   4.438  18.647  0.00  0.00    +0.000 A 
ATOM     24  C   UNL     1       1.942   3.583  17.596  0.00  0.00    +0.000 A 
ATOM     25  C   UNL     1       3.129   2.852  17.630  0.00  0.00    +0.000 A 
ATOM     26  C   UNL     1       4.012   2.978  18.693  0.00  0.00    +0.000 A 
ATOM     27  C   UNL     1       3.700   3.838  19.742  0.00  0.00    +0.000 A 
ENDBRANCH  21  22
ENDBRANCH  20  21
ENDBRANCH   4  20
BRANCH   5  28
ATOM     28  O   UNL     1       3.460   7.965  18.176  0.00  0.00    +0.000 OA
BRANCH  28  29
ATOM     29  C   UNL     1       3.653   6.966  17.192  0.00  0.00    +0.000 C 
BRANCH  29  30
ATOM     30  C   UNL     1       4.973   6.263  17.107  0.00  0.00    +0.000 A 
ATOM     31  C   UNL     1       5.834   6.182  18.195  0.00  0.00    +0.000 A 
ATOM     32  C   UNL     1       6.961   5.366  18.120  0.00  0.00    +0.000 A 
ATOM     33  C   UNL     1       7.221   4.614  16.971  0.00  0.00    +0.000 A 
ATOM     34  C   UNL     1       6.351   4.668  15.886  0.00  0.00    +0.000 A 
ATOM     35  C   UNL     1       5.230   5.486  15.956  0.00  0.00    +0.000 A 
ENDBRANCH  29  30
ENDBRANCH  28  29
ENDBRANCH   5  28
TORSDOF 12
ENDMDL
MODEL 6
REMARK VINA RESULT:      -8.1      0.575      1.298
REMARK  Name = 
REMARK  13 active torsions:
REMARK  status: ('A' for Active; 'I' for Inactive)
REMARK    1  A    between atoms: C_1  and  C_2
REMARK    2  A    between atoms: C_2  and  C_3
REMARK    3  A    between atoms: C_5  and  C_6
REMARK    4  A    between atoms: C_6  and  O_7
REMARK    5  A    between atoms: O_7  and  C_8
REMARK    6  A    between atoms: C_8  and  C_9
REMARK    7  A    between atoms: C_15  and  O_16
REMARK    8  A    between atoms: O_16  and  C_17
REMARK    9  A    between atoms: C_17  and  C_18
REMARK   10  A    between atoms: C_24  and  O_25
REMARK   11  A    between atoms: O_25  and  C_26
REMARK   12  A    between atoms: C_26  and  C_27
REMARK   13  A    between atoms: C_33  and  O_34
REMARK                            x       y       z     vdW  Elec       q    Type
REMARK                         _______ _______ _______ _____ _____    ______ ____
ROOT
ATOM      1  C   UNL     1       7.714   6.427  18.198  0.00  0.00    +0.000 C 
ATOM      2  O   UNL     1       6.957   6.440  16.987  0.00  0.00    +0.000 OA
ATOM      3  C   UNL     1       6.412   5.131  16.724  0.00  0.00    +0.000 C 
ATOM      4  C   UNL     1       5.220   4.879  17.671  0.00  0.00    +0.000 C 
ATOM      5  C   UNL     1       5.578   5.183  19.169  0.00  0.00    +0.000 C 
ATOM      6  C   UNL     1       6.856   6.016  19.413  0.00  0.00    +0.000 C 
ENDROOT
BRANCH   1   8
ATOM      7  C   UNL     1       7.882   8.944  17.561  0.00  0.00    +0.000 C 
ATOM      8  C   UNL     1       8.280   7.833  18.515  0.00  0.00    +0.000 C 
ENDBRANCH   1   8
BRANCH   6   9
ATOM      9  O   UNL     1       7.687   5.309  20.357  0.00  0.00    +0.000 OA
ATOM     10  H   UNL     1       8.277   4.718  19.858  0.00  0.00    +0.000 HD
ENDBRANCH   6   9
BRANCH   3  11
ATOM     11  C   UNL     1       5.982   5.000  15.238  0.00  0.00    +0.000 C 
BRANCH  11  12
ATOM     12  O   UNL     1       6.838   4.065  14.570  0.00  0.00    +0.000 OA
BRANCH  12  13
ATOM     13  C   UNL     1       7.046   4.377  13.188  0.00  0.00    +0.000 C 
BRANCH  13  14
ATOM     14  C   UNL     1       6.190   3.469  12.328  0.00  0.00    +0.000 A 
ATOM     15  C   UNL     1       4.874   3.820  11.993  0.00  0.00    +0.000 A 
ATOM     16  C   UNL     1       4.088   2.970  11.212  0.00  0.00    +0.000 A 
ATOM     17  C   UNL     1       4.613   1.765  10.738  0.00  0.00    +0.000 A 
ATOM     18  C   UNL     1       5.928   1.423  11.029  0.00  0.00    +0.000 A 
ATOM     19  C   UNL     1       6.714   2.275  11.809  0.00  0.00    +0.000 A 
ENDBRANCH  13  14
ENDBRANCH  12  13
ENDBRANCH  11  12
ENDBRANCH   3  11
BRANCH   4  20
ATOM     20  O   UNL     1       4.825   3.488  17.438  0.00  0.00    +0.000 OA
BRANCH  20  21
ATOM     21  C   UNL     1       3.426   3.298  17.312  0.00  0.00    +0.000 C 
BRANCH  21  22
ATOM     22  C   UNL     1       2.634   3.046  18.557  0.00  0.00    +0.000 A 
ATOM     23  C   UNL     1       3.269   2.601  19.717  0.00  0.00    +0.000 A 
ATOM     24  C   UNL     1       2.549   2.496  20.903  0.00  0.00    +0.000 A 
ATOM     25  C   UNL     1       1.202   2.857  20.932  0.00  0.00    +0.000 A 
ATOM     26  C   UNL     1       0.570   3.338  19.795  0.00  0.00    +0.000 A 
ATOM     27  C   UNL     1       1.290   3.451  18.609  0.00  0.00    +0.000 A 
ENDBRANCH  21  22
ENDBRANCH  20  21
ENDBRANCH   4  20
BRANCH   5  28
ATOM     28  O   UNL     1       4.538   5.962  19.872  0.00  0.00    +0.000 OA
BRANCH  28  29
ATOM     29  C   UNL     1       3.262   5.935  19.264  0.00  0.00    +0.000 C 
BRANCH  29  30
ATOM     30  C   UNL     1       2.469   7.202  19.160  0.00  0.00    +0.000 A 
ATOM     31  C   UNL     1       1.804   7.744  20.255  0.00  0.00    +0.000 A 
ATOM     32  C   UNL     1       1.235   9.011  20.153  0.00  0.00    +0.000 A 
ATOM     33  C   UNL     1       1.345   9.750  18.972  0.00  0.00    +0.000 A 
ATOM     34  C   UNL     1       2.032   9.228  17.881  0.00  0.00    +0.000 A 
ATOM     35  C   UNL     1       2.595   7.961  17.977  0.00  0.00    +0.000 A 
ENDBRANCH  29  30
ENDBRANCH  28  29
ENDBRANCH   5  28
TORSDOF 12
ENDMDL
MODEL 7
REMARK VINA RESULT:      -8.1      2.084      6.802
REMARK  Name = 
REMARK  13 active torsions:
REMARK  status: ('A' for Active; 'I' for Inactive)
REMARK    1  A    between atoms: C_1  and  C_2
REMARK    2  A    between atoms: C_2  and  C_3
REMARK    3  A    between atoms: C_5  and  C_6
REMARK    4  A    between atoms: C_6  and  O_7
REMARK    5  A    between atoms: O_7  and  C_8
REMARK    6  A    between atoms: C_8  and  C_9
REMARK    7  A    between atoms: C_15  and  O_16
REMARK    8  A    between atoms: O_16  and  C_17
REMARK    9  A    between atoms: C_17  and  C_18
REMARK   10  A    between atoms: C_24  and  O_25
REMARK   11  A    between atoms: O_25  and  C_26
REMARK   12  A    between atoms: C_26  and  C_27
REMARK   13  A    between atoms: C_33  and  O_34
REMARK                            x       y       z     vdW  Elec       q    Type
REMARK                         _______ _______ _______ _____ _____    ______ ____
ROOT
ATOM      1  C   UNL     1       6.871   5.487  14.889  0.00  0.00    +0.000 C 
ATOM      2  O   UNL     1       7.597   5.781  16.083  0.00  0.00    +0.000 OA
ATOM      3  C   UNL     1       6.792   6.579  16.974  0.00  0.00    +0.000 C 
ATOM      4  C   UNL     1       5.725   5.681  17.636  0.00  0.00    +0.000 C 
ATOM      5  C   UNL     1       4.936   4.825  16.583  0.00  0.00    +0.000 C 
ATOM      6  C   UNL     1       5.569   4.711  15.178  0.00  0.00    +0.000 C 
ENDROOT
BRANCH   1   8
ATOM      7  C   UNL     1       7.680   4.992  12.467  0.00  0.00    +0.000 C 
ATOM      8  C   UNL     1       7.708   4.603  13.933  0.00  0.00    +0.000 C 
ENDBRANCH   1   8
BRANCH   6   9
ATOM      9  O   UNL     1       4.575   5.082  14.199  0.00  0.00    +0.000 OA
ATOM     10  H   UNL     1       3.699   5.008  14.615  0.00  0.00    +0.000 HD
ENDBRANCH   6   9
BRANCH   3  11
ATOM     11  C   UNL     1       7.677   7.275  18.044  0.00  0.00    +0.000 C 
BRANCH  11  12
ATOM     12  O   UNL     1       8.335   8.407  17.461  0.00  0.00    +0.000 OA
BRANCH  12  13
ATOM     13  C   UNL     1       7.891   9.657  18.000  0.00  0.00    +0.000 C 
BRANCH  13  14
ATOM     14  C   UNL     1       9.075  10.414  18.568  0.00  0.00    +0.000 A 
ATOM     15  C   UNL     1      10.032  10.999  17.725  0.00  0.00    +0.000 A 
ATOM     16  C   UNL     1      11.127  11.681  18.258  0.00  0.00    +0.000 A 
ATOM     17  C   UNL     1      11.272  11.808  19.641  0.00  0.00    +0.000 A 
ATOM     18  C   UNL     1      10.311  11.268  20.488  0.00  0.00    +0.000 A 
ATOM     19  C   UNL     1       9.214  10.586  19.954  0.00  0.00    +0.000 A 
ENDBRANCH  13  14
ENDBRANCH  12  13
ENDBRANCH  11  12
ENDBRANCH   3  11
BRANCH   4  20
ATOM     20  O   UNL     1       4.871   6.591  18.402  0.00  0.00    +0.000 OA
BRANCH  20  21
ATOM     21  C   UNL     1       3.666   6.944  17.743  0.00  0.00    +0.000 C 
BRANCH  21  22
ATOM     22  C   UNL     1       2.611   7.652  18.534  0.00  0.00    +0.000 A 
ATOM     23  C   UNL     1       2.304   7.233  19.829  0.00  0.00    +0.000 A 
ATOM     24  C   UNL     1       1.418   7.977  20.605  0.00  0.00    +0.000 A 
ATOM     25  C   UNL     1       0.860   9.148  20.092  0.00  0.00    +0.000 A 
ATOM     26  C   UNL     1       1.191   9.596  18.821  0.00  0.00    +0.000 A 
ATOM     27  C   UNL     1       2.081   8.858  18.047  0.00  0.00    +0.000 A 
ENDBRANCH  21  22
ENDBRANCH  20  21
ENDBRANCH   4  20
BRANCH   5  28
ATOM     28  O   UNL     1       4.771   3.412  16.983  0.00  0.00    +0.000 OA
BRANCH  28  29
ATOM     29  C   UNL     1       3.436   3.018  17.234  0.00  0.00    +0.000 C 
BRANCH  29  30
ATOM     30  C   UNL     1       2.814   3.328  18.561  0.00  0.00    +0.000 A 
ATOM     31  C   UNL     1       1.494   3.750  18.673  0.00  0.00    +0.000 A 
ATOM     32  C   UNL     1       0.910   3.850  19.934  0.00  0.00    +0.000 A 
ATOM     33  C   UNL     1       1.632   3.512  21.082  0.00  0.00    +0.000 A 
ATOM     34  C   UNL     1       2.945   3.064  20.979  0.00  0.00    +0.000 A 
ATOM     35  C   UNL     1       3.531   2.969  19.723  0.00  0.00    +0.000 A 
ENDBRANCH  29  30
ENDBRANCH  28  29
ENDBRANCH   5  28
TORSDOF 12
ENDMDL
MODEL 8
REMARK VINA RESULT:      -8.1      0.751      1.507
REMARK  Name = 
REMARK  13 active torsions:
REMARK  status: ('A' for Active; 'I' for Inactive)
REMARK    1  A    between atoms: C_1  and  C_2
REMARK    2  A    between atoms: C_2  and  C_3
REMARK    3  A    between atoms: C_5  and  C_6
REMARK    4  A    between atoms: C_6  and  O_7
REMARK    5  A    between atoms: O_7  and  C_8
REMARK    6  A    between atoms: C_8  and  C_9
REMARK    7  A    between atoms: C_15  and  O_16
REMARK    8  A    between atoms: O_16  and  C_17
REMARK    9  A    between atoms: C_17  and  C_18
REMARK   10  A    between atoms: C_24  and  O_25
REMARK   11  A    between atoms: O_25  and  C_26
REMARK   12  A    between atoms: C_26  and  C_27
REMARK   13  A    between atoms: C_33  and  O_34
REMARK                            x       y       z     vdW  Elec       q    Type
REMARK                         _______ _______ _______ _____ _____    ______ ____
ROOT
ATOM      1  C   UNL     1       7.228   6.096  17.671  0.00  0.00    +0.000 C 
ATOM      2  O   UNL     1       6.477   5.669  16.533  0.00  0.00    +0.000 OA
ATOM      3  C   UNL     1       6.135   4.273  16.655  0.00  0.00    +0.000 C 
ATOM      4  C   UNL     1       4.996   4.117  17.683  0.00  0.00    +0.000 C 
ATOM      5  C   UNL     1       5.305   4.866  19.028  0.00  0.00    +0.000 C 
ATOM      6  C   UNL     1       6.443   5.910  18.986  0.00  0.00    +0.000 C 
ENDROOT
BRANCH   1   8
ATOM      7  C   UNL     1       8.537   8.133  18.619  0.00  0.00    +0.000 C 
ATOM      8  C   UNL     1       7.576   7.601  17.574  0.00  0.00    +0.000 C 
ENDBRANCH   1   8
BRANCH   6   9
ATOM      9  O   UNL     1       7.373   5.615  20.049  0.00  0.00    +0.000 OA
ATOM     10  H   UNL     1       8.272   5.630  19.679  0.00  0.00    +0.000 HD
ENDBRANCH   6   9
BRANCH   3  11
ATOM     11  C   UNL     1       5.728   3.682  15.278  0.00  0.00    +0.000 C 
BRANCH  11  12
ATOM     12  O   UNL     1       5.959   4.655  14.250  0.00  0.00    +0.000 OA
BRANCH  12  13
ATOM     13  C   UNL     1       5.183   4.422  13.069  0.00  0.00    +0.000 C 
BRANCH  13  14
ATOM     14  C   UNL     1       5.834   3.333  12.241  0.00  0.00    +0.000 A 
ATOM     15  C   UNL     1       7.201   3.379  11.930  0.00  0.00    +0.000 A 
ATOM     16  C   UNL     1       7.789   2.378  11.155  0.00  0.00    +0.000 A 
ATOM     17  C   UNL     1       7.023   1.305  10.694  0.00  0.00    +0.000 A 
ATOM     18  C   UNL     1       5.676   1.225  11.026  0.00  0.00    +0.000 A 
ATOM     19  C   UNL     1       5.089   2.226  11.804  0.00  0.00    +0.000 A 
ENDBRANCH  13  14
ENDBRANCH  12  13
ENDBRANCH  11  12
ENDBRANCH   3  11
BRANCH   4  20
ATOM     20  O   UNL     1       4.815   2.674  17.850  0.00  0.00    +0.000 OA
BRANCH  20  21
ATOM     21  C   UNL     1       4.437   2.287  19.160  0.00  0.00    +0.000 C 
BRANCH  21  22
ATOM     22  C   UNL     1       3.008   2.470  19.565  0.00  0.00    +0.000 A 
ATOM     23  C   UNL     1       2.690   2.871  20.863  0.00  0.00    +0.000 A 
ATOM     24  C   UNL     1       1.370   3.166  21.193  0.00  0.00    +0.000 A 
ATOM     25  C   UNL     1       0.376   3.081  20.219  0.00  0.00    +0.000 A 
ATOM     26  C   UNL     1       0.686   2.722  18.915  0.00  0.00    +0.000 A 
ATOM     27  C   UNL     1       2.006   2.433  18.581  0.00  0.00    +0.000 A 
ENDBRANCH  21  22
ENDBRANCH  20  21
ENDBRANCH   4  20
BRANCH   5  28
ATOM     28  O   UNL     1       4.161   5.648  19.540  0.00  0.00    +0.000 OA
BRANCH  28  29
ATOM     29  C   UNL     1       3.303   6.168  18.543  0.00  0.00    +0.000 C 
BRANCH  29  30
ATOM     30  C   UNL     1       2.550   7.436  18.808  0.00  0.00    +0.000 A 
ATOM     31  C   UNL     1       2.205   8.313  17.785  0.00  0.00    +0.000 A 
ATOM     32  C   UNL     1       1.353   9.381  18.055  0.00  0.00    +0.000 A 
ATOM     33  C   UNL     1       0.826   9.565  19.336  0.00  0.00    +0.000 A 
ATOM     34  C   UNL     1       1.143   8.678  20.360  0.00  0.00    +0.000 A 
ATOM     35  C   UNL     1       1.999   7.615  20.094  0.00  0.00    +0.000 A 
ENDBRANCH  29  30
ENDBRANCH  28  29
ENDBRANCH   5  28
TORSDOF 12
ENDMDL
MODEL 9
REMARK VINA RESULT:      -7.9      1.947      6.759
REMARK  Name = 
REMARK  13 active torsions:
REMARK  status: ('A' for Active; 'I' for Inactive)
REMARK    1  A    between atoms: C_1  and  C_2
REMARK    2  A    between atoms: C_2  and  C_3
REMARK    3  A    between atoms: C_5  and  C_6
REMARK    4  A    between atoms: C_6  and  O_7
REMARK    5  A    between atoms: O_7  and  C_8
REMARK    6  A    between atoms: C_8  and  C_9
REMARK    7  A    between atoms: C_15  and  O_16
REMARK    8  A    between atoms: O_16  and  C_17
REMARK    9  A    between atoms: C_17  and  C_18
REMARK   10  A    between atoms: C_24  and  O_25
REMARK   11  A    between atoms: O_25  and  C_26
REMARK   12  A    between atoms: C_26  and  C_27
REMARK   13  A    between atoms: C_33  and  O_34
REMARK                            x       y       z     vdW  Elec       q    Type
REMARK                         _______ _______ _______ _____ _____    ______ ____
ROOT
ATOM      1  C   UNL     1       6.726   5.251  15.064  0.00  0.00    +0.000 C 
ATOM      2  O   UNL     1       7.493   5.606  16.216  0.00  0.00    +0.000 OA
ATOM      3  C   UNL     1       6.686   6.366  17.139  0.00  0.00    +0.000 C 
ATOM      4  C   UNL     1       5.713   5.414  17.865  0.00  0.00    +0.000 C 
ATOM      5  C   UNL     1       4.925   4.496  16.864  0.00  0.00    +0.000 C 
ATOM      6  C   UNL     1       5.491   4.401  15.429  0.00  0.00    +0.000 C 
ENDROOT
BRANCH   1   8
ATOM      7  C   UNL     1       7.143   4.463  12.620  0.00  0.00    +0.000 C 
ATOM      8  C   UNL     1       7.566   4.406  14.076  0.00  0.00    +0.000 C 
ENDBRANCH   1   8
BRANCH   6   9
ATOM      9  O   UNL     1       4.428   4.697  14.499  0.00  0.00    +0.000 OA
ATOM     10  H   UNL     1       3.718   5.150  14.986  0.00  0.00    +0.000 HD
ENDBRANCH   6   9
BRANCH   3  11
ATOM     11  C   UNL     1       7.580   7.130  18.153  0.00  0.00    +0.000 C 
BRANCH  11  12
ATOM     12  O   UNL     1       8.267   8.194  17.483  0.00  0.00    +0.000 OA
BRANCH  12  13
ATOM     13  C   UNL     1       7.809   9.495  17.872  0.00  0.00    +0.000 C 
BRANCH  13  14
ATOM     14  C   UNL     1       8.964  10.286  18.453  0.00  0.00    +0.000 A 
ATOM     15  C   UNL     1       9.156  10.375  19.839  0.00  0.00    +0.000 A 
ATOM     16  C   UNL     1      10.214  11.118  20.365  0.00  0.00    +0.000 A 
ATOM     17  C   UNL     1      11.109  11.767  19.512  0.00  0.00    +0.000 A 
ATOM     18  C   UNL     1      10.955  11.656  18.136  0.00  0.00    +0.000 A 
ATOM     19  C   UNL     1       9.897  10.911  17.610  0.00  0.00    +0.000 A 
ENDBRANCH  13  14
ENDBRANCH  12  13
ENDBRANCH  11  12
ENDBRANCH   3  11
BRANCH   4  20
ATOM     20  O   UNL     1       4.844   6.281  18.664  0.00  0.00    +0.000 OA
BRANCH  20  21
ATOM     21  C   UNL     1       3.528   6.407  18.154  0.00  0.00    +0.000 C 
BRANCH  21  22
ATOM     22  C   UNL     1       2.688   7.546  18.643  0.00  0.00    +0.000 A 
ATOM     23  C   UNL     1       2.314   8.569  17.770  0.00  0.00    +0.000 A 
ATOM     24  C   UNL     1       1.426   9.553  18.198  0.00  0.00    +0.000 A 
ATOM     25  C   UNL     1       0.898   9.499  19.488  0.00  0.00    +0.000 A 
ATOM     26  C   UNL     1       1.232   8.464  20.350  0.00  0.00    +0.000 A 
ATOM     27  C   UNL     1       2.114   7.476  19.923  0.00  0.00    +0.000 A 
ENDBRANCH  21  22
ENDBRANCH  20  21
ENDBRANCH   4  20
BRANCH   5  28
ATOM     28  O   UNL     1       4.869   3.082  17.288  0.00  0.00    +0.000 OA
BRANCH  28  29
ATOM     29  C   UNL     1       3.565   2.581  17.513  0.00  0.00    +0.000 C 
BRANCH  29  30
ATOM     30  C   UNL     1       2.822   2.992  18.747  0.00  0.00    +0.000 A 
ATOM     31  C   UNL     1       1.515   3.465  18.694  0.00  0.00    +0.000 A 
ATOM     32  C   UNL     1       0.808   3.662  19.878  0.00  0.00    +0.000 A 
ATOM     33  C   UNL     1       1.392   3.369  21.114  0.00  0.00    +0.000 A 
ATOM     34  C   UNL     1       2.689   2.870  21.176  0.00  0.00    +0.000 A 
ATOM     35  C   UNL     1       3.399   2.679  19.997  0.00  0.00    +0.000 A 
ENDBRANCH  29  30
ENDBRANCH  28  29
ENDBRANCH   5  28
TORSDOF 12
ENDMDL
