MODEL 1
REMARK VINA RESULT:      -7.8      0.000      0.000
REMARK  Name = 
REMARK  4 active torsions:
REMARK  status: ('A' for Active; 'I' for Inactive)
REMARK    1  A    between atoms: C_1  and  O_2
REMARK    2  A    between atoms: O_2  and  C_3
REMARK    3  A    between atoms: C_5  and  C_6
REMARK    4  A    between atoms: C_9  and  C_10
REMARK                            x       y       z     vdW  Elec       q    Type
REMARK                         _______ _______ _______ _____ _____    ______ ____
ROOT
ATOM      1  C   UNL     1       7.002   5.689  15.994  0.00  0.00    +0.000 A 
ATOM      2  C   UNL     1       7.069   5.110  14.732  0.00  0.00    +0.000 A 
ATOM      3  C   UNL     1       6.113   4.166  14.351  0.00  0.00    +0.000 A 
ATOM      4  C   UNL     1       5.093   3.797  15.239  0.00  0.00    +0.000 A 
ATOM      5  C   UNL     1       4.989   4.379  16.514  0.00  0.00    +0.000 A 
ATOM      6  C   UNL     1       5.965   5.331  16.864  0.00  0.00    +0.000 A 
ENDROOT
BRANCH   5   7
ATOM      7  C   UNL     1       3.899   4.008  17.440  0.00  0.00    +0.000 A 
ATOM      8  C   UNL     1       2.561   3.968  17.047  0.00  0.00    +0.000 A 
ATOM      9  N   UNL     1       1.523   3.634  17.850  0.00  0.00    +0.000 NA
ATOM     10  C   UNL     1       1.810   3.326  19.128  0.00  0.00    +0.000 A 
ATOM     11  C   UNL     1       0.791   2.979  20.000  0.00  0.00    +0.000 A 
ATOM     12  C   UNL     1       1.063   2.664  21.330  0.00  0.00    +0.000 A 
ATOM     13  C   UNL     1       2.378   2.706  21.748  0.00  0.00    +0.000 A 
ATOM     14  N   UNL     1       3.406   3.031  20.938  0.00  0.00    +0.000 NA
ATOM     15  C   UNL     1       3.116   3.333  19.656  0.00  0.00    +0.000 A 
ATOM     16  C   UNL     1       4.138   3.673  18.782  0.00  0.00    +0.000 A 
ENDBRANCH   5   7
BRANCH   1  18
ATOM     17  C   UNL     1       7.356   7.543  17.438  0.00  0.00    +0.000 C 
ATOM     18  O   UNL     1       7.878   6.612  16.496  0.00  0.00    +0.000 OA
ENDBRANCH   1  18
BRANCH   3  19
ATOM     19  C   UNL     1       6.175   3.574  13.051  0.00  0.00    +0.000 C 
ATOM     20  N   UNL     1       6.231   3.102  11.991  0.00  0.00    +0.000 NA
ENDBRANCH   3  19
TORSDOF 3
ENDMDL
MODEL 2
REMARK VINA RESULT:      -7.5      4.658      5.360
REMARK  Name = 
REMARK  4 active torsions:
REMARK  status: ('A' for Active; 'I' for Inactive)
REMARK    1  A    between atoms: C_1  and  O_2
REMARK    2  A    between atoms: O_2  and  C_3
REMARK    3  A    between atoms: C_5  and  C_6
REMARK    4  A    between atoms: C_9  and  C_10
REMARK                            x       y       z     vdW  Elec       q    Type
REMARK                         _______ _______ _______ _____ _____    ______ ____
ROOT
ATOM      1  C   UNL     1       3.262   3.825  17.345  0.00  0.00    +0.000 A 
ATOM      2  C   UNL     1       4.497   4.022  16.739  0.00  0.00    +0.000 A 
ATOM      3  C   UNL     1       5.055   5.302  16.703  0.00  0.00    +0.000 A 
ATOM      4  C   UNL     1       4.370   6.386  17.270  0.00  0.00    +0.000 A 
ATOM      5  C   UNL     1       3.128   6.214  17.905  0.00  0.00    +0.000 A 
ATOM      6  C   UNL     1       2.597   4.910  17.930  0.00  0.00    +0.000 A 
ENDROOT
BRANCH   5   7
ATOM      7  C   UNL     1       2.419   7.353  18.524  0.00  0.00    +0.000 A 
ATOM      8  C   UNL     1       2.027   8.477  17.796  0.00  0.00    +0.000 A 
ATOM      9  N   UNL     1       1.374   9.547  18.310  0.00  0.00    +0.000 NA
ATOM     10  C   UNL     1       1.093   9.522  19.625  0.00  0.00    +0.000 A 
ATOM     11  C   UNL     1       0.429  10.589  20.210  0.00  0.00    +0.000 A 
ATOM     12  C   UNL     1       0.134  10.588  21.571  0.00  0.00    +0.000 A 
ATOM     13  C   UNL     1       0.520   9.492  22.316  0.00  0.00    +0.000 A 
ATOM     14  N   UNL     1       1.162   8.428  21.795  0.00  0.00    +0.000 NA
ATOM     15  C   UNL     1       1.437   8.453  20.475  0.00  0.00    +0.000 A 
ATOM     16  C   UNL     1       2.095   7.381  19.889  0.00  0.00    +0.000 A 
ENDBRANCH   5   7
BRANCH   1  18
ATOM     17  C   UNL     1       1.708   2.478  18.536  0.00  0.00    +0.000 C 
ATOM     18  O   UNL     1       2.599   2.631  17.437  0.00  0.00    +0.000 OA
ENDBRANCH   1  18
BRANCH   3  19
ATOM     19  C   UNL     1       6.328   5.507  16.087  0.00  0.00    +0.000 C 
ATOM     20  N   UNL     1       7.369   5.670  15.597  0.00  0.00    +0.000 NA
ENDBRANCH   3  19
TORSDOF 3
ENDMDL
MODEL 3
REMARK VINA RESULT:      -7.4      4.673      5.641
REMARK  Name = 
REMARK  4 active torsions:
REMARK  status: ('A' for Active; 'I' for Inactive)
REMARK    1  A    between atoms: C_1  and  O_2
REMARK    2  A    between atoms: O_2  and  C_3
REMARK    3  A    between atoms: C_5  and  C_6
REMARK    4  A    between atoms: C_9  and  C_10
REMARK                            x       y       z     vdW  Elec       q    Type
REMARK                         _______ _______ _______ _____ _____    ______ ____
ROOT
ATOM      1  C   UNL     1       3.381   3.557  17.373  0.00  0.00    +0.000 A 
ATOM      2  C   UNL     1       4.548   3.833  16.671  0.00  0.00    +0.000 A 
ATOM      3  C   UNL     1       5.045   5.137  16.638  0.00  0.00    +0.000 A 
ATOM      4  C   UNL     1       4.367   6.167  17.305  0.00  0.00    +0.000 A 
ATOM      5  C   UNL     1       3.196   5.915  18.039  0.00  0.00    +0.000 A 
ATOM      6  C   UNL     1       2.725   4.588  18.057  0.00  0.00    +0.000 A 
ENDROOT
BRANCH   5   7
ATOM      7  C   UNL     1       2.495   6.997  18.762  0.00  0.00    +0.000 A 
ATOM      8  C   UNL     1       2.101   6.875  20.095  0.00  0.00    +0.000 A 
ATOM      9  N   UNL     1       1.460   7.833  20.807  0.00  0.00    +0.000 NA
ATOM     10  C   UNL     1       1.176   8.984  20.172  0.00  0.00    +0.000 A 
ATOM     11  C   UNL     1       0.518  10.001  20.846  0.00  0.00    +0.000 A 
ATOM     12  C   UNL     1       0.208  11.199  20.206  0.00  0.00    +0.000 A 
ATOM     13  C   UNL     1       0.578  11.341  18.883  0.00  0.00    +0.000 A 
ATOM     14  N   UNL     1       1.224  10.385  18.185  0.00  0.00    +0.000 NA
ATOM     15  C   UNL     1       1.512   9.235  18.827  0.00  0.00    +0.000 A 
ATOM     16  C   UNL     1       2.177   8.221  18.153  0.00  0.00    +0.000 A 
ENDBRANCH   5   7
BRANCH   1  18
ATOM     17  C   UNL     1       1.872   2.152  18.555  0.00  0.00    +0.000 C 
ATOM     18  O   UNL     1       2.781   2.331  17.475  0.00  0.00    +0.000 OA
ENDBRANCH   1  18
BRANCH   3  19
ATOM     19  C   UNL     1       6.249   5.423  15.922  0.00  0.00    +0.000 C 
ATOM     20  N   UNL     1       7.234   5.655  15.351  0.00  0.00    +0.000 NA
ENDBRANCH   3  19
TORSDOF 3
ENDMDL
MODEL 4
REMARK VINA RESULT:      -7.3      4.343      5.117
REMARK  Name = 
REMARK  4 active torsions:
REMARK  status: ('A' for Active; 'I' for Inactive)
REMARK    1  A    between atoms: C_1  and  O_2
REMARK    2  A    between atoms: O_2  and  C_3
REMARK    3  A    between atoms: C_5  and  C_6
REMARK    4  A    between atoms: C_9  and  C_10
REMARK                            x       y       z     vdW  Elec       q    Type
REMARK                         _______ _______ _______ _____ _____    ______ ____
ROOT
ATOM      1  C   UNL     1       5.258   5.477  16.532  0.00  0.00    +0.000 A 
ATOM      2  C   UNL     1       4.964   4.164  16.878  0.00  0.00    +0.000 A 
ATOM      3  C   UNL     1       3.910   3.898  17.754  0.00  0.00    +0.000 A 
ATOM      4  C   UNL     1       3.154   4.951  18.289  0.00  0.00    +0.000 A 
ATOM      5  C   UNL     1       3.417   6.287  17.942  0.00  0.00    +0.000 A 
ATOM      6  C   UNL     1       4.482   6.521  17.053  0.00  0.00    +0.000 A 
ENDROOT
BRANCH   5   7
ATOM      7  C   UNL     1       2.603   7.395  18.487  0.00  0.00    +0.000 A 
ATOM      8  C   UNL     1       2.208   8.487  17.713  0.00  0.00    +0.000 A 
ATOM      9  N   UNL     1       1.463   9.526  18.158  0.00  0.00    +0.000 NA
ATOM     10  C   UNL     1       1.086   9.504  19.450  0.00  0.00    +0.000 A 
ATOM     11  C   UNL     1       0.325  10.541  19.965  0.00  0.00    +0.000 A 
ATOM     12  C   UNL     1      -0.071  10.543  21.300  0.00  0.00    +0.000 A 
ATOM     13  C   UNL     1       0.316   9.479  22.091  0.00  0.00    +0.000 A 
ATOM     14  N   UNL     1       1.051   8.444  21.637  0.00  0.00    +0.000 NA
ATOM     15  C   UNL     1       1.422   8.467  20.341  0.00  0.00    +0.000 A 
ATOM     16  C   UNL     1       2.177   7.424  19.824  0.00  0.00    +0.000 A 
ENDBRANCH   5   7
BRANCH   1  18
ATOM     17  C   UNL     1       6.699   4.937  14.721  0.00  0.00    +0.000 C 
ATOM     18  O   UNL     1       6.268   5.876  15.699  0.00  0.00    +0.000 OA
ENDBRANCH   1  18
BRANCH   3  19
ATOM     19  C   UNL     1       3.599   2.548  18.107  0.00  0.00    +0.000 C 
ATOM     20  N   UNL     1       3.334   1.453  18.391  0.00  0.00    +0.000 NA
ENDBRANCH   3  19
TORSDOF 3
ENDMDL
MODEL 5
REMARK VINA RESULT:      -7.1      2.741      7.113
REMARK  Name = 
REMARK  4 active torsions:
REMARK  status: ('A' for Active; 'I' for Inactive)
REMARK    1  A    between atoms: C_1  and  O_2
REMARK    2  A    between atoms: O_2  and  C_3
REMARK    3  A    between atoms: C_5  and  C_6
REMARK    4  A    between atoms: C_9  and  C_10
REMARK                            x       y       z     vdW  Elec       q    Type
REMARK                         _______ _______ _______ _____ _____    ______ ____
ROOT
ATOM      1  C   UNL     1       3.088   3.918  19.551  0.00  0.00    +0.000 A 
ATOM      2  C   UNL     1       2.485   5.108  19.938  0.00  0.00    +0.000 A 
ATOM      3  C   UNL     1       2.761   6.284  19.239  0.00  0.00    +0.000 A 
ATOM      4  C   UNL     1       3.647   6.268  18.153  0.00  0.00    +0.000 A 
ATOM      5  C   UNL     1       4.258   5.076  17.727  0.00  0.00    +0.000 A 
ATOM      6  C   UNL     1       3.953   3.907  18.450  0.00  0.00    +0.000 A 
ENDROOT
BRANCH   5   7
ATOM      7  C   UNL     1       5.173   5.056  16.567  0.00  0.00    +0.000 A 
ATOM      8  C   UNL     1       6.365   5.781  16.538  0.00  0.00    +0.000 A 
ATOM      9  N   UNL     1       7.241   5.797  15.505  0.00  0.00    +0.000 NA
ATOM     10  C   UNL     1       6.928   5.063  14.422  0.00  0.00    +0.000 A 
ATOM     11  C   UNL     1       7.782   5.043  13.332  0.00  0.00    +0.000 A 
ATOM     12  C   UNL     1       7.475   4.296  12.197  0.00  0.00    +0.000 A 
ATOM     13  C   UNL     1       6.296   3.576  12.195  0.00  0.00    +0.000 A 
ATOM     14  N   UNL     1       5.435   3.559  13.231  0.00  0.00    +0.000 NA
ATOM     15  C   UNL     1       5.754   4.291  14.318  0.00  0.00    +0.000 A 
ATOM     16  C   UNL     1       4.902   4.305  15.412  0.00  0.00    +0.000 A 
ENDBRANCH   5   7
BRANCH   1  18
ATOM     17  C   UNL     1       2.576   2.717  21.537  0.00  0.00    +0.000 C 
ATOM     18  O   UNL     1       2.916   2.702  20.155  0.00  0.00    +0.000 OA
ENDBRANCH   1  18
BRANCH   3  19
ATOM     19  C   UNL     1       2.136   7.510  19.630  0.00  0.00    +0.000 C 
ATOM     20  N   UNL     1       1.625   8.507  19.936  0.00  0.00    +0.000 NA
ENDBRANCH   3  19
TORSDOF 3
ENDMDL
MODEL 6
REMARK VINA RESULT:      -7.0      2.554      6.822
REMARK  Name = 
REMARK  4 active torsions:
REMARK  status: ('A' for Active; 'I' for Inactive)
REMARK    1  A    between atoms: C_1  and  O_2
REMARK    2  A    between atoms: O_2  and  C_3
REMARK    3  A    between atoms: C_5  and  C_6
REMARK    4  A    between atoms: C_9  and  C_10
REMARK                            x       y       z     vdW  Elec       q    Type
REMARK                         _______ _______ _______ _____ _____    ______ ____
ROOT
ATOM      1  C   UNL     1       2.650   6.805  19.045  0.00  0.00    +0.000 A 
ATOM      2  C   UNL     1       2.445   5.746  19.921  0.00  0.00    +0.000 A 
ATOM      3  C   UNL     1       3.096   4.530  19.703  0.00  0.00    +0.000 A 
ATOM      4  C   UNL     1       3.948   4.374  18.601  0.00  0.00    +0.000 A 
ATOM      5  C   UNL     1       4.189   5.433  17.709  0.00  0.00    +0.000 A 
ATOM      6  C   UNL     1       3.522   6.647  17.961  0.00  0.00    +0.000 A 
ENDROOT
BRANCH   5   7
ATOM      7  C   UNL     1       5.107   5.275  16.561  0.00  0.00    +0.000 A 
ATOM      8  C   UNL     1       6.359   5.889  16.512  0.00  0.00    +0.000 A 
ATOM      9  N   UNL     1       7.240   5.778  15.489  0.00  0.00    +0.000 NA
ATOM     10  C   UNL     1       6.870   5.024  14.438  0.00  0.00    +0.000 A 
ATOM     11  C   UNL     1       7.726   4.875  13.359  0.00  0.00    +0.000 A 
ATOM     12  C   UNL     1       7.361   4.105  12.257  0.00  0.00    +0.000 A 
ATOM     13  C   UNL     1       6.123   3.495  12.276  0.00  0.00    +0.000 A 
ATOM     14  N   UNL     1       5.256   3.604  13.302  0.00  0.00    +0.000 NA
ATOM     15  C   UNL     1       5.633   4.356  14.357  0.00  0.00    +0.000 A 
ATOM     16  C   UNL     1       4.777   4.498  15.440  0.00  0.00    +0.000 A 
ENDBRANCH   5   7
BRANCH   1  18
ATOM     17  C   UNL     1       2.120   8.858  17.971  0.00  0.00    +0.000 C 
ATOM     18  O   UNL     1       2.067   8.040  19.135  0.00  0.00    +0.000 OA
ENDBRANCH   1  18
BRANCH   3  19
ATOM     19  C   UNL     1       2.893   3.441  20.606  0.00  0.00    +0.000 C 
ATOM     20  N   UNL     1       2.721   2.563  21.347  0.00  0.00    +0.000 NA
ENDBRANCH   3  19
TORSDOF 3
ENDMDL
MODEL 7
REMARK VINA RESULT:      -7.0      4.516      5.495
REMARK  Name = 
REMARK  4 active torsions:
REMARK  status: ('A' for Active; 'I' for Inactive)
REMARK    1  A    between atoms: C_1  and  O_2
REMARK    2  A    between atoms: O_2  and  C_3
REMARK    3  A    between atoms: C_5  and  C_6
REMARK    4  A    between atoms: C_9  and  C_10
REMARK                            x       y       z     vdW  Elec       q    Type
REMARK                         _______ _______ _______ _____ _____    ______ ____
ROOT
ATOM      1  C   UNL     1       5.045   5.576  16.396  0.00  0.00    +0.000 A 
ATOM      2  C   UNL     1       4.848   4.231  16.683  0.00  0.00    +0.000 A 
ATOM      3  C   UNL     1       3.923   3.859  17.660  0.00  0.00    +0.000 A 
ATOM      4  C   UNL     1       3.199   4.838  18.356  0.00  0.00    +0.000 A 
ATOM      5  C   UNL     1       3.364   6.205  18.074  0.00  0.00    +0.000 A 
ATOM      6  C   UNL     1       4.299   6.546  17.079  0.00  0.00    +0.000 A 
ENDROOT
BRANCH   5   7
ATOM      7  C   UNL     1       2.583   7.235  18.791  0.00  0.00    +0.000 A 
ATOM      8  C   UNL     1       2.170   7.079  20.114  0.00  0.00    +0.000 A 
ATOM      9  N   UNL     1       1.456   7.989  20.819  0.00  0.00    +0.000 NA
ATOM     10  C   UNL     1       1.112   9.125  20.186  0.00  0.00    +0.000 A 
ATOM     11  C   UNL     1       0.378  10.092  20.853  0.00  0.00    +0.000 A 
ATOM     12  C   UNL     1       0.006  11.273  20.215  0.00  0.00    +0.000 A 
ATOM     13  C   UNL     1       0.392  11.449  18.901  0.00  0.00    +0.000 A 
ATOM     14  N   UNL     1       1.111  10.541  18.210  0.00  0.00    +0.000 NA
ATOM     15  C   UNL     1       1.458   9.406  18.850  0.00  0.00    +0.000 A 
ATOM     16  C   UNL     1       2.200   8.442  18.183  0.00  0.00    +0.000 A 
ENDBRANCH   5   7
BRANCH   1  18
ATOM     17  C   UNL     1       6.741   5.130  14.792  0.00  0.00    +0.000 C 
ATOM     18  O   UNL     1       5.926   6.076  15.476  0.00  0.00    +0.000 OA
ENDBRANCH   1  18
BRANCH   3  19
ATOM     19  C   UNL     1       3.712   2.476  17.953  0.00  0.00    +0.000 C 
ATOM     20  N   UNL     1       3.533   1.355  18.200  0.00  0.00    +0.000 NA
ENDBRANCH   3  19
TORSDOF 3
ENDMDL
MODEL 8
REMARK VINA RESULT:      -7.0      4.917      5.903
REMARK  Name = 
REMARK  4 active torsions:
REMARK  status: ('A' for Active; 'I' for Inactive)
REMARK    1  A    between atoms: C_1  and  O_2
REMARK    2  A    between atoms: O_2  and  C_3
REMARK    3  A    between atoms: C_5  and  C_6
REMARK    4  A    between atoms: C_9  and  C_10
REMARK                            x       y       z     vdW  Elec       q    Type
REMARK                         _______ _______ _______ _____ _____    ______ ____
ROOT
ATOM      1  C   UNL     1       3.455   3.644  19.193  0.00  0.00    +0.000 A 
ATOM      2  C   UNL     1       4.716   3.576  18.612  0.00  0.00    +0.000 A 
ATOM      3  C   UNL     1       5.287   4.723  18.059  0.00  0.00    +0.000 A 
ATOM      4  C   UNL     1       4.590   5.940  18.081  0.00  0.00    +0.000 A 
ATOM      5  C   UNL     1       3.322   6.043  18.678  0.00  0.00    +0.000 A 
ATOM      6  C   UNL     1       2.777   4.869  19.232  0.00  0.00    +0.000 A 
ENDROOT
BRANCH   5   7
ATOM      7  C   UNL     1       2.598   7.331  18.723  0.00  0.00    +0.000 A 
ATOM      8  C   UNL     1       2.573   8.216  17.645  0.00  0.00    +0.000 A 
ATOM      9  N   UNL     1       1.926   9.406  17.630  0.00  0.00    +0.000 NA
ATOM     10  C   UNL     1       1.267   9.761  18.748  0.00  0.00    +0.000 A 
ATOM     11  C   UNL     1       0.589  10.968  18.795  0.00  0.00    +0.000 A 
ATOM     12  C   UNL     1      -0.095  11.360  19.944  0.00  0.00    +0.000 A 
ATOM     13  C   UNL     1      -0.077  10.507  21.030  0.00  0.00    +0.000 A 
ATOM     14  N   UNL     1       0.562   9.320  21.032  0.00  0.00    +0.000 NA
ATOM     15  C   UNL     1       1.218   8.965  19.908  0.00  0.00    +0.000 A 
ATOM     16  C   UNL     1       1.890   7.752  19.859  0.00  0.00    +0.000 A 
ENDBRANCH   5   7
BRANCH   1  18
ATOM     17  C   UNL     1       1.604   2.158  19.081  0.00  0.00    +0.000 C 
ATOM     18  O   UNL     1       2.778   2.597  19.756  0.00  0.00    +0.000 OA
ENDBRANCH   1  18
BRANCH   3  19
ATOM     19  C   UNL     1       6.587   4.659  17.467  0.00  0.00    +0.000 C 
ATOM     20  N   UNL     1       7.639   4.608  16.976  0.00  0.00    +0.000 NA
ENDBRANCH   3  19
TORSDOF 3
ENDMDL
MODEL 9
REMARK VINA RESULT:      -6.9      5.436      6.159
REMARK  Name = 
REMARK  4 active torsions:
REMARK  status: ('A' for Active; 'I' for Inactive)
REMARK    1  A    between atoms: C_1  and  O_2
REMARK    2  A    between atoms: O_2  and  C_3
REMARK    3  A    between atoms: C_5  and  C_6
REMARK    4  A    between atoms: C_9  and  C_10
REMARK                            x       y       z     vdW  Elec       q    Type
REMARK                         _______ _______ _______ _____ _____    ______ ____
ROOT
ATOM      1  C   UNL     1       3.398   4.699  19.218  0.00  0.00    +0.000 A 
ATOM      2  C   UNL     1       4.178   4.890  18.083  0.00  0.00    +0.000 A 
ATOM      3  C   UNL     1       4.165   6.126  17.434  0.00  0.00    +0.000 A 
ATOM      4  C   UNL     1       3.366   7.170  17.919  0.00  0.00    +0.000 A 
ATOM      5  C   UNL     1       2.582   7.013  19.074  0.00  0.00    +0.000 A 
ATOM      6  C   UNL     1       2.621   5.757  19.709  0.00  0.00    +0.000 A 
ENDROOT
BRANCH   5   7
ATOM      7  C   UNL     1       1.758   8.122  19.599  0.00  0.00    +0.000 A 
ATOM      8  C   UNL     1       1.392   9.219  18.819  0.00  0.00    +0.000 A 
ATOM      9  N   UNL     1       0.639  10.261  19.246  0.00  0.00    +0.000 NA
ATOM     10  C   UNL     1       0.222  10.234  20.525  0.00  0.00    +0.000 A 
ATOM     11  C   UNL     1      -0.549  11.273  21.021  0.00  0.00    +0.000 A 
ATOM     12  C   UNL     1      -0.986  11.270  22.344  0.00  0.00    +0.000 A 
ATOM     13  C   UNL     1      -0.629  10.200  23.141  0.00  0.00    +0.000 A 
ATOM     14  N   UNL     1       0.114   9.163  22.705  0.00  0.00    +0.000 NA
ATOM     15  C   UNL     1       0.525   9.191  21.420  0.00  0.00    +0.000 A 
ATOM     16  C   UNL     1       1.290   8.147  20.922  0.00  0.00    +0.000 A 
ENDBRANCH   5   7
BRANCH   1  18
ATOM     17  C   UNL     1       2.993   2.358  19.212  0.00  0.00    +0.000 C 
ATOM     18  O   UNL     1       3.307   3.540  19.939  0.00  0.00    +0.000 OA
ENDBRANCH   1  18
BRANCH   3  19
ATOM     19  C   UNL     1       4.972   6.327  16.270  0.00  0.00    +0.000 C 
ATOM     20  N   UNL     1       5.632   6.501  15.331  0.00  0.00    +0.000 NA
ENDBRANCH   3  19
TORSDOF 3
ENDMDL
