MODEL 1
REMARK VINA RESULT:      -8.4      0.000      0.000
REMARK  Name = 
REMARK  3 active torsions:
REMARK  status: ('A' for Active; 'I' for Inactive)
REMARK    1  A    between atoms: S_2  and  C_4
REMARK    2  A    between atoms: S_2  and  N_11
REMARK    3  A    between atoms: C_15  and  C_16
REMARK                            x       y       z     vdW  Elec       q    Type
REMARK                         _______ _______ _______ _____ _____    ______ ____
ROOT
ATOM      1  N   UNL     1       2.558   4.951  17.922  0.00  0.00    +0.000 NA
ATOM      2  C   UNL     1       1.577   3.834  17.766  0.00  0.00    +0.000 C 
ATOM      3  C   UNL     1       2.400   2.564  18.001  0.00  0.00    +0.000 C 
ATOM      4  C   UNL     1       3.782   2.876  17.452  0.00  0.00    +0.000 C 
ATOM      5  C   UNL     1       3.781   4.398  17.260  0.00  0.00    +0.000 C 
ENDROOT
BRANCH   5   6
ATOM      6  C   UNL     1       5.092   5.145  17.096  0.00  0.00    +0.000 A 
ATOM      7  C   UNL     1       6.234   4.498  17.613  0.00  0.00    +0.000 A 
ATOM      8  C   UNL     1       7.337   5.229  18.049  0.00  0.00    +0.000 A 
ATOM      9  C   UNL     1       7.349   6.604  17.878  0.00  0.00    +0.000 A 
ATOM     10  F   UNL     1       8.341   7.323  18.415  0.00  0.00    +0.000 F 
ATOM     11  C   UNL     1       6.322   7.244  17.192  0.00  0.00    +0.000 A 
ATOM     12  C   UNL     1       5.191   6.515  16.790  0.00  0.00    +0.000 A 
ENDBRANCH   5   6
BRANCH   1  14
ATOM     13  O   UNL     1       4.046   5.628  19.907  0.00  0.00    +0.000 OA
ATOM     14  S   UNL     1       2.664   5.608  19.498  0.00  0.00    +0.000 S 
ATOM     15  O   UNL     1       1.642   4.965  20.305  0.00  0.00    +0.000 OA
BRANCH  14  16
ATOM     16  C   UNL     1       2.184   7.338  19.321  0.00  0.00    +0.000 A 
ATOM     17  C   UNL     1       2.295   7.974  18.077  0.00  0.00    +0.000 A 
ATOM     18  C   UNL     1       1.806   9.274  17.897  0.00  0.00    +0.000 A 
ATOM     19  C   UNL     1       1.187   9.934  18.958  0.00  0.00    +0.000 A 
ATOM     20  F   UNL     1       0.690  11.156  18.772  0.00  0.00    +0.000 F 
ATOM     21  C   UNL     1       1.066   9.306  20.199  0.00  0.00    +0.000 A 
ATOM     22  C   UNL     1       1.565   8.007  20.390  0.00  0.00    +0.000 A 
ENDBRANCH  14  16
ENDBRANCH   1  14
TORSDOF 3
ENDMDL
MODEL 2
REMARK VINA RESULT:      -8.1      0.137      1.042
REMARK  Name = 
REMARK  3 active torsions:
REMARK  status: ('A' for Active; 'I' for Inactive)
REMARK    1  A    between atoms: S_2  and  C_4
REMARK    2  A    between atoms: S_2  and  N_11
REMARK    3  A    between atoms: C_15  and  C_16
REMARK                            x       y       z     vdW  Elec       q    Type
REMARK                         _______ _______ _______ _____ _____    ______ ____
ROOT
ATOM      1  N   UNL     1       2.579   4.886  17.935  0.00  0.00    +0.000 NA
ATOM      2  C   UNL     1       1.600   3.763  17.805  0.00  0.00    +0.000 C 
ATOM      3  C   UNL     1       2.418   2.503  18.101  0.00  0.00    +0.000 C 
ATOM      4  C   UNL     1       3.809   2.794  17.564  0.00  0.00    +0.000 C 
ATOM      5  C   UNL     1       3.813   4.308  17.315  0.00  0.00    +0.000 C 
ENDROOT
BRANCH   5   6
ATOM      6  C   UNL     1       5.127   5.047  17.145  0.00  0.00    +0.000 A 
ATOM      7  C   UNL     1       6.265   4.404  17.675  0.00  0.00    +0.000 A 
ATOM      8  C   UNL     1       7.369   5.138  18.104  0.00  0.00    +0.000 A 
ATOM      9  C   UNL     1       7.387   6.510  17.914  0.00  0.00    +0.000 A 
ATOM     10  F   UNL     1       8.379   7.234  18.444  0.00  0.00    +0.000 F 
ATOM     11  C   UNL     1       6.364   7.144  17.215  0.00  0.00    +0.000 A 
ATOM     12  C   UNL     1       5.232   6.413  16.820  0.00  0.00    +0.000 A 
ENDBRANCH   5   6
BRANCH   1  14
ATOM     13  O   UNL     1       4.042   5.737  19.870  0.00  0.00    +0.000 OA
ATOM     14  S   UNL     1       2.659   5.601  19.486  0.00  0.00    +0.000 S 
ATOM     15  O   UNL     1       1.700   4.913  20.331  0.00  0.00    +0.000 OA
BRANCH  14  16
ATOM     16  C   UNL     1       2.049   7.285  19.261  0.00  0.00    +0.000 A 
ATOM     17  C   UNL     1       1.489   7.979  20.341  0.00  0.00    +0.000 A 
ATOM     18  C   UNL     1       1.133   9.327  20.213  0.00  0.00    +0.000 A 
ATOM     19  C   UNL     1       1.354   9.989  19.006  0.00  0.00    +0.000 A 
ATOM     20  F   UNL     1       1.048  11.281  18.898  0.00  0.00    +0.000 F 
ATOM     21  C   UNL     1       1.918   9.307  17.925  0.00  0.00    +0.000 A 
ATOM     22  C   UNL     1       2.266   7.952  18.045  0.00  0.00    +0.000 A 
ENDBRANCH  14  16
ENDBRANCH   1  14
TORSDOF 3
ENDMDL
MODEL 3
REMARK VINA RESULT:      -8.0      1.919      5.171
REMARK  Name = 
REMARK  3 active torsions:
REMARK  status: ('A' for Active; 'I' for Inactive)
REMARK    1  A    between atoms: S_2  and  C_4
REMARK    2  A    between atoms: S_2  and  N_11
REMARK    3  A    between atoms: C_15  and  C_16
REMARK                            x       y       z     vdW  Elec       q    Type
REMARK                         _______ _______ _______ _____ _____    ______ ____
ROOT
ATOM      1  N   UNL     1       3.193   3.899  19.914  0.00  0.00    +0.000 NA
ATOM      2  C   UNL     1       2.610   2.768  20.700  0.00  0.00    +0.000 C 
ATOM      3  C   UNL     1       1.096   2.921  20.529  0.00  0.00    +0.000 C 
ATOM      4  C   UNL     1       0.853   4.419  20.442  0.00  0.00    +0.000 C 
ATOM      5  C   UNL     1       2.247   5.019  20.213  0.00  0.00    +0.000 C 
ENDROOT
BRANCH   5   6
ATOM      6  C   UNL     1       2.388   6.437  19.693  0.00  0.00    +0.000 A 
ATOM      7  C   UNL     1       1.907   7.453  20.546  0.00  0.00    +0.000 A 
ATOM      8  C   UNL     1       1.448   8.664  20.032  0.00  0.00    +0.000 A 
ATOM      9  C   UNL     1       1.559   8.909  18.672  0.00  0.00    +0.000 A 
ATOM     10  F   UNL     1       0.999  10.008  18.156  0.00  0.00    +0.000 F 
ATOM     11  C   UNL     1       2.210   8.005  17.839  0.00  0.00    +0.000 A 
ATOM     12  C   UNL     1       2.635   6.767  18.347  0.00  0.00    +0.000 A 
ENDBRANCH   5   6
BRANCH   1  14
ATOM     13  O   UNL     1       2.522   3.978  17.434  0.00  0.00    +0.000 OA
ATOM     14  S   UNL     1       3.588   3.525  18.293  0.00  0.00    +0.000 S 
ATOM     15  O   UNL     1       4.053   2.150  18.265  0.00  0.00    +0.000 OA
BRANCH  14  16
ATOM     16  C   UNL     1       5.006   4.569  17.900  0.00  0.00    +0.000 A 
ATOM     17  C   UNL     1       5.167   5.078  16.604  0.00  0.00    +0.000 A 
ATOM     18  C   UNL     1       6.188   5.991  16.320  0.00  0.00    +0.000 A 
ATOM     19  C   UNL     1       7.043   6.413  17.338  0.00  0.00    +0.000 A 
ATOM     20  F   UNL     1       7.991   7.311  17.073  0.00  0.00    +0.000 F 
ATOM     21  C   UNL     1       6.887   5.917  18.634  0.00  0.00    +0.000 A 
ATOM     22  C   UNL     1       5.871   4.991  18.923  0.00  0.00    +0.000 A 
ENDBRANCH  14  16
ENDBRANCH   1  14
TORSDOF 3
ENDMDL
MODEL 4
REMARK VINA RESULT:      -7.9      2.706      4.526
REMARK  Name = 
REMARK  3 active torsions:
REMARK  status: ('A' for Active; 'I' for Inactive)
REMARK    1  A    between atoms: S_2  and  C_4
REMARK    2  A    between atoms: S_2  and  N_11
REMARK    3  A    between atoms: C_15  and  C_16
REMARK                            x       y       z     vdW  Elec       q    Type
REMARK                         _______ _______ _______ _____ _____    ______ ____
ROOT
ATOM      1  N   UNL     1       6.292   4.171  17.360  0.00  0.00    +0.000 NA
ATOM      2  C   UNL     1       7.083   4.560  16.152  0.00  0.00    +0.000 C 
ATOM      3  C   UNL     1       6.061   5.213  15.216  0.00  0.00    +0.000 C 
ATOM      4  C   UNL     1       4.759   4.469  15.465  0.00  0.00    +0.000 C 
ATOM      5  C   UNL     1       5.010   3.684  16.760  0.00  0.00    +0.000 C 
ENDROOT
BRANCH   5   6
ATOM      6  C   UNL     1       3.841   3.123  17.547  0.00  0.00    +0.000 A 
ATOM      7  C   UNL     1       2.562   3.550  17.133  0.00  0.00    +0.000 A 
ATOM      8  C   UNL     1       1.498   3.605  18.031  0.00  0.00    +0.000 A 
ATOM      9  C   UNL     1       1.677   3.140  19.324  0.00  0.00    +0.000 A 
ATOM     10  F   UNL     1       0.704   3.316  20.225  0.00  0.00    +0.000 F 
ATOM     11  C   UNL     1       2.870   2.532  19.701  0.00  0.00    +0.000 A 
ATOM     12  C   UNL     1       3.956   2.513  18.811  0.00  0.00    +0.000 A 
ENDBRANCH   5   6
BRANCH   1  14
ATOM     13  O   UNL     1       7.270   6.332  18.350  0.00  0.00    +0.000 OA
ATOM     14  S   UNL     1       6.260   5.336  18.611  0.00  0.00    +0.000 S 
ATOM     15  O   UNL     1       6.209   4.618  19.872  0.00  0.00    +0.000 OA
BRANCH  14  16
ATOM     16  C   UNL     1       4.680   6.186  18.424  0.00  0.00    +0.000 A 
ATOM     17  C   UNL     1       3.702   6.079  19.423  0.00  0.00    +0.000 A 
ATOM     18  C   UNL     1       2.527   6.836  19.352  0.00  0.00    +0.000 A 
ATOM     19  C   UNL     1       2.334   7.717  18.288  0.00  0.00    +0.000 A 
ATOM     20  F   UNL     1       1.231   8.463  18.242  0.00  0.00    +0.000 F 
ATOM     21  C   UNL     1       3.305   7.835  17.291  0.00  0.00    +0.000 A 
ATOM     22  C   UNL     1       4.481   7.070  17.351  0.00  0.00    +0.000 A 
ENDBRANCH  14  16
ENDBRANCH   1  14
TORSDOF 3
ENDMDL
MODEL 5
REMARK VINA RESULT:      -7.8      1.463      1.789
REMARK  Name = 
REMARK  3 active torsions:
REMARK  status: ('A' for Active; 'I' for Inactive)
REMARK    1  A    between atoms: S_2  and  C_4
REMARK    2  A    between atoms: S_2  and  N_11
REMARK    3  A    between atoms: C_15  and  C_16
REMARK                            x       y       z     vdW  Elec       q    Type
REMARK                         _______ _______ _______ _____ _____    ______ ____
ROOT
ATOM      1  N   UNL     1       2.415   4.492  18.349  0.00  0.00    +0.000 NA
ATOM      2  C   UNL     1       1.431   3.383  18.546  0.00  0.00    +0.000 C 
ATOM      3  C   UNL     1       2.294   2.147  18.816  0.00  0.00    +0.000 C 
ATOM      4  C   UNL     1       3.550   2.346  17.983  0.00  0.00    +0.000 C 
ATOM      5  C   UNL     1       3.500   3.823  17.567  0.00  0.00    +0.000 C 
ENDROOT
BRANCH   5   6
ATOM      6  C   UNL     1       4.753   4.510  17.056  0.00  0.00    +0.000 A 
ATOM      7  C   UNL     1       4.573   5.363  15.947  0.00  0.00    +0.000 A 
ATOM      8  C   UNL     1       5.610   5.598  15.046  0.00  0.00    +0.000 A 
ATOM      9  C   UNL     1       6.863   5.063  15.301  0.00  0.00    +0.000 A 
ATOM     10  F   UNL     1       7.823   5.170  14.375  0.00  0.00    +0.000 F 
ATOM     11  C   UNL     1       7.117   4.384  16.488  0.00  0.00    +0.000 A 
ATOM     12  C   UNL     1       6.064   4.111  17.376  0.00  0.00    +0.000 A 
ENDBRANCH   5   6
BRANCH   1  14
ATOM     13  O   UNL     1       4.234   5.408  19.918  0.00  0.00    +0.000 OA
ATOM     14  S   UNL     1       2.801   5.376  19.762  0.00  0.00    +0.000 S 
ATOM     15  O   UNL     1       1.932   4.900  20.823  0.00  0.00    +0.000 OA
BRANCH  14  16
ATOM     16  C   UNL     1       2.312   7.075  19.403  0.00  0.00    +0.000 A 
ATOM     17  C   UNL     1       2.459   7.590  18.108  0.00  0.00    +0.000 A 
ATOM     18  C   UNL     1       1.965   8.860  17.787  0.00  0.00    +0.000 A 
ATOM     19  C   UNL     1       1.305   9.612  18.759  0.00  0.00    +0.000 A 
ATOM     20  F   UNL     1       0.804  10.805  18.441  0.00  0.00    +0.000 F 
ATOM     21  C   UNL     1       1.149   9.105  20.050  0.00  0.00    +0.000 A 
ATOM     22  C   UNL     1       1.653   7.836  20.382  0.00  0.00    +0.000 A 
ENDBRANCH  14  16
ENDBRANCH   1  14
TORSDOF 3
ENDMDL
MODEL 6
REMARK VINA RESULT:      -7.7      2.312      5.502
REMARK  Name = 
REMARK  3 active torsions:
REMARK  status: ('A' for Active; 'I' for Inactive)
REMARK    1  A    between atoms: S_2  and  C_4
REMARK    2  A    between atoms: S_2  and  N_11
REMARK    3  A    between atoms: C_15  and  C_16
REMARK                            x       y       z     vdW  Elec       q    Type
REMARK                         _______ _______ _______ _____ _____    ______ ____
ROOT
ATOM      1  N   UNL     1       3.360   3.686  19.530  0.00  0.00    +0.000 NA
ATOM      2  C   UNL     1       2.946   2.626  20.500  0.00  0.00    +0.000 C 
ATOM      3  C   UNL     1       1.496   2.973  20.852  0.00  0.00    +0.000 C 
ATOM      4  C   UNL     1       1.427   4.490  20.811  0.00  0.00    +0.000 C 
ATOM      5  C   UNL     1       2.721   4.912  20.102  0.00  0.00    +0.000 C 
ENDROOT
BRANCH   5   6
ATOM      6  C   UNL     1       2.851   6.309  19.525  0.00  0.00    +0.000 A 
ATOM      7  C   UNL     1       2.040   7.296  20.122  0.00  0.00    +0.000 A 
ATOM      8  C   UNL     1       1.619   8.412  19.401  0.00  0.00    +0.000 A 
ATOM      9  C   UNL     1       2.087   8.602  18.111  0.00  0.00    +0.000 A 
ATOM     10  F   UNL     1       1.582   9.594  17.369  0.00  0.00    +0.000 F 
ATOM     11  C   UNL     1       3.043   7.748  17.569  0.00  0.00    +0.000 A 
ATOM     12  C   UNL     1       3.435   6.600  18.278  0.00  0.00    +0.000 A 
ENDBRANCH   5   6
BRANCH   1  14
ATOM     13  O   UNL     1       1.975   4.005  17.388  0.00  0.00    +0.000 OA
ATOM     14  S   UNL     1       3.126   3.291  17.882  0.00  0.00    +0.000 S 
ATOM     15  O   UNL     1       3.234   1.848  17.762  0.00  0.00    +0.000 OA
BRANCH  14  16
ATOM     16  C   UNL     1       4.544   4.000  17.021  0.00  0.00    +0.000 A 
ATOM     17  C   UNL     1       5.765   4.161  17.692  0.00  0.00    +0.000 A 
ATOM     18  C   UNL     1       6.905   4.587  17.001  0.00  0.00    +0.000 A 
ATOM     19  C   UNL     1       6.832   4.836  15.630  0.00  0.00    +0.000 A 
ATOM     20  F   UNL     1       7.927   5.205  14.968  0.00  0.00    +0.000 F 
ATOM     21  C   UNL     1       5.622   4.672  14.952  0.00  0.00    +0.000 A 
ATOM     22  C   UNL     1       4.471   4.256  15.643  0.00  0.00    +0.000 A 
ENDBRANCH  14  16
ENDBRANCH   1  14
TORSDOF 3
ENDMDL
MODEL 7
REMARK VINA RESULT:      -7.6      1.481      2.077
REMARK  Name = 
REMARK  3 active torsions:
REMARK  status: ('A' for Active; 'I' for Inactive)
REMARK    1  A    between atoms: S_2  and  C_4
REMARK    2  A    between atoms: S_2  and  N_11
REMARK    3  A    between atoms: C_15  and  C_16
REMARK                            x       y       z     vdW  Elec       q    Type
REMARK                         _______ _______ _______ _____ _____    ______ ____
ROOT
ATOM      1  N   UNL     1       2.463   4.455  18.371  0.00  0.00    +0.000 NA
ATOM      2  C   UNL     1       1.515   3.325  18.620  0.00  0.00    +0.000 C 
ATOM      3  C   UNL     1       2.417   2.131  18.948  0.00  0.00    +0.000 C 
ATOM      4  C   UNL     1       3.666   2.332  18.106  0.00  0.00    +0.000 C 
ATOM      5  C   UNL     1       3.570   3.784  17.620  0.00  0.00    +0.000 C 
ENDROOT
BRANCH   5   6
ATOM      6  C   UNL     1       4.800   4.487  17.076  0.00  0.00    +0.000 A 
ATOM      7  C   UNL     1       4.582   5.331  15.967  0.00  0.00    +0.000 A 
ATOM      8  C   UNL     1       5.595   5.575  15.041  0.00  0.00    +0.000 A 
ATOM      9  C   UNL     1       6.861   5.060  15.270  0.00  0.00    +0.000 A 
ATOM     10  F   UNL     1       7.797   5.175  14.322  0.00  0.00    +0.000 F 
ATOM     11  C   UNL     1       7.152   4.391  16.455  0.00  0.00    +0.000 A 
ATOM     12  C   UNL     1       6.124   4.108  17.368  0.00  0.00    +0.000 A 
ENDBRANCH   5   6
BRANCH   1  14
ATOM     13  O   UNL     1       4.249   5.571  19.845  0.00  0.00    +0.000 OA
ATOM     14  S   UNL     1       2.819   5.416  19.740  0.00  0.00    +0.000 S 
ATOM     15  O   UNL     1       2.027   4.907  20.846  0.00  0.00    +0.000 OA
BRANCH  14  16
ATOM     16  C   UNL     1       2.179   7.056  19.344  0.00  0.00    +0.000 A 
ATOM     17  C   UNL     1       1.583   7.837  20.344  0.00  0.00    +0.000 A 
ATOM     18  C   UNL     1       1.201   9.158  20.081  0.00  0.00    +0.000 A 
ATOM     19  C   UNL     1       1.433   9.707  18.820  0.00  0.00    +0.000 A 
ATOM     20  F   UNL     1       1.102  10.976  18.584  0.00  0.00    +0.000 F 
ATOM     21  C   UNL     1       2.032   8.939  17.820  0.00  0.00    +0.000 A 
ATOM     22  C   UNL     1       2.407   7.609  18.074  0.00  0.00    +0.000 A 
ENDBRANCH  14  16
ENDBRANCH   1  14
TORSDOF 3
ENDMDL
MODEL 8
REMARK VINA RESULT:      -7.6      2.367      5.452
REMARK  Name = 
REMARK  3 active torsions:
REMARK  status: ('A' for Active; 'I' for Inactive)
REMARK    1  A    between atoms: S_2  and  C_4
REMARK    2  A    between atoms: S_2  and  N_11
REMARK    3  A    between atoms: C_15  and  C_16
REMARK                            x       y       z     vdW  Elec       q    Type
REMARK                         _______ _______ _______ _____ _____    ______ ____
ROOT
ATOM      1  N   UNL     1       3.614   3.725  19.453  0.00  0.00    +0.000 NA
ATOM      2  C   UNL     1       3.325   2.645  20.446  0.00  0.00    +0.000 C 
ATOM      3  C   UNL     1       1.905   2.943  20.937  0.00  0.00    +0.000 C 
ATOM      4  C   UNL     1       1.787   4.458  20.920  0.00  0.00    +0.000 C 
ATOM      5  C   UNL     1       2.995   4.926  20.097  0.00  0.00    +0.000 C 
ENDROOT
BRANCH   5   6
ATOM      6  C   UNL     1       3.029   6.331  19.527  0.00  0.00    +0.000 A 
ATOM      7  C   UNL     1       2.110   7.242  20.088  0.00  0.00    +0.000 A 
ATOM      8  C   UNL     1       1.626   8.320  19.350  0.00  0.00    +0.000 A 
ATOM      9  C   UNL     1       2.131   8.555  18.081  0.00  0.00    +0.000 A 
ATOM     10  F   UNL     1       1.575   9.502  17.318  0.00  0.00    +0.000 F 
ATOM     11  C   UNL     1       3.179   7.788  17.581  0.00  0.00    +0.000 A 
ATOM     12  C   UNL     1       3.639   6.677  18.306  0.00  0.00    +0.000 A 
ENDBRANCH   5   6
BRANCH   1  14
ATOM     13  O   UNL     1       2.162   4.187  17.383  0.00  0.00    +0.000 OA
ATOM     14  S   UNL     1       3.237   3.338  17.831  0.00  0.00    +0.000 S 
ATOM     15  O   UNL     1       3.151   1.891  17.739  0.00  0.00    +0.000 OA
BRANCH  14  16
ATOM     16  C   UNL     1       4.684   3.840  16.877  0.00  0.00    +0.000 A 
ATOM     17  C   UNL     1       4.561   4.124  15.511  0.00  0.00    +0.000 A 
ATOM     18  C   UNL     1       5.645   4.639  14.790  0.00  0.00    +0.000 A 
ATOM     19  C   UNL     1       6.853   4.889  15.441  0.00  0.00    +0.000 A 
ATOM     20  F   UNL     1       7.871   5.414  14.762  0.00  0.00    +0.000 F 
ATOM     21  C   UNL     1       6.983   4.615  16.804  0.00  0.00    +0.000 A 
ATOM     22  C   UNL     1       5.902   4.087  17.530  0.00  0.00    +0.000 A 
ENDBRANCH  14  16
ENDBRANCH   1  14
TORSDOF 3
ENDMDL
MODEL 9
REMARK VINA RESULT:      -7.5      1.928      5.252
REMARK  Name = 
REMARK  3 active torsions:
REMARK  status: ('A' for Active; 'I' for Inactive)
REMARK    1  A    between atoms: S_2  and  C_4
REMARK    2  A    between atoms: S_2  and  N_11
REMARK    3  A    between atoms: C_15  and  C_16
REMARK                            x       y       z     vdW  Elec       q    Type
REMARK                         _______ _______ _______ _____ _____    ______ ____
ROOT
ATOM      1  N   UNL     1       4.193   4.002  18.197  0.00  0.00    +0.000 NA
ATOM      2  C   UNL     1       3.712   2.588  18.115  0.00  0.00    +0.000 C 
ATOM      3  C   UNL     1       2.358   2.683  17.407  0.00  0.00    +0.000 C 
ATOM      4  C   UNL     1       1.761   4.005  17.861  0.00  0.00    +0.000 C 
ATOM      5  C   UNL     1       2.936   4.750  18.510  0.00  0.00    +0.000 C 
ENDROOT
BRANCH   5   6
ATOM      6  C   UNL     1       2.851   6.247  18.742  0.00  0.00    +0.000 A 
ATOM      7  C   UNL     1       2.424   6.644  20.026  0.00  0.00    +0.000 A 
ATOM      8  C   UNL     1       1.771   7.860  20.221  0.00  0.00    +0.000 A 
ATOM      9  C   UNL     1       1.631   8.733  19.154  0.00  0.00    +0.000 A 
ATOM     10  F   UNL     1       0.889   9.836  19.302  0.00  0.00    +0.000 F 
ATOM     11  C   UNL     1       2.217   8.451  17.924  0.00  0.00    +0.000 A 
ATOM     12  C   UNL     1       2.838   7.209  17.715  0.00  0.00    +0.000 A 
ENDBRANCH   5   6
BRANCH   1  14
ATOM     13  O   UNL     1       4.373   5.197  15.928  0.00  0.00    +0.000 OA
ATOM     14  S   UNL     1       5.185   4.505  16.898  0.00  0.00    +0.000 S 
ATOM     15  O   UNL     1       6.019   3.376  16.525  0.00  0.00    +0.000 OA
BRANCH  14  16
ATOM     16  C   UNL     1       6.279   5.758  17.598  0.00  0.00    +0.000 A 
ATOM     17  C   UNL     1       7.149   5.426  18.645  0.00  0.00    +0.000 A 
ATOM     18  C   UNL     1       8.091   6.352  19.108  0.00  0.00    +0.000 A 
ATOM     19  C   UNL     1       8.177   7.609  18.511  0.00  0.00    +0.000 A 
ATOM     20  F   UNL     1       9.100   8.475  18.929  0.00  0.00    +0.000 F 
ATOM     21  C   UNL     1       7.319   7.948  17.464  0.00  0.00    +0.000 A 
ATOM     22  C   UNL     1       6.363   7.027  17.002  0.00  0.00    +0.000 A 
ENDBRANCH  14  16
ENDBRANCH   1  14
TORSDOF 3
ENDMDL
