MODEL 1
REMARK VINA RESULT:      -7.9      0.000      0.000
REMARK  Name = 
REMARK  17 active torsions:
REMARK  status: ('A' for Active; 'I' for Inactive)
REMARK    1  A    between atoms: C_1  and  N_2
REMARK    2  A    between atoms: C_3  and  C_5
REMARK    3  A    between atoms: C_5  and  C_6
REMARK    4  A    between atoms: C_5  and  N_13
REMARK    5  A    between atoms: C_6  and  C_7
REMARK    6  A    between atoms: C_14  and  C_16
REMARK    7  A    between atoms: C_16  and  C_17
REMARK    8  A    between atoms: C_16  and  C_21
REMARK    9  A    between atoms: C_17  and  C_18
REMARK   10  A    between atoms: C_18  and  C_19
REMARK   11  A    between atoms: C_18  and  C_20
REMARK   12  A    between atoms: C_21  and  C_22
REMARK   13  A    between atoms: C_21  and  C_31
REMARK   14  A    between atoms: C_22  and  S_23
REMARK   15  A    between atoms: S_23  and  C_24
REMARK   16  A    between atoms: C_24  and  C_25
REMARK   17  A    between atoms: N_33  and  O_34
REMARK                            x       y       z     vdW  Elec       q    Type
REMARK                         _______ _______ _______ _____ _____    ______ ____
ROOT
ATOM      1  C   UNL     1       5.455   5.548  17.406  0.00  0.00    +0.000 C 
ENDROOT
BRANCH   1   3
ATOM      2  N   UNL     1       3.570   6.572  18.708  0.00  0.00    +0.000 N 
ATOM      3  C   UNL     1       3.954   5.639  17.778  0.00  0.00    +0.000 C 
ATOM      4  O   UNL     1       3.123   4.970  17.164  0.00  0.00    +0.000 OA
ATOM      5  H   UNL     1       4.212   6.920  19.400  0.00  0.00    +0.000 HD
BRANCH   2   6
ATOM      6  C   UNL     1       2.173   6.876  19.023  0.00  0.00    +0.000 C 
BRANCH   6   9
ATOM      7  C   UNL     1       2.125  10.511  17.795  0.00  0.00    +0.000 C 
ATOM      8  N   UNL     1       2.273   9.077  17.859  0.00  0.00    +0.000 N 
ATOM      9  C   UNL     1       1.865   8.391  18.988  0.00  0.00    +0.000 C 
ATOM     10  O   UNL     1       1.339   8.964  19.941  0.00  0.00    +0.000 OA
ATOM     11  H   UNL     1       2.389   8.550  16.995  0.00  0.00    +0.000 HD
ENDBRANCH   6   9
BRANCH   6  12
ATOM     12  C   UNL     1       1.745   6.279  20.382  0.00  0.00    +0.000 C 
BRANCH  12  13
ATOM     13  C   UNL     1       1.713   4.757  20.451  0.00  0.00    +0.000 A 
ATOM     14  C   UNL     1       2.340   4.049  21.485  0.00  0.00    +0.000 A 
ATOM     15  C   UNL     1       2.334   2.652  21.506  0.00  0.00    +0.000 A 
ATOM     16  C   UNL     1       1.666   1.941  20.513  0.00  0.00    +0.000 A 
ATOM     17  C   UNL     1       0.993   2.630  19.512  0.00  0.00    +0.000 A 
ATOM     18  C   UNL     1       1.022   4.030  19.476  0.00  0.00    +0.000 A 
ENDBRANCH  12  13
ENDBRANCH   6  12
ENDBRANCH   2   6
ENDBRANCH   1   3
BRANCH   1  19
ATOM     19  C   UNL     1       5.575   5.794  15.880  0.00  0.00    +0.000 C 
BRANCH  19  20
ATOM     20  C   UNL     1       6.127   4.660  14.990  0.00  0.00    +0.000 C 
ATOM     21  C   UNL     1       5.103   4.099  13.999  0.00  0.00    +0.000 C 
ATOM     22  C   UNL     1       7.323   5.198  14.194  0.00  0.00    +0.000 C 
ENDBRANCH  19  20
ENDBRANCH   1  19
BRANCH   1  23
ATOM     23  C   UNL     1       6.422   6.361  18.326  0.00  0.00    +0.000 C 
BRANCH  23  24
ATOM     24  C   UNL     1       6.934   5.540  19.518  0.00  0.00    +0.000 C 
ATOM     25  O   UNL     1       6.286   4.639  20.055  0.00  0.00    +0.000 OA
ATOM     26  N   UNL     1       8.197   5.813  19.969  0.00  0.00    +0.000 N 
ATOM     27  H   UNL     1       8.692   6.688  19.835  0.00  0.00    +0.000 HD
BRANCH  26  28
ATOM     28  O   UNL     1       8.636   5.014  21.052  0.00  0.00    +0.000 OA
ATOM     29  H   UNL     1       7.902   4.368  21.156  0.00  0.00    +0.000 HD
ENDBRANCH  26  28
ENDBRANCH  23  24
BRANCH  23  30
ATOM     30  C   UNL     1       7.591   6.983  17.526  0.00  0.00    +0.000 C 
BRANCH  30  31
ATOM     31  S   UNL     1       7.727   8.806  17.569  0.00  0.00    +0.000 S 
BRANCH  31  32
ATOM     32  C   UNL     1       8.951   8.997  18.900  0.00  0.00    +0.000 C 
BRANCH  32  33
ATOM     33  C   UNL     1       9.380  10.428  19.075  0.00  0.00    +0.000 A 
ATOM     34  C   UNL     1       9.344  11.031  20.339  0.00  0.00    +0.000 A 
ATOM     35  C   UNL     1       9.770  12.349  20.508  0.00  0.00    +0.000 A 
ATOM     36  C   UNL     1      10.221  13.078  19.410  0.00  0.00    +0.000 A 
ATOM     37  C   UNL     1      10.240  12.495  18.145  0.00  0.00    +0.000 A 
ATOM     38  C   UNL     1       9.821  11.176  17.975  0.00  0.00    +0.000 A 
ENDBRANCH  32  33
ENDBRANCH  31  32
ENDBRANCH  30  31
ENDBRANCH  23  30
ENDBRANCH   1  23
TORSDOF 14
ENDMDL
MODEL 2
REMARK VINA RESULT:      -7.6      3.906      6.978
REMARK  Name = 
REMARK  17 active torsions:
REMARK  status: ('A' for Active; 'I' for Inactive)
REMARK    1  A    between atoms: C_1  and  N_2
REMARK    2  A    between atoms: C_3  and  C_5
REMARK    3  A    between atoms: C_5  and  C_6
REMARK    4  A    between atoms: C_5  and  N_13
REMARK    5  A    between atoms: C_6  and  C_7
REMARK    6  A    between atoms: C_14  and  C_16
REMARK    7  A    between atoms: C_16  and  C_17
REMARK    8  A    between atoms: C_16  and  C_21
REMARK    9  A    between atoms: C_17  and  C_18
REMARK   10  A    between atoms: C_18  and  C_19
REMARK   11  A    between atoms: C_18  and  C_20
REMARK   12  A    between atoms: C_21  and  C_22
REMARK   13  A    between atoms: C_21  and  C_31
REMARK   14  A    between atoms: C_22  and  S_23
REMARK   15  A    between atoms: S_23  and  C_24
REMARK   16  A    between atoms: C_24  and  C_25
REMARK   17  A    between atoms: N_33  and  O_34
REMARK                            x       y       z     vdW  Elec       q    Type
REMARK                         _______ _______ _______ _____ _____    ______ ____
ROOT
ATOM      1  C   UNL     1       2.819   5.418  19.341  0.00  0.00    +0.000 C 
ENDROOT
BRANCH   1   3
ATOM      2  N   UNL     1       1.759   7.489  20.280  0.00  0.00    +0.000 N 
ATOM      3  C   UNL     1       2.519   6.937  19.280  0.00  0.00    +0.000 C 
ATOM      4  O   UNL     1       3.053   7.639  18.422  0.00  0.00    +0.000 OA
ATOM      5  H   UNL     1       1.105   6.938  20.810  0.00  0.00    +0.000 HD
BRANCH   2   6
ATOM      6  C   UNL     1       1.544   8.930  20.433  0.00  0.00    +0.000 C 
BRANCH   6   9
ATOM      7  C   UNL     1      -0.819  10.069  23.234  0.00  0.00    +0.000 C 
ATOM      8  N   UNL     1      -0.298   9.593  21.976  0.00  0.00    +0.000 N 
ATOM      9  C   UNL     1       1.050   9.315  21.847  0.00  0.00    +0.000 C 
ATOM     10  O   UNL     1       1.829   9.426  22.795  0.00  0.00    +0.000 OA
ATOM     11  H   UNL     1      -0.937   9.186  21.295  0.00  0.00    +0.000 HD
ENDBRANCH   6   9
BRANCH   6  12
ATOM     12  C   UNL     1       0.578   9.486  19.364  0.00  0.00    +0.000 C 
BRANCH  12  13
ATOM     13  C   UNL     1       0.791  10.946  18.981  0.00  0.00    +0.000 A 
ATOM     14  C   UNL     1       2.041  11.430  18.575  0.00  0.00    +0.000 A 
ATOM     15  C   UNL     1       2.224  12.781  18.268  0.00  0.00    +0.000 A 
ATOM     16  C   UNL     1       1.147  13.662  18.325  0.00  0.00    +0.000 A 
ATOM     17  C   UNL     1      -0.111  13.185  18.673  0.00  0.00    +0.000 A 
ATOM     18  C   UNL     1      -0.287  11.836  19.006  0.00  0.00    +0.000 A 
ENDBRANCH  12  13
ENDBRANCH   6  12
ENDBRANCH   2   6
ENDBRANCH   1   3
BRANCH   1  19
ATOM     19  C   UNL     1       1.514   4.668  18.967  0.00  0.00    +0.000 C 
BRANCH  19  20
ATOM     20  C   UNL     1       0.913   3.677  19.986  0.00  0.00    +0.000 C 
ATOM     21  C   UNL     1       0.842   2.235  19.476  0.00  0.00    +0.000 C 
ATOM     22  C   UNL     1       1.773   3.696  21.257  0.00  0.00    +0.000 C 
ENDBRANCH  19  20
ENDBRANCH   1  19
BRANCH   1  23
ATOM     23  C   UNL     1       4.124   4.965  18.611  0.00  0.00    +0.000 C 
BRANCH  23  24
ATOM     24  C   UNL     1       4.431   3.475  18.820  0.00  0.00    +0.000 C 
ATOM     25  O   UNL     1       5.015   3.030  19.810  0.00  0.00    +0.000 OA
ATOM     26  N   UNL     1       3.989   2.605  17.859  0.00  0.00    +0.000 N 
ATOM     27  H   UNL     1       3.786   2.848  16.896  0.00  0.00    +0.000 HD
BRANCH  26  28
ATOM     28  O   UNL     1       4.273   1.240  18.106  0.00  0.00    +0.000 OA
ATOM     29  H   UNL     1       5.145   1.278  18.559  0.00  0.00    +0.000 HD
ENDBRANCH  26  28
ENDBRANCH  23  24
BRANCH  23  30
ATOM     30  C   UNL     1       4.099   5.331  17.108  0.00  0.00    +0.000 C 
BRANCH  30  31
ATOM     31  S   UNL     1       5.533   6.273  16.475  0.00  0.00    +0.000 S 
BRANCH  31  32
ATOM     32  C   UNL     1       6.667   4.903  16.100  0.00  0.00    +0.000 C 
BRANCH  32  33
ATOM     33  C   UNL     1       6.758   4.630  14.624  0.00  0.00    +0.000 A 
ATOM     34  C   UNL     1       5.910   3.691  14.021  0.00  0.00    +0.000 A 
ATOM     35  C   UNL     1       5.974   3.458  12.647  0.00  0.00    +0.000 A 
ATOM     36  C   UNL     1       6.897   4.152  11.868  0.00  0.00    +0.000 A 
ATOM     37  C   UNL     1       7.760   5.072  12.461  0.00  0.00    +0.000 A 
ATOM     38  C   UNL     1       7.693   5.310  13.834  0.00  0.00    +0.000 A 
ENDBRANCH  32  33
ENDBRANCH  31  32
ENDBRANCH  30  31
ENDBRANCH  23  30
ENDBRANCH   1  23
TORSDOF 14
ENDMDL
MODEL 3
REMARK VINA RESULT:      -7.3      2.401      6.177
REMARK  Name = 
REMARK  17 active torsions:
REMARK  status: ('A' for Active; 'I' for Inactive)
REMARK    1  A    between atoms: C_1  and  N_2
REMARK    2  A    between atoms: C_3  and  C_5
REMARK    3  A    between atoms: C_5  and  C_6
REMARK    4  A    between atoms: C_5  and  N_13
REMARK    5  A    between atoms: C_6  and  C_7
REMARK    6  A    between atoms: C_14  and  C_16
REMARK    7  A    between atoms: C_16  and  C_17
REMARK    8  A    between atoms: C_16  and  C_21
REMARK    9  A    between atoms: C_17  and  C_18
REMARK   10  A    between atoms: C_18  and  C_19
REMARK   11  A    between atoms: C_18  and  C_20
REMARK   12  A    between atoms: C_21  and  C_22
REMARK   13  A    between atoms: C_21  and  C_31
REMARK   14  A    between atoms: C_22  and  S_23
REMARK   15  A    between atoms: S_23  and  C_24
REMARK   16  A    between atoms: C_24  and  C_25
REMARK   17  A    between atoms: N_33  and  O_34
REMARK                            x       y       z     vdW  Elec       q    Type
REMARK                         _______ _______ _______ _____ _____    ______ ____
ROOT
ATOM      1  C   UNL     1       5.124   5.866  17.135  0.00  0.00    +0.000 C 
ENDROOT
BRANCH   1   3
ATOM      2  N   UNL     1       3.415   6.887  18.663  0.00  0.00    +0.000 N 
ATOM      3  C   UNL     1       3.706   5.897  17.758  0.00  0.00    +0.000 C 
ATOM      4  O   UNL     1       2.837   5.123  17.358  0.00  0.00    +0.000 OA
ATOM      5  H   UNL     1       4.136   7.338  19.200  0.00  0.00    +0.000 HD
BRANCH   2   6
ATOM      6  C   UNL     1       2.073   7.130  19.195  0.00  0.00    +0.000 C 
BRANCH   6   9
ATOM      7  C   UNL     1       1.834  10.786  18.054  0.00  0.00    +0.000 C 
ATOM      8  N   UNL     1       2.052   9.360  18.083  0.00  0.00    +0.000 N 
ATOM      9  C   UNL     1       1.691   8.628  19.199  0.00  0.00    +0.000 C 
ATOM     10  O   UNL     1       1.149   9.153  20.172  0.00  0.00    +0.000 OA
ATOM     11  H   UNL     1       2.184   8.859  17.205  0.00  0.00    +0.000 HD
ENDBRANCH   6   9
BRANCH   6  12
ATOM     12  C   UNL     1       1.896   6.534  20.609  0.00  0.00    +0.000 C 
BRANCH  12  13
ATOM     13  C   UNL     1       1.748   5.018  20.670  0.00  0.00    +0.000 A 
ATOM     14  C   UNL     1       0.843   4.329  19.854  0.00  0.00    +0.000 A 
ATOM     15  C   UNL     1       0.694   2.943  19.956  0.00  0.00    +0.000 A 
ATOM     16  C   UNL     1       1.478   2.220  20.851  0.00  0.00    +0.000 A 
ATOM     17  C   UNL     1       2.420   2.884  21.627  0.00  0.00    +0.000 A 
ATOM     18  C   UNL     1       2.550   4.276  21.544  0.00  0.00    +0.000 A 
ENDBRANCH  12  13
ENDBRANCH   6  12
ENDBRANCH   2   6
ENDBRANCH   1   3
BRANCH   1  19
ATOM     19  C   UNL     1       5.899   7.095  17.676  0.00  0.00    +0.000 C 
BRANCH  19  20
ATOM     20  C   UNL     1       7.442   7.048  17.688  0.00  0.00    +0.000 C 
ATOM     21  C   UNL     1       8.101   8.431  17.707  0.00  0.00    +0.000 C 
ATOM     22  C   UNL     1       7.901   6.279  18.934  0.00  0.00    +0.000 C 
ENDBRANCH  19  20
ENDBRANCH   1  19
BRANCH   1  23
ATOM     23  C   UNL     1       5.855   4.488  17.204  0.00  0.00    +0.000 C 
BRANCH  23  24
ATOM     24  C   UNL     1       5.205   3.523  18.205  0.00  0.00    +0.000 C 
ATOM     25  O   UNL     1       5.298   3.642  19.428  0.00  0.00    +0.000 OA
ATOM     26  N   UNL     1       4.452   2.501  17.690  0.00  0.00    +0.000 N 
ATOM     27  H   UNL     1       4.542   2.118  16.755  0.00  0.00    +0.000 HD
BRANCH  26  28
ATOM     28  O   UNL     1       3.851   1.653  18.650  0.00  0.00    +0.000 OA
ATOM     29  H   UNL     1       4.415   1.790  19.444  0.00  0.00    +0.000 HD
ENDBRANCH  26  28
ENDBRANCH  23  24
BRANCH  23  30
ATOM     30  C   UNL     1       5.995   3.840  15.805  0.00  0.00    +0.000 C 
BRANCH  30  31
ATOM     31  S   UNL     1       6.867   4.826  14.536  0.00  0.00    +0.000 S 
BRANCH  31  32
ATOM     32  C   UNL     1       5.730   4.608  13.134  0.00  0.00    +0.000 C 
BRANCH  32  33
ATOM     33  C   UNL     1       6.073   3.400  12.307  0.00  0.00    +0.000 A 
ATOM     34  C   UNL     1       5.076   2.490  11.930  0.00  0.00    +0.000 A 
ATOM     35  C   UNL     1       5.387   1.385  11.139  0.00  0.00    +0.000 A 
ATOM     36  C   UNL     1       6.702   1.174  10.730  0.00  0.00    +0.000 A 
ATOM     37  C   UNL     1       7.705   2.060  11.118  0.00  0.00    +0.000 A 
ATOM     38  C   UNL     1       7.394   3.169  11.904  0.00  0.00    +0.000 A 
ENDBRANCH  32  33
ENDBRANCH  31  32
ENDBRANCH  30  31
ENDBRANCH  23  30
ENDBRANCH   1  23
TORSDOF 14
ENDMDL
MODEL 4
REMARK VINA RESULT:      -7.3      3.638      6.069
REMARK  Name = 
REMARK  17 active torsions:
REMARK  status: ('A' for Active; 'I' for Inactive)
REMARK    1  A    between atoms: C_1  and  N_2
REMARK    2  A    between atoms: C_3  and  C_5
REMARK    3  A    between atoms: C_5  and  C_6
REMARK    4  A    between atoms: C_5  and  N_13
REMARK    5  A    between atoms: C_6  and  C_7
REMARK    6  A    between atoms: C_14  and  C_16
REMARK    7  A    between atoms: C_16  and  C_17
REMARK    8  A    between atoms: C_16  and  C_21
REMARK    9  A    between atoms: C_17  and  C_18
REMARK   10  A    between atoms: C_18  and  C_19
REMARK   11  A    between atoms: C_18  and  C_20
REMARK   12  A    between atoms: C_21  and  C_22
REMARK   13  A    between atoms: C_21  and  C_31
REMARK   14  A    between atoms: C_22  and  S_23
REMARK   15  A    between atoms: S_23  and  C_24
REMARK   16  A    between atoms: C_24  and  C_25
REMARK   17  A    between atoms: N_33  and  O_34
REMARK                            x       y       z     vdW  Elec       q    Type
REMARK                         _______ _______ _______ _____ _____    ______ ____
ROOT
ATOM      1  C   UNL     1       5.156   4.395  17.898  0.00  0.00    +0.000 C 
ENDROOT
BRANCH   1   3
ATOM      2  N   UNL     1       2.997   5.674  17.900  0.00  0.00    +0.000 N 
ATOM      3  C   UNL     1       4.266   5.556  18.408  0.00  0.00    +0.000 C 
ATOM      4  O   UNL     1       4.653   6.274  19.330  0.00  0.00    +0.000 OA
ATOM      5  H   UNL     1       2.756   5.307  16.994  0.00  0.00    +0.000 HD
BRANCH   2   6
ATOM      6  C   UNL     1       2.001   6.616  18.415  0.00  0.00    +0.000 C 
BRANCH   6   9
ATOM      7  C   UNL     1       1.754  10.445  18.347  0.00  0.00    +0.000 C 
ATOM      8  N   UNL     1       1.607   9.058  18.718  0.00  0.00    +0.000 N 
ATOM      9  C   UNL     1       2.311   8.083  18.036  0.00  0.00    +0.000 C 
ATOM     10  O   UNL     1       3.099   8.363  17.132  0.00  0.00    +0.000 OA
ATOM     11  H   UNL     1       1.238   8.826  19.639  0.00  0.00    +0.000 HD
ENDBRANCH   6   9
BRANCH   6  12
ATOM     12  C   UNL     1       1.825   6.489  19.945  0.00  0.00    +0.000 C 
BRANCH  12  13
ATOM     13  C   UNL     1       1.658   5.069  20.472  0.00  0.00    +0.000 A 
ATOM     14  C   UNL     1       0.696   4.194  19.953  0.00  0.00    +0.000 A 
ATOM     15  C   UNL     1       0.532   2.911  20.480  0.00  0.00    +0.000 A 
ATOM     16  C   UNL     1       1.357   2.468  21.510  0.00  0.00    +0.000 A 
ATOM     17  C   UNL     1       2.353   3.305  21.997  0.00  0.00    +0.000 A 
ATOM     18  C   UNL     1       2.499   4.602  21.487  0.00  0.00    +0.000 A 
ENDBRANCH  12  13
ENDBRANCH   6  12
ENDBRANCH   2   6
ENDBRANCH   1   3
BRANCH   1  19
ATOM     19  C   UNL     1       4.255   3.445  17.068  0.00  0.00    +0.000 C 
BRANCH  19  20
ATOM     20  C   UNL     1       3.758   2.138  17.722  0.00  0.00    +0.000 C 
ATOM     21  C   UNL     1       4.146   2.000  19.197  0.00  0.00    +0.000 C 
ATOM     22  C   UNL     1       2.228   2.088  17.620  0.00  0.00    +0.000 C 
ENDBRANCH  19  20
ENDBRANCH   1  19
BRANCH   1  23
ATOM     23  C   UNL     1       6.509   4.826  17.247  0.00  0.00    +0.000 C 
BRANCH  23  24
ATOM     24  C   UNL     1       7.696   4.694  18.211  0.00  0.00    +0.000 C 
ATOM     25  O   UNL     1       8.720   4.059  17.950  0.00  0.00    +0.000 OA
ATOM     26  N   UNL     1       7.609   5.358  19.406  0.00  0.00    +0.000 N 
ATOM     27  H   UNL     1       6.747   5.642  19.858  0.00  0.00    +0.000 HD
BRANCH  26  28
ATOM     28  O   UNL     1       8.738   5.229  20.250  0.00  0.00    +0.000 OA
ATOM     29  H   UNL     1       8.432   5.646  21.087  0.00  0.00    +0.000 HD
ENDBRANCH  26  28
ENDBRANCH  23  24
BRANCH  23  30
ATOM     30  C   UNL     1       6.773   4.077  15.919  0.00  0.00    +0.000 C 
BRANCH  30  31
ATOM     31  S   UNL     1       6.996   5.114  14.430  0.00  0.00    +0.000 S 
BRANCH  31  32
ATOM     32  C   UNL     1       5.605   4.519  13.423  0.00  0.00    +0.000 C 
BRANCH  32  33
ATOM     33  C   UNL     1       6.015   3.422  12.480  0.00  0.00    +0.000 A 
ATOM     34  C   UNL     1       5.073   2.495  12.014  0.00  0.00    +0.000 A 
ATOM     35  C   UNL     1       5.446   1.495  11.117  0.00  0.00    +0.000 A 
ATOM     36  C   UNL     1       6.769   1.405  10.689  0.00  0.00    +0.000 A 
ATOM     37  C   UNL     1       7.719   2.308  11.163  0.00  0.00    +0.000 A 
ATOM     38  C   UNL     1       7.346   3.313  12.055  0.00  0.00    +0.000 A 
ENDBRANCH  32  33
ENDBRANCH  31  32
ENDBRANCH  30  31
ENDBRANCH  23  30
ENDBRANCH   1  23
TORSDOF 14
ENDMDL
MODEL 5
REMARK VINA RESULT:      -7.1      4.054      8.070
REMARK  Name = 
REMARK  17 active torsions:
REMARK  status: ('A' for Active; 'I' for Inactive)
REMARK    1  A    between atoms: C_1  and  N_2
REMARK    2  A    between atoms: C_3  and  C_5
REMARK    3  A    between atoms: C_5  and  C_6
REMARK    4  A    between atoms: C_5  and  N_13
REMARK    5  A    between atoms: C_6  and  C_7
REMARK    6  A    between atoms: C_14  and  C_16
REMARK    7  A    between atoms: C_16  and  C_17
REMARK    8  A    between atoms: C_16  and  C_21
REMARK    9  A    between atoms: C_17  and  C_18
REMARK   10  A    between atoms: C_18  and  C_19
REMARK   11  A    between atoms: C_18  and  C_20
REMARK   12  A    between atoms: C_21  and  C_22
REMARK   13  A    between atoms: C_21  and  C_31
REMARK   14  A    between atoms: C_22  and  S_23
REMARK   15  A    between atoms: S_23  and  C_24
REMARK   16  A    between atoms: C_24  and  C_25
REMARK   17  A    between atoms: N_33  and  O_34
REMARK                            x       y       z     vdW  Elec       q    Type
REMARK                         _______ _______ _______ _____ _____    ______ ____
ROOT
ATOM      1  C   UNL     1       0.804   9.609  19.506  0.00  0.00    +0.000 C 
ENDROOT
BRANCH   1   3
ATOM      2  N   UNL     1       2.236   7.643  18.886  0.00  0.00    +0.000 N 
ATOM      3  C   UNL     1       1.735   8.866  18.515  0.00  0.00    +0.000 C 
ATOM      4  O   UNL     1       1.916   9.313  17.382  0.00  0.00    +0.000 OA
ATOM      5  H   UNL     1       2.339   7.389  19.854  0.00  0.00    +0.000 HD
BRANCH   2   6
ATOM      6  C   UNL     1       2.984   6.766  17.983  0.00  0.00    +0.000 C 
BRANCH   6   9
ATOM      7  C   UNL     1       3.211   3.502  19.989  0.00  0.00    +0.000 C 
ATOM      8  N   UNL     1       3.216   4.895  19.613  0.00  0.00    +0.000 N 
ATOM      9  C   UNL     1       2.831   5.269  18.340  0.00  0.00    +0.000 C 
ATOM     10  O   UNL     1       2.443   4.445  17.511  0.00  0.00    +0.000 OA
ATOM     11  H   UNL     1       3.210   5.606  20.343  0.00  0.00    +0.000 HD
ENDBRANCH   6   9
BRANCH   6  12
ATOM     12  C   UNL     1       4.480   7.145  17.918  0.00  0.00    +0.000 C 
BRANCH  12  13
ATOM     13  C   UNL     1       5.362   6.206  17.105  0.00  0.00    +0.000 A 
ATOM     14  C   UNL     1       6.368   5.435  17.700  0.00  0.00    +0.000 A 
ATOM     15  C   UNL     1       7.193   4.611  16.929  0.00  0.00    +0.000 A 
ATOM     16  C   UNL     1       6.998   4.516  15.554  0.00  0.00    +0.000 A 
ATOM     17  C   UNL     1       5.967   5.232  14.958  0.00  0.00    +0.000 A 
ATOM     18  C   UNL     1       5.158   6.079  15.727  0.00  0.00    +0.000 A 
ENDBRANCH  12  13
ENDBRANCH   6  12
ENDBRANCH   2   6
ENDBRANCH   1   3
BRANCH   1  19
ATOM     19  C   UNL     1       1.438   9.497  20.916  0.00  0.00    +0.000 C 
BRANCH  19  20
ATOM     20  C   UNL     1       0.669   8.730  22.013  0.00  0.00    +0.000 C 
ATOM     21  C   UNL     1       0.205   9.615  23.174  0.00  0.00    +0.000 C 
ATOM     22  C   UNL     1      -0.566   8.075  21.382  0.00  0.00    +0.000 C 
ENDBRANCH  19  20
ENDBRANCH   1  19
BRANCH   1  23
ATOM     23  C   UNL     1       0.346  11.032  19.053  0.00  0.00    +0.000 C 
BRANCH  23  24
ATOM     24  C   UNL     1      -1.002  11.012  18.318  0.00  0.00    +0.000 C 
ATOM     25  O   UNL     1      -1.861  10.145  18.489  0.00  0.00    +0.000 OA
ATOM     26  N   UNL     1      -1.259  12.046  17.457  0.00  0.00    +0.000 N 
ATOM     27  H   UNL     1      -0.559  12.624  17.007  0.00  0.00    +0.000 HD
BRANCH  26  28
ATOM     28  O   UNL     1      -2.524  12.000  16.822  0.00  0.00    +0.000 OA
ATOM     29  H   UNL     1      -2.968  12.809  17.164  0.00  0.00    +0.000 HD
ENDBRANCH  26  28
ENDBRANCH  23  24
BRANCH  23  30
ATOM     30  C   UNL     1       0.331  12.034  20.232  0.00  0.00    +0.000 C 
BRANCH  30  31
ATOM     31  S   UNL     1       1.680  13.269  20.267  0.00  0.00    +0.000 S 
BRANCH  31  32
ATOM     32  C   UNL     1       0.753  14.759  19.795  0.00  0.00    +0.000 C 
BRANCH  32  33
ATOM     33  C   UNL     1       1.501  15.602  18.800  0.00  0.00    +0.000 A 
ATOM     34  C   UNL     1       2.715  15.156  18.260  0.00  0.00    +0.000 A 
ATOM     35  C   UNL     1       3.395  15.923  17.315  0.00  0.00    +0.000 A 
ATOM     36  C   UNL     1       2.873  17.151  16.913  0.00  0.00    +0.000 A 
ATOM     37  C   UNL     1       1.678  17.615  17.460  0.00  0.00    +0.000 A 
ATOM     38  C   UNL     1       0.993  16.845  18.400  0.00  0.00    +0.000 A 
ENDBRANCH  32  33
ENDBRANCH  31  32
ENDBRANCH  30  31
ENDBRANCH  23  30
ENDBRANCH   1  23
TORSDOF 14
ENDMDL
MODEL 6
REMARK VINA RESULT:      -7.1      5.900      9.602
REMARK  Name = 
REMARK  17 active torsions:
REMARK  status: ('A' for Active; 'I' for Inactive)
REMARK    1  A    between atoms: C_1  and  N_2
REMARK    2  A    between atoms: C_3  and  C_5
REMARK    3  A    between atoms: C_5  and  C_6
REMARK    4  A    between atoms: C_5  and  N_13
REMARK    5  A    between atoms: C_6  and  C_7
REMARK    6  A    between atoms: C_14  and  C_16
REMARK    7  A    between atoms: C_16  and  C_17
REMARK    8  A    between atoms: C_16  and  C_21
REMARK    9  A    between atoms: C_17  and  C_18
REMARK   10  A    between atoms: C_18  and  C_19
REMARK   11  A    between atoms: C_18  and  C_20
REMARK   12  A    between atoms: C_21  and  C_22
REMARK   13  A    between atoms: C_21  and  C_31
REMARK   14  A    between atoms: C_22  and  S_23
REMARK   15  A    between atoms: S_23  and  C_24
REMARK   16  A    between atoms: C_24  and  C_25
REMARK   17  A    between atoms: N_33  and  O_34
REMARK                            x       y       z     vdW  Elec       q    Type
REMARK                         _______ _______ _______ _____ _____    ______ ____
ROOT
ATOM      1  C   UNL     1      -1.230  10.972  19.159  0.00  0.00    +0.000 C 
ENDROOT
BRANCH   1   3
ATOM      2  N   UNL     1      -2.889  12.405  20.379  0.00  0.00    +0.000 N 
ATOM      3  C   UNL     1      -1.780  12.360  19.571  0.00  0.00    +0.000 C 
ATOM      4  O   UNL     1      -1.163  13.383  19.276  0.00  0.00    +0.000 OA
ATOM      5  H   UNL     1      -3.551  11.649  20.406  0.00  0.00    +0.000 HD
BRANCH   2   6
ATOM      6  C   UNL     1      -3.407  13.638  20.976  0.00  0.00    +0.000 C 
BRANCH   6   9
ATOM      7  C   UNL     1      -4.138  12.412  24.538  0.00  0.00    +0.000 C 
ATOM      8  N   UNL     1      -3.985  12.479  23.105  0.00  0.00    +0.000 N 
ATOM      9  C   UNL     1      -3.418  13.597  22.522  0.00  0.00    +0.000 C 
ATOM     10  O   UNL     1      -2.999  14.538  23.195  0.00  0.00    +0.000 OA
ATOM     11  H   UNL     1      -4.012  11.617  22.562  0.00  0.00    +0.000 HD
ENDBRANCH   6   9
BRANCH   6  12
ATOM     12  C   UNL     1      -4.814  13.990  20.444  0.00  0.00    +0.000 C 
BRANCH  12  13
ATOM     13  C   UNL     1      -5.563  12.851  19.762  0.00  0.00    +0.000 A 
ATOM     14  C   UNL     1      -5.610  12.726  18.368  0.00  0.00    +0.000 A 
ATOM     15  C   UNL     1      -6.337  11.697  17.763  0.00  0.00    +0.000 A 
ATOM     16  C   UNL     1      -6.998  10.755  18.546  0.00  0.00    +0.000 A 
ATOM     17  C   UNL     1      -6.915  10.835  19.930  0.00  0.00    +0.000 A 
ATOM     18  C   UNL     1      -6.207  11.881  20.537  0.00  0.00    +0.000 A 
ENDBRANCH  12  13
ENDBRANCH   6  12
ENDBRANCH   2   6
ENDBRANCH   1   3
BRANCH   1  19
ATOM     19  C   UNL     1      -1.393  10.841  17.623  0.00  0.00    +0.000 C 
BRANCH  19  20
ATOM     20  C   UNL     1      -2.813  10.663  17.042  0.00  0.00    +0.000 C 
ATOM     21  C   UNL     1      -2.833  10.387  15.536  0.00  0.00    +0.000 C 
ATOM     22  C   UNL     1      -3.492   9.487  17.758  0.00  0.00    +0.000 C 
ENDBRANCH  19  20
ENDBRANCH   1  19
BRANCH   1  23
ATOM     23  C   UNL     1       0.168  10.605  19.750  0.00  0.00    +0.000 C 
BRANCH  23  24
ATOM     24  C   UNL     1       0.296  10.969  21.236  0.00  0.00    +0.000 C 
ATOM     25  O   UNL     1       1.006  11.885  21.656  0.00  0.00    +0.000 OA
ATOM     26  N   UNL     1      -0.458  10.248  22.123  0.00  0.00    +0.000 N 
ATOM     27  H   UNL     1      -0.823   9.316  21.963  0.00  0.00    +0.000 HD
BRANCH  26  28
ATOM     28  O   UNL     1      -0.327  10.636  23.478  0.00  0.00    +0.000 OA
ATOM     29  H   UNL     1      -0.638   9.839  23.964  0.00  0.00    +0.000 HD
ENDBRANCH  26  28
ENDBRANCH  23  24
BRANCH  23  30
ATOM     30  C   UNL     1       0.527   9.120  19.500  0.00  0.00    +0.000 C 
BRANCH  30  31
ATOM     31  S   UNL     1       1.929   8.801  18.370  0.00  0.00    +0.000 S 
BRANCH  31  32
ATOM     32  C   UNL     1       2.494   7.198  19.017  0.00  0.00    +0.000 C 
BRANCH  32  33
ATOM     33  C   UNL     1       3.362   6.464  18.033  0.00  0.00    +0.000 A 
ATOM     34  C   UNL     1       4.272   7.162  17.228  0.00  0.00    +0.000 A 
ATOM     35  C   UNL     1       5.099   6.479  16.336  0.00  0.00    +0.000 A 
ATOM     36  C   UNL     1       5.012   5.093  16.233  0.00  0.00    +0.000 A 
ATOM     37  C   UNL     1       4.095   4.391  17.013  0.00  0.00    +0.000 A 
ATOM     38  C   UNL     1       3.272   5.071  17.910  0.00  0.00    +0.000 A 
ENDBRANCH  32  33
ENDBRANCH  31  32
ENDBRANCH  30  31
ENDBRANCH  23  30
ENDBRANCH   1  23
TORSDOF 14
ENDMDL
MODEL 7
REMARK VINA RESULT:      -7.1      1.496      1.912
REMARK  Name = 
REMARK  17 active torsions:
REMARK  status: ('A' for Active; 'I' for Inactive)
REMARK    1  A    between atoms: C_1  and  N_2
REMARK    2  A    between atoms: C_3  and  C_5
REMARK    3  A    between atoms: C_5  and  C_6
REMARK    4  A    between atoms: C_5  and  N_13
REMARK    5  A    between atoms: C_6  and  C_7
REMARK    6  A    between atoms: C_14  and  C_16
REMARK    7  A    between atoms: C_16  and  C_17
REMARK    8  A    between atoms: C_16  and  C_21
REMARK    9  A    between atoms: C_17  and  C_18
REMARK   10  A    between atoms: C_18  and  C_19
REMARK   11  A    between atoms: C_18  and  C_20
REMARK   12  A    between atoms: C_21  and  C_22
REMARK   13  A    between atoms: C_21  and  C_31
REMARK   14  A    between atoms: C_22  and  S_23
REMARK   15  A    between atoms: S_23  and  C_24
REMARK   16  A    between atoms: C_24  and  C_25
REMARK   17  A    between atoms: N_33  and  O_34
REMARK                            x       y       z     vdW  Elec       q    Type
REMARK                         _______ _______ _______ _____ _____    ______ ____
ROOT
ATOM      1  C   UNL     1       6.194   5.783  17.077  0.00  0.00    +0.000 C 
ENDROOT
BRANCH   1   3
ATOM      2  N   UNL     1       3.785   5.718  17.779  0.00  0.00    +0.000 N 
ATOM      3  C   UNL     1       4.716   6.212  16.900  0.00  0.00    +0.000 C 
ATOM      4  O   UNL     1       4.415   7.067  16.067  0.00  0.00    +0.000 OA
ATOM      5  H   UNL     1       3.931   4.849  18.266  0.00  0.00    +0.000 HD
BRANCH   2   6
ATOM      6  C   UNL     1       2.394   6.172  17.828  0.00  0.00    +0.000 C 
BRANCH   6   9
ATOM      7  C   UNL     1       1.766   8.060  21.109  0.00  0.00    +0.000 C 
ATOM      8  N   UNL     1       2.076   7.032  20.145  0.00  0.00    +0.000 N 
ATOM      9  C   UNL     1       2.183   7.352  18.805  0.00  0.00    +0.000 C 
ATOM     10  O   UNL     1       2.057   8.509  18.402  0.00  0.00    +0.000 OA
ATOM     11  H   UNL     1       2.499   6.163  20.465  0.00  0.00    +0.000 HD
ENDBRANCH   6   9
BRANCH   6  12
ATOM     12  C   UNL     1       1.423   5.021  18.170  0.00  0.00    +0.000 C 
BRANCH  12  13
ATOM     13  C   UNL     1       1.860   4.106  19.307  0.00  0.00    +0.000 A 
ATOM     14  C   UNL     1       1.034   3.847  20.408  0.00  0.00    +0.000 A 
ATOM     15  C   UNL     1       1.472   3.038  21.461  0.00  0.00    +0.000 A 
ATOM     16  C   UNL     1       2.730   2.444  21.409  0.00  0.00    +0.000 A 
ATOM     17  C   UNL     1       3.538   2.647  20.297  0.00  0.00    +0.000 A 
ATOM     18  C   UNL     1       3.110   3.480  19.255  0.00  0.00    +0.000 A 
ENDBRANCH  12  13
ENDBRANCH   6  12
ENDBRANCH   2   6
ENDBRANCH   1   3
BRANCH   1  19
ATOM     19  C   UNL     1       6.852   5.780  15.674  0.00  0.00    +0.000 C 
BRANCH  19  20
ATOM     20  C   UNL     1       6.943   4.446  14.902  0.00  0.00    +0.000 C 
ATOM     21  C   UNL     1       5.818   3.462  15.236  0.00  0.00    +0.000 C 
ATOM     22  C   UNL     1       6.893   4.744  13.398  0.00  0.00    +0.000 C 
ENDBRANCH  19  20
ENDBRANCH   1  19
BRANCH   1  23
ATOM     23  C   UNL     1       6.971   6.516  18.217  0.00  0.00    +0.000 C 
BRANCH  23  24
ATOM     24  C   UNL     1       7.811   5.558  19.071  0.00  0.00    +0.000 C 
ATOM     25  O   UNL     1       8.441   4.604  18.610  0.00  0.00    +0.000 OA
ATOM     26  N   UNL     1       7.884   5.818  20.414  0.00  0.00    +0.000 N 
ATOM     27  H   UNL     1       7.204   6.349  20.947  0.00  0.00    +0.000 HD
BRANCH  26  28
ATOM     28  O   UNL     1       8.690   4.923  21.158  0.00  0.00    +0.000 OA
ATOM     29  H   UNL     1       8.510   5.190  22.088  0.00  0.00    +0.000 HD
ENDBRANCH  26  28
ENDBRANCH  23  24
BRANCH  23  30
ATOM     30  C   UNL     1       7.827   7.684  17.669  0.00  0.00    +0.000 C 
BRANCH  30  31
ATOM     31  S   UNL     1       8.684   8.716  18.912  0.00  0.00    +0.000 S 
BRANCH  31  32
ATOM     32  C   UNL     1       8.822  10.274  17.983  0.00  0.00    +0.000 C 
BRANCH  32  33
ATOM     33  C   UNL     1       9.930  11.147  18.501  0.00  0.00    +0.000 A 
ATOM     34  C   UNL     1      10.776  11.825  17.612  0.00  0.00    +0.000 A 
ATOM     35  C   UNL     1      11.786  12.659  18.091  0.00  0.00    +0.000 A 
ATOM     36  C   UNL     1      11.968  12.810  19.465  0.00  0.00    +0.000 A 
ATOM     37  C   UNL     1      11.147  12.123  20.357  0.00  0.00    +0.000 A 
ATOM     38  C   UNL     1      10.132  11.294  19.880  0.00  0.00    +0.000 A 
ENDBRANCH  32  33
ENDBRANCH  31  32
ENDBRANCH  30  31
ENDBRANCH  23  30
ENDBRANCH   1  23
TORSDOF 14
ENDMDL
MODEL 8
REMARK VINA RESULT:      -7.1      3.817      7.162
REMARK  Name = 
REMARK  17 active torsions:
REMARK  status: ('A' for Active; 'I' for Inactive)
REMARK    1  A    between atoms: C_1  and  N_2
REMARK    2  A    between atoms: C_3  and  C_5
REMARK    3  A    between atoms: C_5  and  C_6
REMARK    4  A    between atoms: C_5  and  N_13
REMARK    5  A    between atoms: C_6  and  C_7
REMARK    6  A    between atoms: C_14  and  C_16
REMARK    7  A    between atoms: C_16  and  C_17
REMARK    8  A    between atoms: C_16  and  C_21
REMARK    9  A    between atoms: C_17  and  C_18
REMARK   10  A    between atoms: C_18  and  C_19
REMARK   11  A    between atoms: C_18  and  C_20
REMARK   12  A    between atoms: C_21  and  C_22
REMARK   13  A    between atoms: C_21  and  C_31
REMARK   14  A    between atoms: C_22  and  S_23
REMARK   15  A    between atoms: S_23  and  C_24
REMARK   16  A    between atoms: C_24  and  C_25
REMARK   17  A    between atoms: N_33  and  O_34
REMARK                            x       y       z     vdW  Elec       q    Type
REMARK                         _______ _______ _______ _____ _____    ______ ____
ROOT
ATOM      1  C   UNL     1       3.339   5.730  18.477  0.00  0.00    +0.000 C 
ENDROOT
BRANCH   1   3
ATOM      2  N   UNL     1       1.906   7.468  19.582  0.00  0.00    +0.000 N 
ATOM      3  C   UNL     1       2.779   7.172  18.565  0.00  0.00    +0.000 C 
ATOM      4  O   UNL     1       3.204   8.049  17.813  0.00  0.00    +0.000 OA
ATOM      5  H   UNL     1       1.346   6.756  20.019  0.00  0.00    +0.000 HD
BRANCH   2   6
ATOM      6  C   UNL     1       1.438   8.824  19.879  0.00  0.00    +0.000 C 
BRANCH   6   9
ATOM      7  C   UNL     1       0.210   9.585  23.434  0.00  0.00    +0.000 C 
ATOM      8  N   UNL     1       0.969   9.580  22.207  0.00  0.00    +0.000 N 
ATOM      9  C   UNL     1       0.504   8.879  21.110  0.00  0.00    +0.000 C 
ATOM     10  O   UNL     1      -0.571   8.279  21.132  0.00  0.00    +0.000 OA
ATOM     11  H   UNL     1       1.666  10.307  22.050  0.00  0.00    +0.000 HD
ENDBRANCH   6   9
BRANCH   6  12
ATOM     12  C   UNL     1       0.749   9.476  18.660  0.00  0.00    +0.000 C 
BRANCH  12  13
ATOM     13  C   UNL     1       0.492  10.974  18.773  0.00  0.00    +0.000 A 
ATOM     14  C   UNL     1      -0.805  11.504  18.774  0.00  0.00    +0.000 A 
ATOM     15  C   UNL     1      -1.016  12.884  18.837  0.00  0.00    +0.000 A 
ATOM     16  C   UNL     1       0.067  13.753  18.939  0.00  0.00    +0.000 A 
ATOM     17  C   UNL     1       1.356  13.237  18.996  0.00  0.00    +0.000 A 
ATOM     18  C   UNL     1       1.569  11.856  18.905  0.00  0.00    +0.000 A 
ENDBRANCH  12  13
ENDBRANCH   6  12
ENDBRANCH   2   6
ENDBRANCH   1   3
BRANCH   1  19
ATOM     19  C   UNL     1       2.264   4.852  17.788  0.00  0.00    +0.000 C 
BRANCH  19  20
ATOM     20  C   UNL     1       1.761   3.588  18.520  0.00  0.00    +0.000 C 
ATOM     21  C   UNL     1       2.687   2.378  18.367  0.00  0.00    +0.000 C 
ATOM     22  C   UNL     1       1.628   3.907  20.015  0.00  0.00    +0.000 C 
ENDBRANCH  19  20
ENDBRANCH   1  19
BRANCH   1  23
ATOM     23  C   UNL     1       4.798   5.613  17.930  0.00  0.00    +0.000 C 
BRANCH  23  24
ATOM     24  C   UNL     1       5.776   5.052  18.971  0.00  0.00    +0.000 C 
ATOM     25  O   UNL     1       5.648   3.948  19.504  0.00  0.00    +0.000 OA
ATOM     26  N   UNL     1       6.866   5.820  19.282  0.00  0.00    +0.000 N 
ATOM     27  H   UNL     1       6.929   6.825  19.165  0.00  0.00    +0.000 HD
BRANCH  26  28
ATOM     28  O   UNL     1       7.754   5.251  20.227  0.00  0.00    +0.000 OA
ATOM     29  H   UNL     1       8.164   4.513  19.723  0.00  0.00    +0.000 HD
ENDBRANCH  26  28
ENDBRANCH  23  24
BRANCH  23  30
ATOM     30  C   UNL     1       4.854   4.806  16.610  0.00  0.00    +0.000 C 
BRANCH  30  31
ATOM     31  S   UNL     1       6.497   4.176  16.111  0.00  0.00    +0.000 S 
BRANCH  31  32
ATOM     32  C   UNL     1       6.671   5.000  14.499  0.00  0.00    +0.000 C 
BRANCH  32  33
ATOM     33  C   UNL     1       6.285   4.101  13.358  0.00  0.00    +0.000 A 
ATOM     34  C   UNL     1       4.936   3.839  13.083  0.00  0.00    +0.000 A 
ATOM     35  C   UNL     1       4.576   3.029  12.007  0.00  0.00    +0.000 A 
ATOM     36  C   UNL     1       5.564   2.462  11.204  0.00  0.00    +0.000 A 
ATOM     37  C   UNL     1       6.909   2.698  11.481  0.00  0.00    +0.000 A 
ATOM     38  C   UNL     1       7.270   3.513  12.553  0.00  0.00    +0.000 A 
ENDBRANCH  32  33
ENDBRANCH  31  32
ENDBRANCH  30  31
ENDBRANCH  23  30
ENDBRANCH   1  23
TORSDOF 14
ENDMDL
MODEL 9
REMARK VINA RESULT:      -7.0      4.098      7.065
REMARK  Name = 
REMARK  17 active torsions:
REMARK  status: ('A' for Active; 'I' for Inactive)
REMARK    1  A    between atoms: C_1  and  N_2
REMARK    2  A    between atoms: C_3  and  C_5
REMARK    3  A    between atoms: C_5  and  C_6
REMARK    4  A    between atoms: C_5  and  N_13
REMARK    5  A    between atoms: C_6  and  C_7
REMARK    6  A    between atoms: C_14  and  C_16
REMARK    7  A    between atoms: C_16  and  C_17
REMARK    8  A    between atoms: C_16  and  C_21
REMARK    9  A    between atoms: C_17  and  C_18
REMARK   10  A    between atoms: C_18  and  C_19
REMARK   11  A    between atoms: C_18  and  C_20
REMARK   12  A    between atoms: C_21  and  C_22
REMARK   13  A    between atoms: C_21  and  C_31
REMARK   14  A    between atoms: C_22  and  S_23
REMARK   15  A    between atoms: S_23  and  C_24
REMARK   16  A    between atoms: C_24  and  C_25
REMARK   17  A    between atoms: N_33  and  O_34
REMARK                            x       y       z     vdW  Elec       q    Type
REMARK                         _______ _______ _______ _____ _____    ______ ____
ROOT
ATOM      1  C   UNL     1       2.963   5.124  19.671  0.00  0.00    +0.000 C 
ENDROOT
BRANCH   1   3
ATOM      2  N   UNL     1       1.882   7.252  20.446  0.00  0.00    +0.000 N 
ATOM      3  C   UNL     1       2.669   6.636  19.506  0.00  0.00    +0.000 C 
ATOM      4  O   UNL     1       3.228   7.283  18.619  0.00  0.00    +0.000 OA
ATOM      5  H   UNL     1       1.213   6.735  20.992  0.00  0.00    +0.000 HD
BRANCH   2   6
ATOM      6  C   UNL     1       1.667   8.699  20.502  0.00  0.00    +0.000 C 
BRANCH   6   9
ATOM      7  C   UNL     1      -0.749   9.857  23.250  0.00  0.00    +0.000 C 
ATOM      8  N   UNL     1      -0.204   9.309  22.031  0.00  0.00    +0.000 N 
ATOM      9  C   UNL     1       1.164   9.178  21.884  0.00  0.00    +0.000 C 
ATOM     10  O   UNL     1       1.946   9.483  22.785  0.00  0.00    +0.000 OA
ATOM     11  H   UNL     1      -0.806   8.758  21.422  0.00  0.00    +0.000 HD
ENDBRANCH   6   9
BRANCH   6  12
ATOM     12  C   UNL     1       0.708   9.183  19.392  0.00  0.00    +0.000 C 
BRANCH  12  13
ATOM     13  C   UNL     1       0.802  10.663  19.040  0.00  0.00    +0.000 A 
ATOM     14  C   UNL     1      -0.296  11.524  19.159  0.00  0.00    +0.000 A 
ATOM     15  C   UNL     1      -0.199  12.868  18.791  0.00  0.00    +0.000 A 
ATOM     16  C   UNL     1       1.012  13.382  18.335  0.00  0.00    +0.000 A 
ATOM     17  C   UNL     1       2.125  12.552  18.264  0.00  0.00    +0.000 A 
ATOM     18  C   UNL     1       2.020  11.198  18.608  0.00  0.00    +0.000 A 
ENDBRANCH  12  13
ENDBRANCH   6  12
ENDBRANCH   2   6
ENDBRANCH   1   3
BRANCH   1  19
ATOM     19  C   UNL     1       1.642   4.359  19.404  0.00  0.00    +0.000 C 
BRANCH  19  20
ATOM     20  C   UNL     1       1.514   2.905  19.910  0.00  0.00    +0.000 C 
ATOM     21  C   UNL     1       1.154   2.798  21.394  0.00  0.00    +0.000 C 
ATOM     22  C   UNL     1       0.424   2.196  19.096  0.00  0.00    +0.000 C 
ENDBRANCH  19  20
ENDBRANCH   1  19
BRANCH   1  23
ATOM     23  C   UNL     1       4.237   4.607  18.930  0.00  0.00    +0.000 C 
BRANCH  23  24
ATOM     24  C   UNL     1       4.497   3.114  19.173  0.00  0.00    +0.000 C 
ATOM     25  O   UNL     1       4.999   2.667  20.206  0.00  0.00    +0.000 OA
ATOM     26  N   UNL     1       4.107   2.243  18.190  0.00  0.00    +0.000 N 
ATOM     27  H   UNL     1       3.978   2.480  17.213  0.00  0.00    +0.000 HD
BRANCH  26  28
ATOM     28  O   UNL     1       4.343   0.875  18.469  0.00  0.00    +0.000 OA
ATOM     29  H   UNL     1       4.090   0.435  17.627  0.00  0.00    +0.000 HD
ENDBRANCH  26  28
ENDBRANCH  23  24
BRANCH  23  30
ATOM     30  C   UNL     1       4.196   4.933  17.417  0.00  0.00    +0.000 C 
BRANCH  30  31
ATOM     31  S   UNL     1       5.808   5.211  16.600  0.00  0.00    +0.000 S 
BRANCH  31  32
ATOM     32  C   UNL     1       5.873   3.744  15.528  0.00  0.00    +0.000 C 
BRANCH  32  33
ATOM     33  C   UNL     1       6.444   4.057  14.173  0.00  0.00    +0.000 A 
ATOM     34  C   UNL     1       6.078   3.296  13.054  0.00  0.00    +0.000 A 
ATOM     35  C   UNL     1       6.585   3.604  11.792  0.00  0.00    +0.000 A 
ATOM     36  C   UNL     1       7.474   4.665  11.641  0.00  0.00    +0.000 A 
ATOM     37  C   UNL     1       7.862   5.414  12.750  0.00  0.00    +0.000 A 
ATOM     38  C   UNL     1       7.351   5.113  14.012  0.00  0.00    +0.000 A 
ENDBRANCH  32  33
ENDBRANCH  31  32
ENDBRANCH  30  31
ENDBRANCH  23  30
ENDBRANCH   1  23
TORSDOF 14
ENDMDL
