MODEL 1
REMARK VINA RESULT:      -8.6      0.000      0.000
REMARK  Name = 
REMARK  9 active torsions:
REMARK  status: ('A' for Active; 'I' for Inactive)
REMARK    1  A    between atoms: C_1  and  O_2
REMARK    2  A    between atoms: O_2  and  N_3
REMARK    3  A    between atoms: C_4  and  C_6
REMARK    4  A    between atoms: C_11  and  N_12
REMARK    5  A    between atoms: N_12  and  C_13
REMARK    6  A    between atoms: C_15  and  N_16
REMARK    7  A    between atoms: N_16  and  C_17
REMARK    8  A    between atoms: C_23  and  C_24
REMARK    9  A    between atoms: C_23  and  C_25
REMARK                            x       y       z     vdW  Elec       q    Type
REMARK                         _______ _______ _______ _____ _____    ______ ____
ROOT
ATOM      1  C   UNL     1       4.385   4.174  19.171  0.00  0.00    +0.000 A 
ATOM      2  C   UNL     1       4.076   5.470  19.610  0.00  0.00    +0.000 A 
ATOM      3  C   UNL     1       2.765   5.834  19.852  0.00  0.00    +0.000 A 
ATOM      4  N   UNL     1       1.773   4.925  19.827  0.00  0.00    +0.000 NA
ATOM      5  C   UNL     1       2.102   3.635  19.552  0.00  0.00    +0.000 A 
ATOM      6  C   UNL     1       3.380   3.212  19.218  0.00  0.00    +0.000 A 
ATOM      7 CL   UNL     1       3.642   1.569  18.780  0.00  0.00    +0.000 Cl
ENDROOT
BRANCH   1   8
ATOM      8  N   UNL     1       5.679   3.920  18.622  0.00  0.00    +0.000 N 
ATOM      9  H   UNL     1       6.430   4.132  19.293  0.00  0.00    +0.000 HD
BRANCH   8  15
ATOM     10  C   UNL     1       6.873   5.377  16.970  0.00  0.00    +0.000 A 
ATOM     11  C   UNL     1       6.999   5.782  15.622  0.00  0.00    +0.000 A 
ATOM     12  C   UNL     1       6.337   5.104  14.599  0.00  0.00    +0.000 A 
ATOM     13  C   UNL     1       5.575   3.987  14.894  0.00  0.00    +0.000 A 
ATOM     14  C   UNL     1       5.453   3.574  16.218  0.00  0.00    +0.000 A 
ATOM     15  C   UNL     1       6.023   4.301  17.289  0.00  0.00    +0.000 A 
BRANCH  10  17
ATOM     16  N   UNL     1       7.821   7.491  17.680  0.00  0.00    +0.000 N 
ATOM     17  C   UNL     1       7.560   6.177  18.026  0.00  0.00    +0.000 C 
ATOM     18  O   UNL     1       7.822   5.666  19.110  0.00  0.00    +0.000 OA
ATOM     19  H   UNL     1       8.059   7.713  16.717  0.00  0.00    +0.000 HD
BRANCH  16  21
ATOM     20  C   UNL     1       8.507   9.613  18.226  0.00  0.00    +0.000 C 
ATOM     21  O   UNL     1       8.511   8.249  18.650  0.00  0.00    +0.000 OA
ENDBRANCH  16  21
ENDBRANCH  10  17
ENDBRANCH   8  15
ENDBRANCH   1   8
BRANCH   3  22
ATOM     22  N   UNL     1       2.358   7.154  20.023  0.00  0.00    +0.000 N 
ATOM     23  H   UNL     1       2.405   7.340  21.018  0.00  0.00    +0.000 HD
BRANCH  22  24
ATOM     24  C   UNL     1       1.961   8.139  19.192  0.00  0.00    +0.000 A 
ATOM     25  C   UNL     1       2.389   8.548  17.907  0.00  0.00    +0.000 A 
ATOM     26  N   UNL     1       1.787   9.673  17.497  0.00  0.00    +0.000 NA
ATOM     27  N   UNL     1       0.988   9.990  18.528  0.00  0.00    +0.000 N 
ATOM     28  C   UNL     1       1.001   9.061  19.538  0.00  0.00    +0.000 A 
ATOM     29  C   UNL     1       0.144   9.219  20.737  0.00  0.00    +0.000 C 
ATOM     30  C   UNL     1      -0.026  10.708  21.102  0.00  0.00    +0.000 C 
ATOM     31  C   UNL     1       1.309  11.289  21.613  0.00  0.00    +0.000 C 
ATOM     32  C   UNL     1      -1.064  10.815  22.230  0.00  0.00    +0.000 C 
ATOM     33  C   UNL     1      -0.528  11.461  19.841  0.00  0.00    +0.000 C 
ATOM     34  C   UNL     1       0.412  11.317  18.637  0.00  0.00    +0.000 C 
ENDBRANCH  22  24
ENDBRANCH   3  22
TORSDOF 6
ENDMDL
MODEL 2
REMARK VINA RESULT:      -8.3      2.358      4.747
REMARK  Name = 
REMARK  9 active torsions:
REMARK  status: ('A' for Active; 'I' for Inactive)
REMARK    1  A    between atoms: C_1  and  O_2
REMARK    2  A    between atoms: O_2  and  N_3
REMARK    3  A    between atoms: C_4  and  C_6
REMARK    4  A    between atoms: C_11  and  N_12
REMARK    5  A    between atoms: N_12  and  C_13
REMARK    6  A    between atoms: C_15  and  N_16
REMARK    7  A    between atoms: N_16  and  C_17
REMARK    8  A    between atoms: C_23  and  C_24
REMARK    9  A    between atoms: C_23  and  C_25
REMARK                            x       y       z     vdW  Elec       q    Type
REMARK                         _______ _______ _______ _____ _____    ______ ____
ROOT
ATOM      1  C   UNL     1       2.353   7.350  19.582  0.00  0.00    +0.000 A 
ATOM      2  C   UNL     1       1.433   8.113  20.315  0.00  0.00    +0.000 A 
ATOM      3  C   UNL     1       0.990   9.330  19.833  0.00  0.00    +0.000 A 
ATOM      4  N   UNL     1       1.299   9.742  18.589  0.00  0.00    +0.000 NA
ATOM      5  C   UNL     1       2.067   8.922  17.823  0.00  0.00    +0.000 A 
ATOM      6  C   UNL     1       2.615   7.729  18.268  0.00  0.00    +0.000 A 
ATOM      7 CL   UNL     1       3.665   6.840  17.234  0.00  0.00    +0.000 Cl
ENDROOT
BRANCH   1   8
ATOM      8  N   UNL     1       3.036   6.277  20.232  0.00  0.00    +0.000 N 
ATOM      9  H   UNL     1       4.047   6.454  20.307  0.00  0.00    +0.000 HD
BRANCH   8  15
ATOM     10  C   UNL     1       3.659   4.024  19.330  0.00  0.00    +0.000 A 
ATOM     11  C   UNL     1       3.211   2.749  18.916  0.00  0.00    +0.000 A 
ATOM     12  C   UNL     1       1.899   2.334  19.144  0.00  0.00    +0.000 A 
ATOM     13  C   UNL     1       1.024   3.162  19.825  0.00  0.00    +0.000 A 
ATOM     14  C   UNL     1       1.459   4.416  20.246  0.00  0.00    +0.000 A 
ATOM     15  C   UNL     1       2.748   4.909  19.938  0.00  0.00    +0.000 A 
BRANCH  10  17
ATOM     16  N   UNL     1       5.574   3.870  17.852  0.00  0.00    +0.000 N 
ATOM     17  C   UNL     1       5.057   4.433  19.005  0.00  0.00    +0.000 C 
ATOM     18  O   UNL     1       5.645   5.233  19.727  0.00  0.00    +0.000 OA
ATOM     19  H   UNL     1       5.309   2.921  17.602  0.00  0.00    +0.000 HD
BRANCH  16  21
ATOM     20  C   UNL     1       6.967   4.620  16.189  0.00  0.00    +0.000 C 
ATOM     21  O   UNL     1       6.910   4.210  17.556  0.00  0.00    +0.000 OA
ENDBRANCH  16  21
ENDBRANCH  10  17
ENDBRANCH   8  15
ENDBRANCH   1   8
BRANCH   3  22
ATOM     22  N   UNL     1       0.301  10.256  20.612  0.00  0.00    +0.000 N 
ATOM     23  H   UNL     1       0.312   9.895  21.559  0.00  0.00    +0.000 HD
BRANCH  22  24
ATOM     24  C   UNL     1      -0.309  11.433  20.368  0.00  0.00    +0.000 A 
ATOM     25  C   UNL     1      -1.643  11.780  20.050  0.00  0.00    +0.000 A 
ATOM     26  N   UNL     1      -1.783  13.082  19.764  0.00  0.00    +0.000 NA
ATOM     27  N   UNL     1      -0.535  13.561  19.882  0.00  0.00    +0.000 N 
ATOM     28  C   UNL     1       0.372  12.627  20.315  0.00  0.00    +0.000 A 
ATOM     29  C   UNL     1       1.792  12.986  20.549  0.00  0.00    +0.000 C 
ATOM     30  C   UNL     1       2.259  14.068  19.555  0.00  0.00    +0.000 C 
ATOM     31  C   UNL     1       2.332  13.485  18.128  0.00  0.00    +0.000 C 
ATOM     32  C   UNL     1       3.667  14.527  19.963  0.00  0.00    +0.000 C 
ATOM     33  C   UNL     1       1.266  15.258  19.632  0.00  0.00    +0.000 C 
ATOM     34  C   UNL     1      -0.184  14.856  19.332  0.00  0.00    +0.000 C 
ENDBRANCH  22  24
ENDBRANCH   3  22
TORSDOF 6
ENDMDL
MODEL 3
REMARK VINA RESULT:      -8.2      4.695      9.359
REMARK  Name = 
REMARK  9 active torsions:
REMARK  status: ('A' for Active; 'I' for Inactive)
REMARK    1  A    between atoms: C_1  and  O_2
REMARK    2  A    between atoms: O_2  and  N_3
REMARK    3  A    between atoms: C_4  and  C_6
REMARK    4  A    between atoms: C_11  and  N_12
REMARK    5  A    between atoms: N_12  and  C_13
REMARK    6  A    between atoms: C_15  and  N_16
REMARK    7  A    between atoms: N_16  and  C_17
REMARK    8  A    between atoms: C_23  and  C_24
REMARK    9  A    between atoms: C_23  and  C_25
REMARK                            x       y       z     vdW  Elec       q    Type
REMARK                         _______ _______ _______ _____ _____    ______ ____
ROOT
ATOM      1  C   UNL     1      -0.156  10.379  20.593  0.00  0.00    +0.000 A 
ATOM      2  C   UNL     1       0.566   9.327  20.013  0.00  0.00    +0.000 A 
ATOM      3  C   UNL     1       1.297   8.459  20.803  0.00  0.00    +0.000 A 
ATOM      4  N   UNL     1       1.211   8.498  22.146  0.00  0.00    +0.000 NA
ATOM      5  C   UNL     1       0.385   9.424  22.701  0.00  0.00    +0.000 A 
ATOM      6  C   UNL     1      -0.313  10.380  21.976  0.00  0.00    +0.000 A 
ATOM      7 CL   UNL     1      -1.236  11.568  22.810  0.00  0.00    +0.000 Cl
ENDROOT
BRANCH   1   8
ATOM      8  N   UNL     1      -0.626  11.439  19.758  0.00  0.00    +0.000 N 
ATOM      9  H   UNL     1      -0.639  12.342  20.253  0.00  0.00    +0.000 HD
BRANCH   8  15
ATOM     10  C   UNL     1      -2.995  11.917  19.095  0.00  0.00    +0.000 A 
ATOM     11  C   UNL     1      -4.098  11.547  18.294  0.00  0.00    +0.000 A 
ATOM     12  C   UNL     1      -3.968  10.599  17.279  0.00  0.00    +0.000 A 
ATOM     13  C   UNL     1      -2.731  10.037  17.017  0.00  0.00    +0.000 A 
ATOM     14  C   UNL     1      -1.636  10.403  17.795  0.00  0.00    +0.000 A 
ATOM     15  C   UNL     1      -1.755  11.280  18.898  0.00  0.00    +0.000 A 
BRANCH  10  17
ATOM     16  N   UNL     1      -4.374  12.705  20.926  0.00  0.00    +0.000 N 
ATOM     17  C   UNL     1      -3.209  12.894  20.203  0.00  0.00    +0.000 C 
ATOM     18  O   UNL     1      -2.370  13.761  20.428  0.00  0.00    +0.000 OA
ATOM     19  H   UNL     1      -5.206  12.372  20.448  0.00  0.00    +0.000 HD
BRANCH  16  21
ATOM     20  C   UNL     1      -4.586  12.958  23.198  0.00  0.00    +0.000 C 
ATOM     21  O   UNL     1      -4.615  13.648  21.948  0.00  0.00    +0.000 OA
ENDBRANCH  16  21
ENDBRANCH  10  17
ENDBRANCH   8  15
ENDBRANCH   1   8
BRANCH   3  22
ATOM     22  N   UNL     1       2.241   7.574  20.293  0.00  0.00    +0.000 N 
ATOM     23  H   UNL     1       3.090   8.110  20.155  0.00  0.00    +0.000 HD
BRANCH  22  24
ATOM     24  C   UNL     1       2.242   6.261  19.988  0.00  0.00    +0.000 A 
ATOM     25  C   UNL     1       1.782   5.111  20.672  0.00  0.00    +0.000 A 
ATOM     26  N   UNL     1       2.102   3.973  20.041  0.00  0.00    +0.000 NA
ATOM     27  N   UNL     1       2.781   4.396  18.964  0.00  0.00    +0.000 N 
ATOM     28  C   UNL     1       2.828   5.762  18.848  0.00  0.00    +0.000 A 
ATOM     29  C   UNL     1       3.495   6.412  17.694  0.00  0.00    +0.000 C 
ATOM     30  C   UNL     1       4.708   5.585  17.219  0.00  0.00    +0.000 C 
ATOM     31  C   UNL     1       5.831   5.632  18.276  0.00  0.00    +0.000 C 
ATOM     32  C   UNL     1       5.239   6.207  15.919  0.00  0.00    +0.000 C 
ATOM     33  C   UNL     1       4.231   4.132  16.960  0.00  0.00    +0.000 C 
ATOM     34  C   UNL     1       3.595   3.475  18.193  0.00  0.00    +0.000 C 
ENDBRANCH  22  24
ENDBRANCH   3  22
TORSDOF 6
ENDMDL
MODEL 4
REMARK VINA RESULT:      -8.1      2.344      4.668
REMARK  Name = 
REMARK  9 active torsions:
REMARK  status: ('A' for Active; 'I' for Inactive)
REMARK    1  A    between atoms: C_1  and  O_2
REMARK    2  A    between atoms: O_2  and  N_3
REMARK    3  A    between atoms: C_4  and  C_6
REMARK    4  A    between atoms: C_11  and  N_12
REMARK    5  A    between atoms: N_12  and  C_13
REMARK    6  A    between atoms: C_15  and  N_16
REMARK    7  A    between atoms: N_16  and  C_17
REMARK    8  A    between atoms: C_23  and  C_24
REMARK    9  A    between atoms: C_23  and  C_25
REMARK                            x       y       z     vdW  Elec       q    Type
REMARK                         _______ _______ _______ _____ _____    ______ ____
ROOT
ATOM      1  C   UNL     1       2.419   7.332  19.501  0.00  0.00    +0.000 A 
ATOM      2  C   UNL     1       1.474   8.070  20.226  0.00  0.00    +0.000 A 
ATOM      3  C   UNL     1       1.013   9.282  19.748  0.00  0.00    +0.000 A 
ATOM      4  N   UNL     1       1.333   9.711  18.513  0.00  0.00    +0.000 NA
ATOM      5  C   UNL     1       2.128   8.914  17.752  0.00  0.00    +0.000 A 
ATOM      6  C   UNL     1       2.694   7.727  18.195  0.00  0.00    +0.000 A 
ATOM      7 CL   UNL     1       3.776   6.869  17.169  0.00  0.00    +0.000 Cl
ENDROOT
BRANCH   1   8
ATOM      8  N   UNL     1       3.114   6.267  20.152  0.00  0.00    +0.000 N 
ATOM      9  H   UNL     1       4.129   6.432  20.183  0.00  0.00    +0.000 HD
BRANCH   8  15
ATOM     10  C   UNL     1       3.692   3.970  19.334  0.00  0.00    +0.000 A 
ATOM     11  C   UNL     1       3.220   2.691  18.963  0.00  0.00    +0.000 A 
ATOM     12  C   UNL     1       1.898   2.313  19.197  0.00  0.00    +0.000 A 
ATOM     13  C   UNL     1       1.037   3.183  19.843  0.00  0.00    +0.000 A 
ATOM     14  C   UNL     1       1.497   4.442  20.222  0.00  0.00    +0.000 A 
ATOM     15  C   UNL     1       2.798   4.896  19.904  0.00  0.00    +0.000 A 
BRANCH  10  17
ATOM     16  N   UNL     1       5.517   3.967  17.739  0.00  0.00    +0.000 N 
ATOM     17  C   UNL     1       5.101   4.337  19.005  0.00  0.00    +0.000 C 
ATOM     18  O   UNL     1       5.784   4.946  19.823  0.00  0.00    +0.000 OA
ATOM     19  H   UNL     1       5.167   3.102  17.335  0.00  0.00    +0.000 HD
BRANCH  16  21
ATOM     20  C   UNL     1       6.942   4.513  16.024  0.00  0.00    +0.000 C 
ATOM     21  O   UNL     1       6.860   4.266  17.428  0.00  0.00    +0.000 OA
ENDBRANCH  16  21
ENDBRANCH  10  17
ENDBRANCH   8  15
ENDBRANCH   1   8
BRANCH   3  22
ATOM     22  N   UNL     1       0.295  10.187  20.524  0.00  0.00    +0.000 N 
ATOM     23  H   UNL     1      -0.459   9.661  20.951  0.00  0.00    +0.000 HD
BRANCH  22  24
ATOM     24  C   UNL     1       0.409  11.503  20.796  0.00  0.00    +0.000 A 
ATOM     25  C   UNL     1       1.519  12.341  21.054  0.00  0.00    +0.000 A 
ATOM     26  N   UNL     1       1.156  13.584  21.402  0.00  0.00    +0.000 NA
ATOM     27  N   UNL     1      -0.185  13.532  21.383  0.00  0.00    +0.000 N 
ATOM     28  C   UNL     1      -0.680  12.327  20.953  0.00  0.00    +0.000 A 
ATOM     29  C   UNL     1      -2.140  12.101  20.821  0.00  0.00    +0.000 C 
ATOM     30  C   UNL     1      -2.920  12.882  21.898  0.00  0.00    +0.000 C 
ATOM     31  C   UNL     1      -2.652  12.279  23.293  0.00  0.00    +0.000 C 
ATOM     32  C   UNL     1      -4.421  12.756  21.596  0.00  0.00    +0.000 C 
ATOM     33  C   UNL     1      -2.484  14.369  21.828  0.00  0.00    +0.000 C 
ATOM     34  C   UNL     1      -0.975  14.567  22.022  0.00  0.00    +0.000 C 
ENDBRANCH  22  24
ENDBRANCH   3  22
TORSDOF 6
ENDMDL
MODEL 5
REMARK VINA RESULT:      -8.0      2.334      4.814
REMARK  Name = 
REMARK  9 active torsions:
REMARK  status: ('A' for Active; 'I' for Inactive)
REMARK    1  A    between atoms: C_1  and  O_2
REMARK    2  A    between atoms: O_2  and  N_3
REMARK    3  A    between atoms: C_4  and  C_6
REMARK    4  A    between atoms: C_11  and  N_12
REMARK    5  A    between atoms: N_12  and  C_13
REMARK    6  A    between atoms: C_15  and  N_16
REMARK    7  A    between atoms: N_16  and  C_17
REMARK    8  A    between atoms: C_23  and  C_24
REMARK    9  A    between atoms: C_23  and  C_25
REMARK                            x       y       z     vdW  Elec       q    Type
REMARK                         _______ _______ _______ _____ _____    ______ ____
ROOT
ATOM      1  C   UNL     1       2.487   7.312  19.422  0.00  0.00    +0.000 A 
ATOM      2  C   UNL     1       1.598   8.180  20.070  0.00  0.00    +0.000 A 
ATOM      3  C   UNL     1       1.207   9.361  19.469  0.00  0.00    +0.000 A 
ATOM      4  N   UNL     1       1.537   9.636  18.192  0.00  0.00    +0.000 NA
ATOM      5  C   UNL     1       2.272   8.714  17.516  0.00  0.00    +0.000 A 
ATOM      6  C   UNL     1       2.769   7.548  18.079  0.00  0.00    +0.000 A 
ATOM      7 CL   UNL     1       3.783   6.520  17.144  0.00  0.00    +0.000 Cl
ENDROOT
BRANCH   1   8
ATOM      8  N   UNL     1       3.123   6.280  20.179  0.00  0.00    +0.000 N 
ATOM      9  H   UNL     1       4.139   6.430  20.256  0.00  0.00    +0.000 HD
BRANCH   8  15
ATOM     10  C   UNL     1       3.675   3.940  19.474  0.00  0.00    +0.000 A 
ATOM     11  C   UNL     1       3.188   2.648  19.172  0.00  0.00    +0.000 A 
ATOM     12  C   UNL     1       1.865   2.294  19.435  0.00  0.00    +0.000 A 
ATOM     13  C   UNL     1       1.017   3.204  20.042  0.00  0.00    +0.000 A 
ATOM     14  C   UNL     1       1.491   4.476  20.354  0.00  0.00    +0.000 A 
ATOM     15  C   UNL     1       2.794   4.901  20.003  0.00  0.00    +0.000 A 
BRANCH  10  17
ATOM     16  N   UNL     1       5.479   3.855  17.858  0.00  0.00    +0.000 N 
ATOM     17  C   UNL     1       5.084   4.277  19.115  0.00  0.00    +0.000 C 
ATOM     18  O   UNL     1       5.784   4.906  19.903  0.00  0.00    +0.000 OA
ATOM     19  H   UNL     1       5.115   2.981  17.490  0.00  0.00    +0.000 HD
BRANCH  16  21
ATOM     20  C   UNL     1       6.860   4.526  16.151  0.00  0.00    +0.000 C 
ATOM     21  O   UNL     1       6.822   4.126  17.521  0.00  0.00    +0.000 OA
ENDBRANCH  16  21
ENDBRANCH  10  17
ENDBRANCH   8  15
ENDBRANCH   1   8
BRANCH   3  22
ATOM     22  N   UNL     1       0.556  10.386  20.148  0.00  0.00    +0.000 N 
ATOM     23  H   UNL     1       0.592  11.199  19.542  0.00  0.00    +0.000 HD
BRANCH  22  24
ATOM     24  C   UNL     1      -0.062  10.490  21.341  0.00  0.00    +0.000 A 
ATOM     25  C   UNL     1      -0.275   9.575  22.400  0.00  0.00    +0.000 A 
ATOM     26  N   UNL     1      -1.060  10.075  23.363  0.00  0.00    +0.000 NA
ATOM     27  N   UNL     1      -1.363  11.302  22.911  0.00  0.00    +0.000 N 
ATOM     28  C   UNL     1      -0.728  11.626  21.739  0.00  0.00    +0.000 A 
ATOM     29  C   UNL     1      -0.903  12.959  21.113  0.00  0.00    +0.000 C 
ATOM     30  C   UNL     1      -2.325  13.502  21.361  0.00  0.00    +0.000 C 
ATOM     31  C   UNL     1      -3.360  12.668  20.577  0.00  0.00    +0.000 C 
ATOM     32  C   UNL     1      -2.386  14.951  20.854  0.00  0.00    +0.000 C 
ATOM     33  C   UNL     1      -2.600  13.459  22.888  0.00  0.00    +0.000 C 
ATOM     34  C   UNL     1      -2.461  12.054  23.488  0.00  0.00    +0.000 C 
ENDBRANCH  22  24
ENDBRANCH   3  22
TORSDOF 6
ENDMDL
MODEL 6
REMARK VINA RESULT:      -8.0      2.372      4.752
REMARK  Name = 
REMARK  9 active torsions:
REMARK  status: ('A' for Active; 'I' for Inactive)
REMARK    1  A    between atoms: C_1  and  O_2
REMARK    2  A    between atoms: O_2  and  N_3
REMARK    3  A    between atoms: C_4  and  C_6
REMARK    4  A    between atoms: C_11  and  N_12
REMARK    5  A    between atoms: N_12  and  C_13
REMARK    6  A    between atoms: C_15  and  N_16
REMARK    7  A    between atoms: N_16  and  C_17
REMARK    8  A    between atoms: C_23  and  C_24
REMARK    9  A    between atoms: C_23  and  C_25
REMARK                            x       y       z     vdW  Elec       q    Type
REMARK                         _______ _______ _______ _____ _____    ______ ____
ROOT
ATOM      1  C   UNL     1       2.334   7.501  19.466  0.00  0.00    +0.000 A 
ATOM      2  C   UNL     1       1.340   8.257  20.103  0.00  0.00    +0.000 A 
ATOM      3  C   UNL     1       0.900   9.444  19.550  0.00  0.00    +0.000 A 
ATOM      4  N   UNL     1       1.290   9.827  18.319  0.00  0.00    +0.000 NA
ATOM      5  C   UNL     1       2.137   9.009  17.640  0.00  0.00    +0.000 A 
ATOM      6  C   UNL     1       2.684   7.847  18.164  0.00  0.00    +0.000 A 
ATOM      7 CL   UNL     1       3.834   6.960  17.241  0.00  0.00    +0.000 Cl
ENDROOT
BRANCH   1   8
ATOM      8  N   UNL     1       2.997   6.469  20.200  0.00  0.00    +0.000 N 
ATOM      9  H   UNL     1       4.012   6.632  20.261  0.00  0.00    +0.000 HD
BRANCH   8  15
ATOM     10  C   UNL     1       3.566   4.145  19.460  0.00  0.00    +0.000 A 
ATOM     11  C   UNL     1       3.091   2.850  19.152  0.00  0.00    +0.000 A 
ATOM     12  C   UNL     1       1.778   2.476  19.435  0.00  0.00    +0.000 A 
ATOM     13  C   UNL     1       0.930   3.367  20.067  0.00  0.00    +0.000 A 
ATOM     14  C   UNL     1       1.392   4.642  20.384  0.00  0.00    +0.000 A 
ATOM     15  C   UNL     1       2.682   5.088  20.015  0.00  0.00    +0.000 A 
BRANCH  10  17
ATOM     16  N   UNL     1       5.420   3.910  17.916  0.00  0.00    +0.000 N 
ATOM     17  C   UNL     1       4.964   4.505  19.080  0.00  0.00    +0.000 C 
ATOM     18  O   UNL     1       5.603   5.294  19.768  0.00  0.00    +0.000 OA
ATOM     19  H   UNL     1       5.117   2.967  17.688  0.00  0.00    +0.000 HD
BRANCH  16  21
ATOM     20  C   UNL     1       6.789   4.504  16.172  0.00  0.00    +0.000 C 
ATOM     21  O   UNL     1       6.755   4.204  17.567  0.00  0.00    +0.000 OA
ENDBRANCH  16  21
ENDBRANCH  10  17
ENDBRANCH   8  15
ENDBRANCH   1   8
BRANCH   3  22
ATOM     22  N   UNL     1       0.128  10.371  20.244  0.00  0.00    +0.000 N 
ATOM     23  H   UNL     1       0.617  10.555  21.113  0.00  0.00    +0.000 HD
BRANCH  22  24
ATOM     24  C   UNL     1      -1.030  11.015  19.998  0.00  0.00    +0.000 A 
ATOM     25  C   UNL     1      -1.896  11.048  18.880  0.00  0.00    +0.000 A 
ATOM     26  N   UNL     1      -2.890  11.935  19.024  0.00  0.00    +0.000 NA
ATOM     27  N   UNL     1      -2.648  12.481  20.226  0.00  0.00    +0.000 N 
ATOM     28  C   UNL     1      -1.586  11.910  20.882  0.00  0.00    +0.000 A 
ATOM     29  C   UNL     1      -1.199  12.351  22.244  0.00  0.00    +0.000 C 
ATOM     30  C   UNL     1      -1.464  13.858  22.432  0.00  0.00    +0.000 C 
ATOM     31  C   UNL     1      -0.490  14.684  21.565  0.00  0.00    +0.000 C 
ATOM     32  C   UNL     1      -1.219  14.213  23.907  0.00  0.00    +0.000 C 
ATOM     33  C   UNL     1      -2.942  14.141  22.053  0.00  0.00    +0.000 C 
ATOM     34  C   UNL     1      -3.289  13.720  20.620  0.00  0.00    +0.000 C 
ENDBRANCH  22  24
ENDBRANCH   3  22
TORSDOF 6
ENDMDL
MODEL 7
REMARK VINA RESULT:      -7.9      2.322      4.831
REMARK  Name = 
REMARK  9 active torsions:
REMARK  status: ('A' for Active; 'I' for Inactive)
REMARK    1  A    between atoms: C_1  and  O_2
REMARK    2  A    between atoms: O_2  and  N_3
REMARK    3  A    between atoms: C_4  and  C_6
REMARK    4  A    between atoms: C_11  and  N_12
REMARK    5  A    between atoms: N_12  and  C_13
REMARK    6  A    between atoms: C_15  and  N_16
REMARK    7  A    between atoms: N_16  and  C_17
REMARK    8  A    between atoms: C_23  and  C_24
REMARK    9  A    between atoms: C_23  and  C_25
REMARK                            x       y       z     vdW  Elec       q    Type
REMARK                         _______ _______ _______ _____ _____    ______ ____
ROOT
ATOM      1  C   UNL     1       2.407   7.351  19.361  0.00  0.00    +0.000 A 
ATOM      2  C   UNL     1       1.286   7.974  19.925  0.00  0.00    +0.000 A 
ATOM      3  C   UNL     1       0.765   9.124  19.362  0.00  0.00    +0.000 A 
ATOM      4  N   UNL     1       1.213   9.586  18.179  0.00  0.00    +0.000 NA
ATOM      5  C   UNL     1       2.199   8.885  17.559  0.00  0.00    +0.000 A 
ATOM      6  C   UNL     1       2.826   7.774  18.102  0.00  0.00    +0.000 A 
ATOM      7 CL   UNL     1       4.139   7.046  17.263  0.00  0.00    +0.000 Cl
ENDROOT
BRANCH   1   8
ATOM      8  N   UNL     1       3.116   6.374  20.127  0.00  0.00    +0.000 N 
ATOM      9  H   UNL     1       4.129   6.558  20.141  0.00  0.00    +0.000 HD
BRANCH   8  15
ATOM     10  C   UNL     1       3.714   4.018  19.520  0.00  0.00    +0.000 A 
ATOM     11  C   UNL     1       3.256   2.699  19.299  0.00  0.00    +0.000 A 
ATOM     12  C   UNL     1       1.953   2.322  19.625  0.00  0.00    +0.000 A 
ATOM     13  C   UNL     1       1.100   3.238  20.216  0.00  0.00    +0.000 A 
ATOM     14  C   UNL     1       1.545   4.537  20.448  0.00  0.00    +0.000 A 
ATOM     15  C   UNL     1       2.822   4.980  20.031  0.00  0.00    +0.000 A 
BRANCH  10  17
ATOM     16  N   UNL     1       5.437   3.974  17.816  0.00  0.00    +0.000 N 
ATOM     17  C   UNL     1       5.099   4.376  19.096  0.00  0.00    +0.000 C 
ATOM     18  O   UNL     1       5.830   5.005  19.856  0.00  0.00    +0.000 OA
ATOM     19  H   UNL     1       5.064   3.100  17.456  0.00  0.00    +0.000 HD
BRANCH  16  21
ATOM     20  C   UNL     1       6.745   4.532  16.014  0.00  0.00    +0.000 C 
ATOM     21  O   UNL     1       6.758   4.265  17.416  0.00  0.00    +0.000 OA
ENDBRANCH  16  21
ENDBRANCH  10  17
ENDBRANCH   8  15
ENDBRANCH   1   8
BRANCH   3  22
ATOM     22  N   UNL     1      -0.159   9.940  20.007  0.00  0.00    +0.000 N 
ATOM     23  H   UNL     1      -1.069   9.685  19.641  0.00  0.00    +0.000 HD
BRANCH  22  24
ATOM     24  C   UNL     1      -0.080  10.905  20.945  0.00  0.00    +0.000 A 
ATOM     25  C   UNL     1      -0.670  11.061  22.221  0.00  0.00    +0.000 A 
ATOM     26  N   UNL     1      -0.407  12.255  22.768  0.00  0.00    +0.000 NA
ATOM     27  N   UNL     1       0.337  12.868  21.834  0.00  0.00    +0.000 N 
ATOM     28  C   UNL     1       0.623  12.072  20.753  0.00  0.00    +0.000 A 
ATOM     29  C   UNL     1       1.474  12.563  19.642  0.00  0.00    +0.000 C 
ATOM     30  C   UNL     1       1.268  14.075  19.416  0.00  0.00    +0.000 C 
ATOM     31  C   UNL     1      -0.142  14.343  18.850  0.00  0.00    +0.000 C 
ATOM     32  C   UNL     1       2.303  14.555  18.387  0.00  0.00    +0.000 C 
ATOM     33  C   UNL     1       1.486  14.800  20.770  0.00  0.00    +0.000 C 
ATOM     34  C   UNL     1       0.551  14.302  21.880  0.00  0.00    +0.000 C 
ENDBRANCH  22  24
ENDBRANCH   3  22
TORSDOF 6
ENDMDL
MODEL 8
REMARK VINA RESULT:      -7.9      2.813      4.713
REMARK  Name = 
REMARK  9 active torsions:
REMARK  status: ('A' for Active; 'I' for Inactive)
REMARK    1  A    between atoms: C_1  and  O_2
REMARK    2  A    between atoms: O_2  and  N_3
REMARK    3  A    between atoms: C_4  and  C_6
REMARK    4  A    between atoms: C_11  and  N_12
REMARK    5  A    between atoms: N_12  and  C_13
REMARK    6  A    between atoms: C_15  and  N_16
REMARK    7  A    between atoms: N_16  and  C_17
REMARK    8  A    between atoms: C_23  and  C_24
REMARK    9  A    between atoms: C_23  and  C_25
REMARK                            x       y       z     vdW  Elec       q    Type
REMARK                         _______ _______ _______ _____ _____    ______ ____
ROOT
ATOM      1  C   UNL     1       2.519   6.950  18.856  0.00  0.00    +0.000 A 
ATOM      2  C   UNL     1       2.205   8.254  18.448  0.00  0.00    +0.000 A 
ATOM      3  C   UNL     1       1.379   9.050  19.218  0.00  0.00    +0.000 A 
ATOM      4  N   UNL     1       0.982   8.662  20.445  0.00  0.00    +0.000 NA
ATOM      5  C   UNL     1       1.419   7.458  20.900  0.00  0.00    +0.000 A 
ATOM      6  C   UNL     1       2.180   6.572  20.152  0.00  0.00    +0.000 A 
ATOM      7 CL   UNL     1       2.571   5.029  20.805  0.00  0.00    +0.000 Cl
ENDROOT
BRANCH   1   8
ATOM      8  N   UNL     1       3.093   6.048  17.909  0.00  0.00    +0.000 N 
ATOM      9  H   UNL     1       2.627   5.130  17.921  0.00  0.00    +0.000 HD
BRANCH   8  15
ATOM     10  C   UNL     1       5.248   4.777  18.045  0.00  0.00    +0.000 A 
ATOM     11  C   UNL     1       6.660   4.832  18.010  0.00  0.00    +0.000 A 
ATOM     12  C   UNL     1       7.329   5.994  17.627  0.00  0.00    +0.000 A 
ATOM     13  C   UNL     1       6.606   7.105  17.231  0.00  0.00    +0.000 A 
ATOM     14  C   UNL     1       5.214   7.057  17.251  0.00  0.00    +0.000 A 
ATOM     15  C   UNL     1       4.506   5.932  17.735  0.00  0.00    +0.000 A 
BRANCH  10  17
ATOM     16  N   UNL     1       3.682   2.974  17.632  0.00  0.00    +0.000 N 
ATOM     17  C   UNL     1       4.591   3.523  18.519  0.00  0.00    +0.000 C 
ATOM     18  O   UNL     1       4.893   3.046  19.608  0.00  0.00    +0.000 OA
ATOM     19  H   UNL     1       3.118   3.590  17.053  0.00  0.00    +0.000 HD
BRANCH  16  21
ATOM     20  C   UNL     1       1.755   2.210  18.617  0.00  0.00    +0.000 C 
ATOM     21  O   UNL     1       3.019   1.814  18.084  0.00  0.00    +0.000 OA
ENDBRANCH  16  21
ENDBRANCH  10  17
ENDBRANCH   8  15
ENDBRANCH   1   8
BRANCH   3  22
ATOM     22  N   UNL     1       0.811  10.233  18.757  0.00  0.00    +0.000 N 
ATOM     23  H   UNL     1       1.319  10.486  17.917  0.00  0.00    +0.000 HD
BRANCH  22  24
ATOM     24  C   UNL     1      -0.198  11.026  19.172  0.00  0.00    +0.000 A 
ATOM     25  C   UNL     1      -0.449  11.714  20.382  0.00  0.00    +0.000 A 
ATOM     26  N   UNL     1      -1.657  12.294  20.404  0.00  0.00    +0.000 NA
ATOM     27  N   UNL     1      -2.183  11.961  19.215  0.00  0.00    +0.000 N 
ATOM     28  C   UNL     1      -1.318  11.264  18.410  0.00  0.00    +0.000 A 
ATOM     29  C   UNL     1      -1.709  10.852  17.040  0.00  0.00    +0.000 C 
ATOM     30  C   UNL     1      -3.215  10.526  16.969  0.00  0.00    +0.000 C 
ATOM     31  C   UNL     1      -3.520   9.239  17.764  0.00  0.00    +0.000 C 
ATOM     32  C   UNL     1      -3.591  10.288  15.499  0.00  0.00    +0.000 C 
ATOM     33  C   UNL     1      -4.000  11.741  17.531  0.00  0.00    +0.000 C 
ATOM     34  C   UNL     1      -3.606  12.102  18.970  0.00  0.00    +0.000 C 
ENDBRANCH  22  24
ENDBRANCH   3  22
TORSDOF 6
ENDMDL
MODEL 9
REMARK VINA RESULT:      -7.8      2.851      4.684
REMARK  Name = 
REMARK  9 active torsions:
REMARK  status: ('A' for Active; 'I' for Inactive)
REMARK    1  A    between atoms: C_1  and  O_2
REMARK    2  A    between atoms: O_2  and  N_3
REMARK    3  A    between atoms: C_4  and  C_6
REMARK    4  A    between atoms: C_11  and  N_12
REMARK    5  A    between atoms: N_12  and  C_13
REMARK    6  A    between atoms: C_15  and  N_16
REMARK    7  A    between atoms: N_16  and  C_17
REMARK    8  A    between atoms: C_23  and  C_24
REMARK    9  A    between atoms: C_23  and  C_25
REMARK                            x       y       z     vdW  Elec       q    Type
REMARK                         _______ _______ _______ _____ _____    ______ ____
ROOT
ATOM      1  C   UNL     1       2.509   7.039  18.790  0.00  0.00    +0.000 A 
ATOM      2  C   UNL     1       2.164   8.340  18.398  0.00  0.00    +0.000 A 
ATOM      3  C   UNL     1       1.341   9.117  19.191  0.00  0.00    +0.000 A 
ATOM      4  N   UNL     1       0.980   8.714  20.424  0.00  0.00    +0.000 NA
ATOM      5  C   UNL     1       1.447   7.515  20.861  0.00  0.00    +0.000 A 
ATOM      6  C   UNL     1       2.206   6.647  20.090  0.00  0.00    +0.000 A 
ATOM      7 CL   UNL     1       2.638   5.107  20.724  0.00  0.00    +0.000 Cl
ENDROOT
BRANCH   1   8
ATOM      8  N   UNL     1       3.078   6.153  17.824  0.00  0.00    +0.000 N 
ATOM      9  H   UNL     1       2.597   5.242  17.808  0.00  0.00    +0.000 HD
BRANCH   8  15
ATOM     10  C   UNL     1       5.209   4.840  17.926  0.00  0.00    +0.000 A 
ATOM     11  C   UNL     1       6.622   4.871  17.907  0.00  0.00    +0.000 A 
ATOM     12  C   UNL     1       7.314   6.037  17.579  0.00  0.00    +0.000 A 
ATOM     13  C   UNL     1       6.614   7.176  17.223  0.00  0.00    +0.000 A 
ATOM     14  C   UNL     1       5.221   7.152  17.228  0.00  0.00    +0.000 A 
ATOM     15  C   UNL     1       4.490   6.020  17.659  0.00  0.00    +0.000 A 
BRANCH  10  17
ATOM     16  N   UNL     1       5.001   3.022  19.515  0.00  0.00    +0.000 N 
ATOM     17  C   UNL     1       4.526   3.579  18.342  0.00  0.00    +0.000 C 
ATOM     18  O   UNL     1       3.601   3.133  17.670  0.00  0.00    +0.000 OA
ATOM     19  H   UNL     1       5.991   3.094  19.735  0.00  0.00    +0.000 HD
BRANCH  16  21
ATOM     20  C   UNL     1       5.203   1.217  20.919  0.00  0.00    +0.000 C 
ATOM     21  O   UNL     1       4.397   1.806  19.898  0.00  0.00    +0.000 OA
ENDBRANCH  16  21
ENDBRANCH  10  17
ENDBRANCH   8  15
ENDBRANCH   1   8
BRANCH   3  22
ATOM     22  N   UNL     1       0.743  10.293  18.751  0.00  0.00    +0.000 N 
ATOM     23  H   UNL     1       1.237  10.567  17.909  0.00  0.00    +0.000 HD
BRANCH  22  24
ATOM     24  C   UNL     1      -0.278  11.058  19.186  0.00  0.00    +0.000 A 
ATOM     25  C   UNL     1      -0.538  11.713  20.412  0.00  0.00    +0.000 A 
ATOM     26  N   UNL     1      -1.755  12.272  20.451  0.00  0.00    +0.000 NA
ATOM     27  N   UNL     1      -2.279  11.958  19.255  0.00  0.00    +0.000 N 
ATOM     28  C   UNL     1      -1.404  11.295  18.432  0.00  0.00    +0.000 A 
ATOM     29  C   UNL     1      -1.790  10.909  17.053  0.00  0.00    +0.000 C 
ATOM     30  C   UNL     1      -3.291  10.559  16.977  0.00  0.00    +0.000 C 
ATOM     31  C   UNL     1      -3.572   9.248  17.742  0.00  0.00    +0.000 C 
ATOM     32  C   UNL     1      -3.666  10.350  15.503  0.00  0.00    +0.000 C 
ATOM     33  C   UNL     1      -4.095  11.746  17.570  0.00  0.00    +0.000 C 
ATOM     34  C   UNL     1      -3.704  12.081  19.015  0.00  0.00    +0.000 C 
ENDBRANCH  22  24
ENDBRANCH   3  22
TORSDOF 6
ENDMDL
