MODEL 1
REMARK VINA RESULT:      -6.2      0.000      0.000
REMARK  Name = 
REMARK  9 active torsions:
REMARK  status: ('A' for Active; 'I' for Inactive)
REMARK    1  A    between atoms: N_1  and  C_2
REMARK    2  A    between atoms: C_2  and  C_3
REMARK    3  A    between atoms: C_2  and  P_13
REMARK    4  A    between atoms: C_3  and  N_4
REMARK    5  A    between atoms: N_4  and  C_5
REMARK    6  A    between atoms: C_5  and  C_6
REMARK    7  A    between atoms: C_6  and  C_7
REMARK    8  A    between atoms: P_13  and  O_15
REMARK    9  A    between atoms: P_13  and  O_16
REMARK                            x       y       z     vdW  Elec       q    Type
REMARK                         _______ _______ _______ _____ _____    ______ ____
ROOT
ATOM      1  C   UNL     1       5.197   5.851  16.973  0.00  0.00    +0.000 C 
ENDROOT
BRANCH   1   2
ATOM      2  N   UNL     1       5.161   4.493  16.403  0.00  0.00    +0.000 NA
ATOM      3  H   UNL     1       6.061   4.043  16.562  0.00  0.00    +0.000 HD
BRANCH   2   4
ATOM      4  C   UNL     1       4.126   3.695  17.081  0.00  0.00    +0.000 C 
BRANCH   4   5
ATOM      5  C   UNL     1       2.893   4.520  17.482  0.00  0.00    +0.000 C 
BRANCH   5   6
ATOM      6  C   UNL     1       2.341   4.104  18.815  0.00  0.00    +0.000 A 
ATOM      7  C   UNL     1       1.465   3.013  18.895  0.00  0.00    +0.000 A 
ATOM      8  C   UNL     1       0.973   2.605  20.135  0.00  0.00    +0.000 A 
ATOM      9  C   UNL     1       1.346   3.291  21.291  0.00  0.00    +0.000 A 
ATOM     10  C   UNL     1       2.208   4.383  21.208  0.00  0.00    +0.000 A 
ATOM     11  C   UNL     1       2.703   4.790  19.973  0.00  0.00    +0.000 A 
ENDBRANCH   5   6
ENDBRANCH   4   5
ENDBRANCH   2   4
ENDBRANCH   1   2
BRANCH   1  12
ATOM     12  C   UNL     1       6.605   6.413  17.165  0.00  0.00    +0.000 C 
BRANCH  12  13
ATOM     13  N   UNL     1       7.508   6.071  16.031  0.00  0.00    +0.000 NA
ATOM     14  H   UNL     1       8.263   6.756  16.017  0.00  0.00    +0.000 HD
ATOM     15  H   UNL     1       6.981   6.203  15.163  0.00  0.00    +0.000 HD
ENDBRANCH  12  13
BRANCH  12  16
ATOM     16  P   UNL     1       7.451   5.787  18.662  0.00  0.00    +0.000 P 
ATOM     17  O   UNL     1       6.125   5.526  19.383  0.00  0.00    +0.000 OA
BRANCH  16  18
ATOM     18  O   UNL     1       7.836   4.355  17.955  0.00  0.00    +0.000 OA
ATOM     19  H   UNL     1       8.616   3.972  18.397  0.00  0.00    +0.000 HD
ENDBRANCH  16  18
BRANCH  16  20
ATOM     20  O   UNL     1       8.250   5.195  20.077  0.00  0.00    +0.000 OA
ATOM     21  H   UNL     1       8.917   5.882  20.285  0.00  0.00    +0.000 HD
ENDBRANCH  16  20
ENDBRANCH  12  16
ENDBRANCH   1  12
TORSDOF 9
ENDMDL
MODEL 2
REMARK VINA RESULT:      -6.2      0.992      1.273
REMARK  Name = 
REMARK  9 active torsions:
REMARK  status: ('A' for Active; 'I' for Inactive)
REMARK    1  A    between atoms: N_1  and  C_2
REMARK    2  A    between atoms: C_2  and  C_3
REMARK    3  A    between atoms: C_2  and  P_13
REMARK    4  A    between atoms: C_3  and  N_4
REMARK    5  A    between atoms: N_4  and  C_5
REMARK    6  A    between atoms: C_5  and  C_6
REMARK    7  A    between atoms: C_6  and  C_7
REMARK    8  A    between atoms: P_13  and  O_15
REMARK    9  A    between atoms: P_13  and  O_16
REMARK                            x       y       z     vdW  Elec       q    Type
REMARK                         _______ _______ _______ _____ _____    ______ ____
ROOT
ATOM      1  C   UNL     1       5.173   5.676  17.029  0.00  0.00    +0.000 C 
ENDROOT
BRANCH   1   2
ATOM      2  N   UNL     1       5.340   4.339  16.433  0.00  0.00    +0.000 NA
ATOM      3  H   UNL     1       6.328   4.087  16.456  0.00  0.00    +0.000 HD
BRANCH   2   4
ATOM      4  C   UNL     1       4.598   3.343  17.225  0.00  0.00    +0.000 C 
BRANCH   4   5
ATOM      5  C   UNL     1       3.102   3.669  17.355  0.00  0.00    +0.000 C 
BRANCH   5   6
ATOM      6  C   UNL     1       2.608   3.512  18.765  0.00  0.00    +0.000 A 
ATOM      7  C   UNL     1       1.357   4.029  19.125  0.00  0.00    +0.000 A 
ATOM      8  C   UNL     1       0.881   3.860  20.426  0.00  0.00    +0.000 A 
ATOM      9  C   UNL     1       1.659   3.186  21.367  0.00  0.00    +0.000 A 
ATOM     10  C   UNL     1       2.908   2.683  21.011  0.00  0.00    +0.000 A 
ATOM     11  C   UNL     1       3.383   2.847  19.713  0.00  0.00    +0.000 A 
ENDBRANCH   5   6
ENDBRANCH   4   5
ENDBRANCH   2   4
ENDBRANCH   1   2
BRANCH   1  12
ATOM     12  C   UNL     1       6.486   6.381  17.365  0.00  0.00    +0.000 C 
BRANCH  12  13
ATOM     13  N   UNL     1       7.528   6.157  16.324  0.00  0.00    +0.000 NA
ATOM     14  H   UNL     1       7.564   5.157  16.129  0.00  0.00    +0.000 HD
ATOM     15  H   UNL     1       8.434   6.406  16.731  0.00  0.00    +0.000 HD
ENDBRANCH  12  13
BRANCH  12  16
ATOM     16  P   UNL     1       7.243   5.823  18.935  0.00  0.00    +0.000 P 
ATOM     17  O   UNL     1       7.867   4.591  18.273  0.00  0.00    +0.000 OA
BRANCH  16  18
ATOM     18  O   UNL     1       8.417   6.971  18.882  0.00  0.00    +0.000 OA
ATOM     19  H   UNL     1       9.014   6.793  18.132  0.00  0.00    +0.000 HD
ENDBRANCH  16  18
BRANCH  16  20
ATOM     20  O   UNL     1       7.959   5.295  20.418  0.00  0.00    +0.000 OA
ATOM     21  H   UNL     1       7.510   5.827  21.108  0.00  0.00    +0.000 HD
ENDBRANCH  16  20
ENDBRANCH  12  16
ENDBRANCH   1  12
TORSDOF 9
ENDMDL
MODEL 3
REMARK VINA RESULT:      -6.1      0.683      1.337
REMARK  Name = 
REMARK  9 active torsions:
REMARK  status: ('A' for Active; 'I' for Inactive)
REMARK    1  A    between atoms: N_1  and  C_2
REMARK    2  A    between atoms: C_2  and  C_3
REMARK    3  A    between atoms: C_2  and  P_13
REMARK    4  A    between atoms: C_3  and  N_4
REMARK    5  A    between atoms: N_4  and  C_5
REMARK    6  A    between atoms: C_5  and  C_6
REMARK    7  A    between atoms: C_6  and  C_7
REMARK    8  A    between atoms: P_13  and  O_15
REMARK    9  A    between atoms: P_13  and  O_16
REMARK                            x       y       z     vdW  Elec       q    Type
REMARK                         _______ _______ _______ _____ _____    ______ ____
ROOT
ATOM      1  C   UNL     1       5.300   5.075  16.778  0.00  0.00    +0.000 C 
ENDROOT
BRANCH   1   2
ATOM      2  N   UNL     1       5.488   3.625  16.601  0.00  0.00    +0.000 NA
ATOM      3  H   UNL     1       6.291   3.325  17.154  0.00  0.00    +0.000 HD
BRANCH   2   4
ATOM      4  C   UNL     1       4.302   2.904  17.092  0.00  0.00    +0.000 C 
BRANCH   4   5
ATOM      5  C   UNL     1       3.025   3.759  17.072  0.00  0.00    +0.000 C 
BRANCH   5   6
ATOM      6  C   UNL     1       2.355   3.808  18.415  0.00  0.00    +0.000 A 
ATOM      7  C   UNL     1       2.418   4.979  19.182  0.00  0.00    +0.000 A 
ATOM      8  C   UNL     1       1.770   5.039  20.416  0.00  0.00    +0.000 A 
ATOM      9  C   UNL     1       1.072   3.928  20.889  0.00  0.00    +0.000 A 
ATOM     10  C   UNL     1       1.021   2.760  20.131  0.00  0.00    +0.000 A 
ATOM     11  C   UNL     1       1.662   2.699  18.898  0.00  0.00    +0.000 A 
ENDBRANCH   5   6
ENDBRANCH   4   5
ENDBRANCH   2   4
ENDBRANCH   1   2
BRANCH   1  12
ATOM     12  C   UNL     1       6.601   5.866  16.907  0.00  0.00    +0.000 C 
BRANCH  12  13
ATOM     13  N   UNL     1       7.546   5.581  15.792  0.00  0.00    +0.000 NA
ATOM     14  H   UNL     1       7.813   4.599  15.851  0.00  0.00    +0.000 HD
ATOM     15  H   UNL     1       8.398   6.124  15.958  0.00  0.00    +0.000 HD
ENDBRANCH  12  13
BRANCH  12  16
ATOM     16  P   UNL     1       7.536   5.503  18.438  0.00  0.00    +0.000 P 
ATOM     17  O   UNL     1       6.284   4.999  19.162  0.00  0.00    +0.000 OA
BRANCH  16  18
ATOM     18  O   UNL     1       8.228   4.155  17.803  0.00  0.00    +0.000 OA
ATOM     19  H   UNL     1       8.084   3.400  18.403  0.00  0.00    +0.000 HD
ENDBRANCH  16  18
BRANCH  16  20
ATOM     20  O   UNL     1       8.419   5.159  19.885  0.00  0.00    +0.000 OA
ATOM     21  H   UNL     1       8.865   4.306  19.700  0.00  0.00    +0.000 HD
ENDBRANCH  16  20
ENDBRANCH  12  16
ENDBRANCH   1  12
TORSDOF 9
ENDMDL
MODEL 4
REMARK VINA RESULT:      -6.1      1.102      1.787
REMARK  Name = 
REMARK  9 active torsions:
REMARK  status: ('A' for Active; 'I' for Inactive)
REMARK    1  A    between atoms: N_1  and  C_2
REMARK    2  A    between atoms: C_2  and  C_3
REMARK    3  A    between atoms: C_2  and  P_13
REMARK    4  A    between atoms: C_3  and  N_4
REMARK    5  A    between atoms: N_4  and  C_5
REMARK    6  A    between atoms: C_5  and  C_6
REMARK    7  A    between atoms: C_6  and  C_7
REMARK    8  A    between atoms: P_13  and  O_15
REMARK    9  A    between atoms: P_13  and  O_16
REMARK                            x       y       z     vdW  Elec       q    Type
REMARK                         _______ _______ _______ _____ _____    ______ ____
ROOT
ATOM      1  C   UNL     1       5.090   5.932  17.234  0.00  0.00    +0.000 C 
ENDROOT
BRANCH   1   2
ATOM      2  N   UNL     1       4.139   7.010  17.557  0.00  0.00    +0.000 NA
ATOM      3  H   UNL     1       4.017   7.601  16.735  0.00  0.00    +0.000 HD
BRANCH   2   4
ATOM      4  C   UNL     1       2.829   6.433  17.900  0.00  0.00    +0.000 C 
BRANCH   4   5
ATOM      5  C   UNL     1       2.576   6.369  19.415  0.00  0.00    +0.000 C 
BRANCH   5   6
ATOM      6  C   UNL     1       2.131   5.005  19.859  0.00  0.00    +0.000 A 
ATOM      7  C   UNL     1       2.359   4.594  21.179  0.00  0.00    +0.000 A 
ATOM      8  C   UNL     1       1.919   3.339  21.603  0.00  0.00    +0.000 A 
ATOM      9  C   UNL     1       1.265   2.493  20.708  0.00  0.00    +0.000 A 
ATOM     10  C   UNL     1       1.050   2.899  19.393  0.00  0.00    +0.000 A 
ATOM     11  C   UNL     1       1.483   4.151  18.968  0.00  0.00    +0.000 A 
ENDBRANCH   5   6
ENDBRANCH   4   5
ENDBRANCH   2   4
ENDBRANCH   1   2
BRANCH   1  12
ATOM     12  C   UNL     1       6.559   6.340  17.339  0.00  0.00    +0.000 C 
BRANCH  12  13
ATOM     13  N   UNL     1       7.381   5.775  16.233  0.00  0.00    +0.000 NA
ATOM     14  H   UNL     1       8.067   6.479  15.963  0.00  0.00    +0.000 HD
ATOM     15  H   UNL     1       6.767   5.643  15.424  0.00  0.00    +0.000 HD
ENDBRANCH  12  13
BRANCH  12  16
ATOM     16  P   UNL     1       7.373   5.781  18.880  0.00  0.00    +0.000 P 
ATOM     17  O   UNL     1       6.032   5.490  19.560  0.00  0.00    +0.000 OA
BRANCH  16  18
ATOM     18  O   UNL     1       7.832   4.347  18.223  0.00  0.00    +0.000 OA
ATOM     19  H   UNL     1       7.837   3.658  18.913  0.00  0.00    +0.000 HD
ENDBRANCH  16  18
BRANCH  16  20
ATOM     20  O   UNL     1       8.141   5.252  20.336  0.00  0.00    +0.000 OA
ATOM     21  H   UNL     1       7.789   5.851  21.028  0.00  0.00    +0.000 HD
ENDBRANCH  16  20
ENDBRANCH  12  16
ENDBRANCH   1  12
TORSDOF 9
ENDMDL
MODEL 5
REMARK VINA RESULT:      -6.1      0.962      1.425
REMARK  Name = 
REMARK  9 active torsions:
REMARK  status: ('A' for Active; 'I' for Inactive)
REMARK    1  A    between atoms: N_1  and  C_2
REMARK    2  A    between atoms: C_2  and  C_3
REMARK    3  A    between atoms: C_2  and  P_13
REMARK    4  A    between atoms: C_3  and  N_4
REMARK    5  A    between atoms: N_4  and  C_5
REMARK    6  A    between atoms: C_5  and  C_6
REMARK    7  A    between atoms: C_6  and  C_7
REMARK    8  A    between atoms: P_13  and  O_15
REMARK    9  A    between atoms: P_13  and  O_16
REMARK                            x       y       z     vdW  Elec       q    Type
REMARK                         _______ _______ _______ _____ _____    ______ ____
ROOT
ATOM      1  C   UNL     1       5.121   5.888  17.113  0.00  0.00    +0.000 C 
ENDROOT
BRANCH   1   2
ATOM      2  N   UNL     1       5.132   4.602  16.395  0.00  0.00    +0.000 NA
ATOM      3  H   UNL     1       6.097   4.286  16.295  0.00  0.00    +0.000 HD
BRANCH   2   4
ATOM      4  C   UNL     1       4.400   3.589  17.173  0.00  0.00    +0.000 C 
BRANCH   4   5
ATOM      5  C   UNL     1       2.963   4.011  17.513  0.00  0.00    +0.000 C 
BRANCH   5   6
ATOM      6  C   UNL     1       2.561   3.593  18.898  0.00  0.00    +0.000 A 
ATOM      7  C   UNL     1       3.523   3.077  19.776  0.00  0.00    +0.000 A 
ATOM      8  C   UNL     1       3.159   2.715  21.073  0.00  0.00    +0.000 A 
ATOM      9  C   UNL     1       1.836   2.856  21.489  0.00  0.00    +0.000 A 
ATOM     10  C   UNL     1       0.877   3.358  20.611  0.00  0.00    +0.000 A 
ATOM     11  C   UNL     1       1.238   3.723  19.318  0.00  0.00    +0.000 A 
ENDBRANCH   5   6
ENDBRANCH   4   5
ENDBRANCH   2   4
ENDBRANCH   1   2
BRANCH   1  12
ATOM     12  C   UNL     1       6.509   6.457  17.402  0.00  0.00    +0.000 C 
BRANCH  12  13
ATOM     13  N   UNL     1       7.491   6.115  16.336  0.00  0.00    +0.000 NA
ATOM     14  H   UNL     1       7.791   5.153  16.485  0.00  0.00    +0.000 HD
ATOM     15  H   UNL     1       8.318   6.702  16.474  0.00  0.00    +0.000 HD
ENDBRANCH  12  13
BRANCH  12  16
ATOM     16  P   UNL     1       7.251   5.841  18.958  0.00  0.00    +0.000 P 
ATOM     17  O   UNL     1       7.849   4.614  18.264  0.00  0.00    +0.000 OA
BRANCH  16  18
ATOM     18  O   UNL     1       8.449   6.964  18.937  0.00  0.00    +0.000 OA
ATOM     19  H   UNL     1       8.437   7.440  18.086  0.00  0.00    +0.000 HD
ENDBRANCH  16  18
BRANCH  16  20
ATOM     20  O   UNL     1       7.952   5.258  20.427  0.00  0.00    +0.000 OA
ATOM     21  H   UNL     1       8.908   5.179  20.225  0.00  0.00    +0.000 HD
ENDBRANCH  16  20
ENDBRANCH  12  16
ENDBRANCH   1  12
TORSDOF 9
ENDMDL
MODEL 6
REMARK VINA RESULT:      -6.0      1.217      1.352
REMARK  Name = 
REMARK  9 active torsions:
REMARK  status: ('A' for Active; 'I' for Inactive)
REMARK    1  A    between atoms: N_1  and  C_2
REMARK    2  A    between atoms: C_2  and  C_3
REMARK    3  A    between atoms: C_2  and  P_13
REMARK    4  A    between atoms: C_3  and  N_4
REMARK    5  A    between atoms: N_4  and  C_5
REMARK    6  A    between atoms: C_5  and  C_6
REMARK    7  A    between atoms: C_6  and  C_7
REMARK    8  A    between atoms: P_13  and  O_15
REMARK    9  A    between atoms: P_13  and  O_16
REMARK                            x       y       z     vdW  Elec       q    Type
REMARK                         _______ _______ _______ _____ _____    ______ ____
ROOT
ATOM      1  C   UNL     1       6.064   3.911  16.182  0.00  0.00    +0.000 C 
ENDROOT
BRANCH   1   2
ATOM      2  N   UNL     1       5.136   3.463  17.235  0.00  0.00    +0.000 NA
ATOM      3  H   UNL     1       5.384   3.921  18.112  0.00  0.00    +0.000 HD
BRANCH   2   4
ATOM      4  C   UNL     1       3.760   3.856  16.889  0.00  0.00    +0.000 C 
BRANCH   4   5
ATOM      5  C   UNL     1       2.705   2.851  17.376  0.00  0.00    +0.000 C 
BRANCH   5   6
ATOM      6  C   UNL     1       2.345   3.060  18.818  0.00  0.00    +0.000 A 
ATOM      7  C   UNL     1       3.056   2.385  19.819  0.00  0.00    +0.000 A 
ATOM      8  C   UNL     1       2.744   2.600  21.161  0.00  0.00    +0.000 A 
ATOM      9  C   UNL     1       1.716   3.479  21.504  0.00  0.00    +0.000 A 
ATOM     10  C   UNL     1       1.002   4.140  20.507  0.00  0.00    +0.000 A 
ATOM     11  C   UNL     1       1.313   3.931  19.168  0.00  0.00    +0.000 A 
ENDBRANCH   5   6
ENDBRANCH   4   5
ENDBRANCH   2   4
ENDBRANCH   1   2
BRANCH   1  12
ATOM     12  C   UNL     1       6.536   5.356  16.335  0.00  0.00    +0.000 C 
BRANCH  12  13
ATOM     13  N   UNL     1       7.531   5.737  15.294  0.00  0.00    +0.000 NA
ATOM     14  H   UNL     1       7.395   5.121  14.493  0.00  0.00    +0.000 HD
ATOM     15  H   UNL     1       8.463   5.530  15.663  0.00  0.00    +0.000 HD
ENDBRANCH  12  13
BRANCH  12  16
ATOM     16  P   UNL     1       7.354   5.700  17.936  0.00  0.00    +0.000 P 
ATOM     17  O   UNL     1       6.020   5.730  18.687  0.00  0.00    +0.000 OA
BRANCH  16  18
ATOM     18  O   UNL     1       7.893   4.157  18.094  0.00  0.00    +0.000 OA
ATOM     19  H   UNL     1       8.414   4.075  18.914  0.00  0.00    +0.000 HD
ENDBRANCH  16  18
BRANCH  16  20
ATOM     20  O   UNL     1       8.127   6.025  19.449  0.00  0.00    +0.000 OA
ATOM     21  H   UNL     1       8.787   5.307  19.543  0.00  0.00    +0.000 HD
ENDBRANCH  16  20
ENDBRANCH  12  16
ENDBRANCH   1  12
TORSDOF 9
ENDMDL
MODEL 7
REMARK VINA RESULT:      -6.0      1.167      1.324
REMARK  Name = 
REMARK  9 active torsions:
REMARK  status: ('A' for Active; 'I' for Inactive)
REMARK    1  A    between atoms: N_1  and  C_2
REMARK    2  A    between atoms: C_2  and  C_3
REMARK    3  A    between atoms: C_2  and  P_13
REMARK    4  A    between atoms: C_3  and  N_4
REMARK    5  A    between atoms: N_4  and  C_5
REMARK    6  A    between atoms: C_5  and  C_6
REMARK    7  A    between atoms: C_6  and  C_7
REMARK    8  A    between atoms: P_13  and  O_15
REMARK    9  A    between atoms: P_13  and  O_16
REMARK                            x       y       z     vdW  Elec       q    Type
REMARK                         _______ _______ _______ _____ _____    ______ ____
ROOT
ATOM      1  C   UNL     1       5.141   5.896  17.210  0.00  0.00    +0.000 C 
ENDROOT
BRANCH   1   2
ATOM      2  N   UNL     1       4.139   6.887  17.640  0.00  0.00    +0.000 NA
ATOM      3  H   UNL     1       3.954   7.528  16.869  0.00  0.00    +0.000 HD
BRANCH   2   4
ATOM      4  C   UNL     1       2.878   6.206  17.978  0.00  0.00    +0.000 C 
BRANCH   4   5
ATOM      5  C   UNL     1       2.959   4.679  17.835  0.00  0.00    +0.000 C 
BRANCH   5   6
ATOM      6  C   UNL     1       2.574   3.969  19.101  0.00  0.00    +0.000 A 
ATOM      7  C   UNL     1       1.248   4.020  19.552  0.00  0.00    +0.000 A 
ATOM      8  C   UNL     1       0.881   3.336  20.712  0.00  0.00    +0.000 A 
ATOM      9  C   UNL     1       1.837   2.614  21.425  0.00  0.00    +0.000 A 
ATOM     10  C   UNL     1       3.157   2.575  20.982  0.00  0.00    +0.000 A 
ATOM     11  C   UNL     1       3.526   3.251  19.824  0.00  0.00    +0.000 A 
ENDBRANCH   5   6
ENDBRANCH   4   5
ENDBRANCH   2   4
ENDBRANCH   1   2
BRANCH   1  12
ATOM     12  C   UNL     1       6.588   6.371  17.339  0.00  0.00    +0.000 C 
BRANCH  12  13
ATOM     13  N   UNL     1       7.442   5.885  16.220  0.00  0.00    +0.000 NA
ATOM     14  H   UNL     1       8.343   5.613  16.611  0.00  0.00    +0.000 HD
ATOM     15  H   UNL     1       7.623   6.678  15.599  0.00  0.00    +0.000 HD
ENDBRANCH  12  13
BRANCH  12  16
ATOM     16  P   UNL     1       7.419   5.799  18.866  0.00  0.00    +0.000 P 
ATOM     17  O   UNL     1       6.086   5.567  19.583  0.00  0.00    +0.000 OA
BRANCH  16  18
ATOM     18  O   UNL     1       7.807   4.341  18.216  0.00  0.00    +0.000 OA
ATOM     19  H   UNL     1       8.588   3.977  18.672  0.00  0.00    +0.000 HD
ENDBRANCH  16  18
BRANCH  16  20
ATOM     20  O   UNL     1       8.203   5.258  20.309  0.00  0.00    +0.000 OA
ATOM     21  H   UNL     1       8.514   6.081  20.740  0.00  0.00    +0.000 HD
ENDBRANCH  16  20
ENDBRANCH  12  16
ENDBRANCH   1  12
TORSDOF 9
ENDMDL
MODEL 8
REMARK VINA RESULT:      -6.0      1.398      2.000
REMARK  Name = 
REMARK  9 active torsions:
REMARK  status: ('A' for Active; 'I' for Inactive)
REMARK    1  A    between atoms: N_1  and  C_2
REMARK    2  A    between atoms: C_2  and  C_3
REMARK    3  A    between atoms: C_2  and  P_13
REMARK    4  A    between atoms: C_3  and  N_4
REMARK    5  A    between atoms: N_4  and  C_5
REMARK    6  A    between atoms: C_5  and  C_6
REMARK    7  A    between atoms: C_6  and  C_7
REMARK    8  A    between atoms: P_13  and  O_15
REMARK    9  A    between atoms: P_13  and  O_16
REMARK                            x       y       z     vdW  Elec       q    Type
REMARK                         _______ _______ _______ _____ _____    ______ ____
ROOT
ATOM      1  C   UNL     1       5.062   5.976  16.337  0.00  0.00    +0.000 C 
ENDROOT
BRANCH   1   2
ATOM      2  N   UNL     1       4.715   6.985  17.352  0.00  0.00    +0.000 NA
ATOM      3  H   UNL     1       4.898   7.914  16.972  0.00  0.00    +0.000 HD
BRANCH   2   4
ATOM      4  C   UNL     1       3.280   6.899  17.672  0.00  0.00    +0.000 C 
BRANCH   4   5
ATOM      5  C   UNL     1       3.010   6.536  19.140  0.00  0.00    +0.000 C 
BRANCH   5   6
ATOM      6  C   UNL     1       2.244   5.252  19.275  0.00  0.00    +0.000 A 
ATOM      7  C   UNL     1       2.006   4.461  18.143  0.00  0.00    +0.000 A 
ATOM      8  C   UNL     1       1.322   3.252  18.270  0.00  0.00    +0.000 A 
ATOM      9  C   UNL     1       0.865   2.839  19.521  0.00  0.00    +0.000 A 
ATOM     10  C   UNL     1       1.093   3.632  20.644  0.00  0.00    +0.000 A 
ATOM     11  C   UNL     1       1.779   4.836  20.522  0.00  0.00    +0.000 A 
ENDBRANCH   5   6
ENDBRANCH   4   5
ENDBRANCH   2   4
ENDBRANCH   1   2
BRANCH   1  12
ATOM     12  C   UNL     1       6.364   5.226  16.618  0.00  0.00    +0.000 C 
BRANCH  12  13
ATOM     13  N   UNL     1       6.243   3.766  16.351  0.00  0.00    +0.000 NA
ATOM     14  H   UNL     1       6.626   3.269  17.154  0.00  0.00    +0.000 HD
ATOM     15  H   UNL     1       6.847   3.543  15.556  0.00  0.00    +0.000 HD
ENDBRANCH  12  13
BRANCH  12  16
ATOM     16  P   UNL     1       6.931   5.355  18.353  0.00  0.00    +0.000 P 
ATOM     17  O   UNL     1       8.030   4.310  18.141  0.00  0.00    +0.000 OA
BRANCH  16  18
ATOM     18  O   UNL     1       7.668   6.800  18.100  0.00  0.00    +0.000 OA
ATOM     19  H   UNL     1       8.047   6.822  17.202  0.00  0.00    +0.000 HD
ENDBRANCH  16  18
BRANCH  16  20
ATOM     20  O   UNL     1       7.468   5.476  19.993  0.00  0.00    +0.000 OA
ATOM     21  H   UNL     1       8.443   5.394  19.936  0.00  0.00    +0.000 HD
ENDBRANCH  16  20
ENDBRANCH  12  16
ENDBRANCH   1  12
TORSDOF 9
ENDMDL
MODEL 9
REMARK VINA RESULT:      -6.0      2.064      2.811
REMARK  Name = 
REMARK  9 active torsions:
REMARK  status: ('A' for Active; 'I' for Inactive)
REMARK    1  A    between atoms: N_1  and  C_2
REMARK    2  A    between atoms: C_2  and  C_3
REMARK    3  A    between atoms: C_2  and  P_13
REMARK    4  A    between atoms: C_3  and  N_4
REMARK    5  A    between atoms: N_4  and  C_5
REMARK    6  A    between atoms: C_5  and  C_6
REMARK    7  A    between atoms: C_6  and  C_7
REMARK    8  A    between atoms: P_13  and  O_15
REMARK    9  A    between atoms: P_13  and  O_16
REMARK                            x       y       z     vdW  Elec       q    Type
REMARK                         _______ _______ _______ _____ _____    ______ ____
ROOT
ATOM      1  C   UNL     1       5.723   4.795  18.319  0.00  0.00    +0.000 C 
ENDROOT
BRANCH   1   2
ATOM      2  N   UNL     1       4.968   5.925  18.887  0.00  0.00    +0.000 NA
ATOM      3  H   UNL     1       5.604   6.709  19.034  0.00  0.00    +0.000 HD
BRANCH   2   4
ATOM      4  C   UNL     1       3.926   6.356  17.940  0.00  0.00    +0.000 C 
BRANCH   4   5
ATOM      5  C   UNL     1       2.536   6.469  18.583  0.00  0.00    +0.000 C 
BRANCH   5   6
ATOM      6  C   UNL     1       1.997   5.134  19.008  0.00  0.00    +0.000 A 
ATOM      7  C   UNL     1       1.740   4.886  20.363  0.00  0.00    +0.000 A 
ATOM      8  C   UNL     1       1.211   3.657  20.758  0.00  0.00    +0.000 A 
ATOM      9  C   UNL     1       0.950   2.673  19.804  0.00  0.00    +0.000 A 
ATOM     10  C   UNL     1       1.217   2.917  18.459  0.00  0.00    +0.000 A 
ATOM     11  C   UNL     1       1.741   4.143  18.061  0.00  0.00    +0.000 A 
ENDBRANCH   5   6
ENDBRANCH   4   5
ENDBRANCH   2   4
ENDBRANCH   1   2
BRANCH   1  12
ATOM     12  C   UNL     1       5.383   4.483  16.862  0.00  0.00    +0.000 C 
BRANCH  12  13
ATOM     13  N   UNL     1       5.167   3.027  16.634  0.00  0.00    +0.000 NA
ATOM     14  H   UNL     1       6.068   2.560  16.726  0.00  0.00    +0.000 HD
ATOM     15  H   UNL     1       4.874   2.904  15.661  0.00  0.00    +0.000 HD
ENDBRANCH  12  13
BRANCH  12  16
ATOM     16  P   UNL     1       6.691   4.969  15.678  0.00  0.00    +0.000 P 
ATOM     17  O   UNL     1       6.574   6.449  16.056  0.00  0.00    +0.000 OA
BRANCH  16  18
ATOM     18  O   UNL     1       7.895   4.384  16.629  0.00  0.00    +0.000 OA
ATOM     19  H   UNL     1       8.054   3.446  16.416  0.00  0.00    +0.000 HD
ENDBRANCH  16  18
BRANCH  16  20
ATOM     20  O   UNL     1       7.927   5.430  14.559  0.00  0.00    +0.000 OA
ATOM     21  H   UNL     1       8.441   6.116  15.035  0.00  0.00    +0.000 HD
ENDBRANCH  16  20
ENDBRANCH  12  16
ENDBRANCH   1  12
TORSDOF 9
ENDMDL
