MODEL 1
REMARK VINA RESULT:      -5.9      0.000      0.000
REMARK  Name = 
REMARK  6 active torsions:
REMARK  status: ('A' for Active; 'I' for Inactive)
REMARK    1  A    between atoms: N_1  and  CA_2
REMARK    2  A    between atoms: CA_2  and  C_3
REMARK    3  A    between atoms: CA_2  and  C_12
REMARK    4  A    between atoms: C_3  and  N_4
REMARK    5  A    between atoms: C_5  and  C_7
REMARK    6  A    between atoms: C_12  and  OXT_14
REMARK                            x       y       z     vdW  Elec       q    Type
REMARK                         _______ _______ _______ _____ _____    ______ ____
ROOT
ATOM      1  N   UNL     1       5.600   4.394  17.349  0.00  0.00    +0.000 N 
ATOM      2  C   UNL     1       6.839   4.466  16.755  0.00  0.00    +0.000 C 
ATOM      3  O   UNL     1       7.878   4.519  17.407  0.00  0.00    +0.000 OA
ATOM      4  H   UNL     1       4.776   4.355  16.766  0.00  0.00    +0.000 HD
ENDROOT
BRANCH   2   5
ATOM      5  C   UNL     1       6.837   4.463  15.306  0.00  0.00    +0.000 A 
ATOM      6  C   UNL     1       6.097   3.756  14.372  0.00  0.00    +0.000 A 
ATOM      7  C   UNL     1       6.528   4.146  13.077  0.00  0.00    +0.000 A 
ATOM      8  C   UNL     1       7.516   5.088  13.245  0.00  0.00    +0.000 A 
ATOM      9  N   UNL     1       7.693   5.278  14.589  0.00  0.00    +0.000 N 
ATOM     10  H   UNL     1       8.351   5.916  15.020  0.00  0.00    +0.000 HD
ENDBRANCH   2   5
BRANCH   1  11
ATOM     11  C   UNL     1       5.447   4.414  18.798  0.00  0.00    +0.000 C 
BRANCH  11  12
ATOM     12  CA  UNL     1       4.428   3.375  19.288  0.00  0.00    +0.000 C 
BRANCH  12  13
ATOM     13  N   UNL     1       5.075   2.233  20.017  0.00  0.00    +0.000 NA
ATOM     14  H1  UNL     1       4.978   1.407  19.420  0.00  0.00    +0.000 HD
ATOM     15  H2  UNL     1       4.506   2.016  20.844  0.00  0.00    +0.000 HD
ENDBRANCH  12  13
BRANCH  12  16
ATOM     16  C   UNL     1       3.635   2.799  18.110  0.00  0.00    +0.000 C 
ATOM     17  O   UNL     1       2.720   3.355  17.520  0.00  0.00    +0.000 OA
BRANCH  16  18
ATOM     18  OXT UNL     1       4.079   1.555  17.783  0.00  0.00    +0.000 OA
ATOM     19  HXT UNL     1       3.326   1.087  17.345  0.00  0.00    +0.000 HD
ENDBRANCH  16  18
ENDBRANCH  12  16
ENDBRANCH  11  12
ENDBRANCH   1  11
TORSDOF 6
ENDMDL
MODEL 2
REMARK VINA RESULT:      -5.8      2.122      2.793
REMARK  Name = 
REMARK  6 active torsions:
REMARK  status: ('A' for Active; 'I' for Inactive)
REMARK    1  A    between atoms: N_1  and  CA_2
REMARK    2  A    between atoms: CA_2  and  C_3
REMARK    3  A    between atoms: CA_2  and  C_12
REMARK    4  A    between atoms: C_3  and  N_4
REMARK    5  A    between atoms: C_5  and  C_7
REMARK    6  A    between atoms: C_12  and  OXT_14
REMARK                            x       y       z     vdW  Elec       q    Type
REMARK                         _______ _______ _______ _____ _____    ______ ____
ROOT
ATOM      1  N   UNL     1       4.512   3.009  18.831  0.00  0.00    +0.000 N 
ATOM      2  C   UNL     1       5.357   4.090  18.721  0.00  0.00    +0.000 C 
ATOM      3  O   UNL     1       5.831   4.655  19.703  0.00  0.00    +0.000 OA
ATOM      4  H   UNL     1       4.149   2.582  17.991  0.00  0.00    +0.000 HD
ENDROOT
BRANCH   2   5
ATOM      5  C   UNL     1       5.660   4.512  17.369  0.00  0.00    +0.000 A 
ATOM      6  C   UNL     1       4.945   5.243  16.434  0.00  0.00    +0.000 A 
ATOM      7  C   UNL     1       5.730   5.345  15.256  0.00  0.00    +0.000 A 
ATOM      8  C   UNL     1       6.910   4.681  15.496  0.00  0.00    +0.000 A 
ATOM      9  N   UNL     1       6.863   4.187  16.772  0.00  0.00    +0.000 N 
ATOM     10  H   UNL     1       7.591   3.656  17.233  0.00  0.00    +0.000 HD
ENDBRANCH   2   5
BRANCH   1  11
ATOM     11  C   UNL     1       4.101   2.491  20.129  0.00  0.00    +0.000 C 
BRANCH  11  12
ATOM     12  CA  UNL     1       2.787   3.121  20.614  0.00  0.00    +0.000 C 
BRANCH  12  13
ATOM     13  N   UNL     1       2.467   2.762  22.036  0.00  0.00    +0.000 NA
ATOM     14  H1  UNL     1       1.448   2.804  22.131  0.00  0.00    +0.000 HD
ATOM     15  H2  UNL     1       2.809   3.517  22.643  0.00  0.00    +0.000 HD
ENDBRANCH  12  13
BRANCH  12  16
ATOM     16  C   UNL     1       1.615   2.670  19.735  0.00  0.00    +0.000 C 
ATOM     17  O   UNL     1       1.698   2.003  18.714  0.00  0.00    +0.000 OA
BRANCH  16  18
ATOM     18  OXT UNL     1       0.430   3.114  20.236  0.00  0.00    +0.000 OA
ATOM     19  HXT UNL     1       0.538   3.179  21.216  0.00  0.00    +0.000 HD
ENDBRANCH  16  18
ENDBRANCH  12  16
ENDBRANCH  11  12
ENDBRANCH   1  11
TORSDOF 6
ENDMDL
MODEL 3
REMARK VINA RESULT:      -5.7      2.801      3.504
REMARK  Name = 
REMARK  6 active torsions:
REMARK  status: ('A' for Active; 'I' for Inactive)
REMARK    1  A    between atoms: N_1  and  CA_2
REMARK    2  A    between atoms: CA_2  and  C_3
REMARK    3  A    between atoms: CA_2  and  C_12
REMARK    4  A    between atoms: C_3  and  N_4
REMARK    5  A    between atoms: C_5  and  C_7
REMARK    6  A    between atoms: C_12  and  OXT_14
REMARK                            x       y       z     vdW  Elec       q    Type
REMARK                         _______ _______ _______ _____ _____    ______ ____
ROOT
ATOM      1  N   UNL     1       4.311   4.044  17.908  0.00  0.00    +0.000 N 
ATOM      2  C   UNL     1       5.415   4.300  17.127  0.00  0.00    +0.000 C 
ATOM      3  O   UNL     1       5.564   3.801  16.016  0.00  0.00    +0.000 OA
ATOM      4  H   UNL     1       4.239   4.480  18.816  0.00  0.00    +0.000 HD
ENDROOT
BRANCH   2   5
ATOM      5  C   UNL     1       6.387   5.210  17.700  0.00  0.00    +0.000 A 
ATOM      6  C   UNL     1       6.901   6.422  17.270  0.00  0.00    +0.000 A 
ATOM      7  C   UNL     1       7.844   6.870  18.232  0.00  0.00    +0.000 A 
ATOM      8  C   UNL     1       7.881   5.927  19.233  0.00  0.00    +0.000 A 
ATOM      9  N   UNL     1       6.997   4.934  18.909  0.00  0.00    +0.000 N 
ATOM     10  H   UNL     1       6.803   4.105  19.458  0.00  0.00    +0.000 HD
ENDBRANCH   2   5
BRANCH   1  11
ATOM     11  C   UNL     1       3.264   3.129  17.471  0.00  0.00    +0.000 C 
BRANCH  11  12
ATOM     12  CA  UNL     1       3.100   1.937  18.425  0.00  0.00    +0.000 C 
BRANCH  12  13
ATOM     13  N   UNL     1       1.660   1.601  18.684  0.00  0.00    +0.000 NA
ATOM     14  H1  UNL     1       1.641   1.002  19.514  0.00  0.00    +0.000 HD
ATOM     15  H2  UNL     1       1.330   0.994  17.925  0.00  0.00    +0.000 HD
ENDBRANCH  12  13
BRANCH  12  16
ATOM     16  C   UNL     1       3.771   2.228  19.772  0.00  0.00    +0.000 C 
ATOM     17  O   UNL     1       3.264   2.820  20.714  0.00  0.00    +0.000 OA
BRANCH  16  18
ATOM     18  OXT UNL     1       5.039   1.737  19.803  0.00  0.00    +0.000 OA
ATOM     19  HXT UNL     1       5.628   2.437  19.428  0.00  0.00    +0.000 HD
ENDBRANCH  16  18
ENDBRANCH  12  16
ENDBRANCH  11  12
ENDBRANCH   1  11
TORSDOF 6
ENDMDL
MODEL 4
REMARK VINA RESULT:      -5.7      1.183      1.466
REMARK  Name = 
REMARK  6 active torsions:
REMARK  status: ('A' for Active; 'I' for Inactive)
REMARK    1  A    between atoms: N_1  and  CA_2
REMARK    2  A    between atoms: CA_2  and  C_3
REMARK    3  A    between atoms: CA_2  and  C_12
REMARK    4  A    between atoms: C_3  and  N_4
REMARK    5  A    between atoms: C_5  and  C_7
REMARK    6  A    between atoms: C_12  and  OXT_14
REMARK                            x       y       z     vdW  Elec       q    Type
REMARK                         _______ _______ _______ _____ _____    ______ ____
ROOT
ATOM      1  N   UNL     1       6.335   4.133  16.619  0.00  0.00    +0.000 N 
ATOM      2  C   UNL     1       6.906   5.011  15.727  0.00  0.00    +0.000 C 
ATOM      3  O   UNL     1       7.414   6.071  16.083  0.00  0.00    +0.000 OA
ATOM      4  H   UNL     1       5.929   3.275  16.273  0.00  0.00    +0.000 HD
ENDROOT
BRANCH   2   5
ATOM      5  C   UNL     1       6.879   4.597  14.339  0.00  0.00    +0.000 A 
ATOM      6  C   UNL     1       7.549   5.049  13.214  0.00  0.00    +0.000 A 
ATOM      7  C   UNL     1       7.121   4.277  12.103  0.00  0.00    +0.000 A 
ATOM      8  C   UNL     1       6.205   3.364  12.571  0.00  0.00    +0.000 A 
ATOM      9  N   UNL     1       6.069   3.559  13.919  0.00  0.00    +0.000 N 
ATOM     10  H   UNL     1       5.466   3.032  14.540  0.00  0.00    +0.000 HD
ENDBRANCH   2   5
BRANCH   1  11
ATOM     11  C   UNL     1       6.267   4.429  18.044  0.00  0.00    +0.000 C 
BRANCH  11  12
ATOM     12  CA  UNL     1       4.960   3.933  18.678  0.00  0.00    +0.000 C 
BRANCH  12  13
ATOM     13  N   UNL     1       5.192   2.902  19.745  0.00  0.00    +0.000 NA
ATOM     14  H1  UNL     1       4.553   2.126  19.551  0.00  0.00    +0.000 HD
ATOM     15  H2  UNL     1       4.862   3.284  20.639  0.00  0.00    +0.000 HD
ENDBRANCH  12  13
BRANCH  12  16
ATOM     16  C   UNL     1       4.043   3.319  17.615  0.00  0.00    +0.000 C 
ATOM     17  O   UNL     1       3.251   3.928  16.911  0.00  0.00    +0.000 OA
BRANCH  16  18
ATOM     18  OXT UNL     1       4.214   1.970  17.541  0.00  0.00    +0.000 OA
ATOM     19  HXT UNL     1       4.514   1.769  16.621  0.00  0.00    +0.000 HD
ENDBRANCH  16  18
ENDBRANCH  12  16
ENDBRANCH  11  12
ENDBRANCH   1  11
TORSDOF 6
ENDMDL
MODEL 5
REMARK VINA RESULT:      -5.7      2.137      6.130
REMARK  Name = 
REMARK  6 active torsions:
REMARK  status: ('A' for Active; 'I' for Inactive)
REMARK    1  A    between atoms: N_1  and  CA_2
REMARK    2  A    between atoms: CA_2  and  C_3
REMARK    3  A    between atoms: CA_2  and  C_12
REMARK    4  A    between atoms: C_3  and  N_4
REMARK    5  A    between atoms: C_5  and  C_7
REMARK    6  A    between atoms: C_12  and  OXT_14
REMARK                            x       y       z     vdW  Elec       q    Type
REMARK                         _______ _______ _______ _____ _____    ______ ____
ROOT
ATOM      1  N   UNL     1       4.198   3.995  17.695  0.00  0.00    +0.000 N 
ATOM      2  C   UNL     1       2.940   3.449  17.813  0.00  0.00    +0.000 C 
ATOM      3  O   UNL     1       2.276   3.112  16.838  0.00  0.00    +0.000 OA
ATOM      4  H   UNL     1       4.701   4.257  18.530  0.00  0.00    +0.000 HD
ENDROOT
BRANCH   2   5
ATOM      5  C   UNL     1       2.455   3.288  19.169  0.00  0.00    +0.000 A 
ATOM      6  C   UNL     1       1.219   3.509  19.753  0.00  0.00    +0.000 A 
ATOM      7  C   UNL     1       1.318   3.193  21.133  0.00  0.00    +0.000 A 
ATOM      8  C   UNL     1       2.609   2.779  21.363  0.00  0.00    +0.000 A 
ATOM      9  N   UNL     1       3.286   2.833  20.176  0.00  0.00    +0.000 N 
ATOM     10  H   UNL     1       4.257   2.584  20.030  0.00  0.00    +0.000 HD
ENDBRANCH   2   5
BRANCH   1  11
ATOM     11  C   UNL     1       4.804   4.238  16.392  0.00  0.00    +0.000 C 
BRANCH  11  12
ATOM     12  CA  UNL     1       5.754   5.445  16.410  0.00  0.00    +0.000 C 
BRANCH  12  13
ATOM     13  N   UNL     1       5.244   6.592  15.587  0.00  0.00    +0.000 NA
ATOM     14  H1  UNL     1       5.391   6.342  14.606  0.00  0.00    +0.000 HD
ATOM     15  H2  UNL     1       5.863   7.397  15.739  0.00  0.00    +0.000 HD
ENDBRANCH  12  13
BRANCH  12  16
ATOM     16  C   UNL     1       7.135   5.053  15.875  0.00  0.00    +0.000 C 
ATOM     17  O   UNL     1       7.565   5.289  14.756  0.00  0.00    +0.000 OA
BRANCH  16  18
ATOM     18  OXT UNL     1       7.854   4.388  16.820  0.00  0.00    +0.000 OA
ATOM     19  HXT UNL     1       7.362   3.554  17.022  0.00  0.00    +0.000 HD
ENDBRANCH  16  18
ENDBRANCH  12  16
ENDBRANCH  11  12
ENDBRANCH   1  11
TORSDOF 6
ENDMDL
MODEL 6
REMARK VINA RESULT:      -5.6      2.832      5.322
REMARK  Name = 
REMARK  6 active torsions:
REMARK  status: ('A' for Active; 'I' for Inactive)
REMARK    1  A    between atoms: N_1  and  CA_2
REMARK    2  A    between atoms: CA_2  and  C_3
REMARK    3  A    between atoms: CA_2  and  C_12
REMARK    4  A    between atoms: C_3  and  N_4
REMARK    5  A    between atoms: C_5  and  C_7
REMARK    6  A    between atoms: C_12  and  OXT_14
REMARK                            x       y       z     vdW  Elec       q    Type
REMARK                         _______ _______ _______ _____ _____    ______ ____
ROOT
ATOM      1  N   UNL     1       4.462   5.346  16.993  0.00  0.00    +0.000 N 
ATOM      2  C   UNL     1       3.430   5.441  17.899  0.00  0.00    +0.000 C 
ATOM      3  O   UNL     1       3.167   6.486  18.487  0.00  0.00    +0.000 OA
ATOM      4  H   UNL     1       4.637   4.462  16.538  0.00  0.00    +0.000 HD
ENDROOT
BRANCH   2   5
ATOM      5  C   UNL     1       2.667   4.227  18.105  0.00  0.00    +0.000 A 
ATOM      6  C   UNL     1       1.403   3.992  18.622  0.00  0.00    +0.000 A 
ATOM      7  C   UNL     1       1.168   2.593  18.599  0.00  0.00    +0.000 A 
ATOM      8  C   UNL     1       2.287   2.002  18.062  0.00  0.00    +0.000 A 
ATOM      9  N   UNL     1       3.183   2.992  17.761  0.00  0.00    +0.000 N 
ATOM     10  H   UNL     1       4.099   2.863  17.349  0.00  0.00    +0.000 HD
ENDBRANCH   2   5
BRANCH   1  11
ATOM     11  C   UNL     1       5.330   6.481  16.704  0.00  0.00    +0.000 C 
BRANCH  11  12
ATOM     12  CA  UNL     1       6.695   6.357  17.398  0.00  0.00    +0.000 C 
BRANCH  12  13
ATOM     13  N   UNL     1       7.739   7.238  16.775  0.00  0.00    +0.000 NA
ATOM     14  H1  UNL     1       7.370   8.193  16.792  0.00  0.00    +0.000 HD
ATOM     15  H2  UNL     1       7.800   7.007  15.777  0.00  0.00    +0.000 HD
ENDBRANCH  12  13
BRANCH  12  16
ATOM     16  C   UNL     1       7.199   4.911  17.344  0.00  0.00    +0.000 C 
ATOM     17  O   UNL     1       7.914   4.432  16.476  0.00  0.00    +0.000 OA
BRANCH  16  18
ATOM     18  OXT UNL     1       6.743   4.195  18.408  0.00  0.00    +0.000 OA
ATOM     19  HXT UNL     1       6.066   4.754  18.862  0.00  0.00    +0.000 HD
ENDBRANCH  16  18
ENDBRANCH  12  16
ENDBRANCH  11  12
ENDBRANCH   1  11
TORSDOF 6
ENDMDL
MODEL 7
REMARK VINA RESULT:      -5.6      2.305      5.970
REMARK  Name = 
REMARK  6 active torsions:
REMARK  status: ('A' for Active; 'I' for Inactive)
REMARK    1  A    between atoms: N_1  and  CA_2
REMARK    2  A    between atoms: CA_2  and  C_3
REMARK    3  A    between atoms: CA_2  and  C_12
REMARK    4  A    between atoms: C_3  and  N_4
REMARK    5  A    between atoms: C_5  and  C_7
REMARK    6  A    between atoms: C_12  and  OXT_14
REMARK                            x       y       z     vdW  Elec       q    Type
REMARK                         _______ _______ _______ _____ _____    ______ ____
ROOT
ATOM      1  N   UNL     1       4.082   3.839  17.526  0.00  0.00    +0.000 N 
ATOM      2  C   UNL     1       4.323   3.669  18.870  0.00  0.00    +0.000 C 
ATOM      3  O   UNL     1       5.457   3.672  19.339  0.00  0.00    +0.000 OA
ATOM      4  H   UNL     1       3.129   3.827  17.192  0.00  0.00    +0.000 HD
ENDROOT
BRANCH   2   5
ATOM      5  C   UNL     1       3.146   3.499  19.699  0.00  0.00    +0.000 A 
ATOM      6  C   UNL     1       1.862   4.013  19.618  0.00  0.00    +0.000 A 
ATOM      7  C   UNL     1       1.116   3.515  20.717  0.00  0.00    +0.000 A 
ATOM      8  C   UNL     1       1.955   2.702  21.443  0.00  0.00    +0.000 A 
ATOM      9  N   UNL     1       3.173   2.692  20.820  0.00  0.00    +0.000 N 
ATOM     10  H   UNL     1       3.993   2.178  21.121  0.00  0.00    +0.000 HD
ENDBRANCH   2   5
BRANCH   1  11
ATOM     11  C   UNL     1       5.170   3.997  16.570  0.00  0.00    +0.000 C 
BRANCH  11  12
ATOM     12  CA  UNL     1       5.622   5.459  16.441  0.00  0.00    +0.000 C 
BRANCH  12  13
ATOM     13  N   UNL     1       5.430   6.001  15.055  0.00  0.00    +0.000 NA
ATOM     14  H1  UNL     1       6.264   6.552  14.834  0.00  0.00    +0.000 HD
ATOM     15  H2  UNL     1       4.670   6.690  15.082  0.00  0.00    +0.000 HD
ENDBRANCH  12  13
BRANCH  12  16
ATOM     16  C   UNL     1       7.103   5.601  16.807  0.00  0.00    +0.000 C 
ATOM     17  O   UNL     1       7.758   6.632  16.764  0.00  0.00    +0.000 OA
BRANCH  16  18
ATOM     18  OXT UNL     1       7.627   4.407  17.198  0.00  0.00    +0.000 OA
ATOM     19  HXT UNL     1       8.081   4.020  16.409  0.00  0.00    +0.000 HD
ENDBRANCH  16  18
ENDBRANCH  12  16
ENDBRANCH  11  12
ENDBRANCH   1  11
TORSDOF 6
ENDMDL
MODEL 8
REMARK VINA RESULT:      -5.6      3.107      5.834
REMARK  Name = 
REMARK  6 active torsions:
REMARK  status: ('A' for Active; 'I' for Inactive)
REMARK    1  A    between atoms: N_1  and  CA_2
REMARK    2  A    between atoms: CA_2  and  C_3
REMARK    3  A    between atoms: CA_2  and  C_12
REMARK    4  A    between atoms: C_3  and  N_4
REMARK    5  A    between atoms: C_5  and  C_7
REMARK    6  A    between atoms: C_12  and  OXT_14
REMARK                            x       y       z     vdW  Elec       q    Type
REMARK                         _______ _______ _______ _____ _____    ______ ____
ROOT
ATOM      1  N   UNL     1       4.083   5.244  17.547  0.00  0.00    +0.000 N 
ATOM      2  C   UNL     1       3.007   5.774  18.222  0.00  0.00    +0.000 C 
ATOM      3  O   UNL     1       2.740   6.972  18.194  0.00  0.00    +0.000 OA
ATOM      4  H   UNL     1       4.259   4.252  17.605  0.00  0.00    +0.000 HD
ENDROOT
BRANCH   2   5
ATOM      5  C   UNL     1       2.204   4.822  18.962  0.00  0.00    +0.000 A 
ATOM      6  C   UNL     1       1.751   4.796  20.271  0.00  0.00    +0.000 A 
ATOM      7  C   UNL     1       1.007   3.602  20.459  0.00  0.00    +0.000 A 
ATOM      8  C   UNL     1       1.014   2.926  19.261  0.00  0.00    +0.000 A 
ATOM      9  N   UNL     1       1.731   3.670  18.363  0.00  0.00    +0.000 N 
ATOM     10  H   UNL     1       1.906   3.429  17.395  0.00  0.00    +0.000 HD
ENDBRANCH   2   5
BRANCH   1  11
ATOM     11  C   UNL     1       4.993   6.087  16.782  0.00  0.00    +0.000 C 
BRANCH  11  12
ATOM     12  CA  UNL     1       6.297   6.371  17.542  0.00  0.00    +0.000 C 
BRANCH  12  13
ATOM     13  N   UNL     1       7.479   6.508  16.627  0.00  0.00    +0.000 NA
ATOM     14  H1  UNL     1       8.309   6.572  17.222  0.00  0.00    +0.000 HD
ATOM     15  H2  UNL     1       7.425   7.426  16.168  0.00  0.00    +0.000 HD
ENDBRANCH  12  13
BRANCH  12  16
ATOM     16  C   UNL     1       6.596   5.246  18.539  0.00  0.00    +0.000 C 
ATOM     17  O   UNL     1       6.463   5.308  19.753  0.00  0.00    +0.000 OA
BRANCH  16  18
ATOM     18  OXT UNL     1       7.044   4.131  17.899  0.00  0.00    +0.000 OA
ATOM     19  HXT UNL     1       7.070   4.345  16.934  0.00  0.00    +0.000 HD
ENDBRANCH  16  18
ENDBRANCH  12  16
ENDBRANCH  11  12
ENDBRANCH   1  11
TORSDOF 6
ENDMDL
MODEL 9
REMARK VINA RESULT:      -5.6      2.299      2.940
REMARK  Name = 
REMARK  6 active torsions:
REMARK  status: ('A' for Active; 'I' for Inactive)
REMARK    1  A    between atoms: N_1  and  CA_2
REMARK    2  A    between atoms: CA_2  and  C_3
REMARK    3  A    between atoms: CA_2  and  C_12
REMARK    4  A    between atoms: C_3  and  N_4
REMARK    5  A    between atoms: C_5  and  C_7
REMARK    6  A    between atoms: C_12  and  OXT_14
REMARK                            x       y       z     vdW  Elec       q    Type
REMARK                         _______ _______ _______ _____ _____    ______ ____
ROOT
ATOM      1  N   UNL     1       3.403   4.713  18.922  0.00  0.00    +0.000 N 
ATOM      2  C   UNL     1       4.618   4.155  18.597  0.00  0.00    +0.000 C 
ATOM      3  O   UNL     1       5.223   3.408  19.360  0.00  0.00    +0.000 OA
ATOM      4  H   UNL     1       2.949   5.323  18.257  0.00  0.00    +0.000 HD
ENDROOT
BRANCH   2   5
ATOM      5  C   UNL     1       5.133   4.500  17.287  0.00  0.00    +0.000 A 
ATOM      6  C   UNL     1       4.980   5.620  16.486  0.00  0.00    +0.000 A 
ATOM      7  C   UNL     1       5.706   5.409  15.285  0.00  0.00    +0.000 A 
ATOM      8  C   UNL     1       6.294   4.169  15.379  0.00  0.00    +0.000 A 
ATOM      9  N   UNL     1       5.950   3.631  16.589  0.00  0.00    +0.000 N 
ATOM     10  H   UNL     1       6.237   2.726  16.943  0.00  0.00    +0.000 HD
ENDBRANCH   2   5
BRANCH   1  11
ATOM     11  C   UNL     1       2.776   4.475  20.215  0.00  0.00    +0.000 C 
BRANCH  11  12
ATOM     12  CA  UNL     1       1.391   3.825  20.078  0.00  0.00    +0.000 C 
BRANCH  12  13
ATOM     13  N   UNL     1       1.083   2.881  21.204  0.00  0.00    +0.000 NA
ATOM     14  H1  UNL     1       0.101   2.610  21.103  0.00  0.00    +0.000 HD
ATOM     15  H2  UNL     1       1.112   3.410  22.083  0.00  0.00    +0.000 HD
ENDBRANCH  12  13
BRANCH  12  16
ATOM     16  C   UNL     1       1.289   3.045  18.762  0.00  0.00    +0.000 C 
ATOM     17  O   UNL     1       0.883   3.485  17.696  0.00  0.00    +0.000 OA
BRANCH  16  18
ATOM     18  OXT UNL     1       1.715   1.762  18.920  0.00  0.00    +0.000 OA
ATOM     19  HXT UNL     1       2.685   1.756  18.726  0.00  0.00    +0.000 HD
ENDBRANCH  16  18
ENDBRANCH  12  16
ENDBRANCH  11  12
ENDBRANCH   1  11
TORSDOF 6
ENDMDL
