MODEL 1
REMARK VINA RESULT:      -9.1      0.000      0.000
REMARK  Name = 
REMARK  5 active torsions:
REMARK  status: ('A' for Active; 'I' for Inactive)
REMARK    1  A    between atoms: N_1  and  C_2
REMARK    2  A    between atoms: C_6  and  C_7
REMARK    3  A    between atoms: C_14  and  N_15
REMARK    4  A    between atoms: C_16  and  C_17
REMARK    5  A    between atoms: C_23  and  C_25
REMARK                            x       y       z     vdW  Elec       q    Type
REMARK                         _______ _______ _______ _____ _____    ______ ____
ROOT
ATOM      1  C   UNL     1       6.416   6.258  16.593  0.00  0.00    +0.000 A 
ATOM      2  N   UNL     1       7.252   5.540  15.822  0.00  0.00    +0.000 NA
ATOM      3  C   UNL     1       6.924   4.253  15.610  0.00  0.00    +0.000 A 
ATOM      4  C   UNL     1       5.779   3.659  16.110  0.00  0.00    +0.000 A 
ATOM      5  C   UNL     1       4.887   4.396  16.917  0.00  0.00    +0.000 A 
ATOM      6  C   UNL     1       5.219   5.756  17.176  0.00  0.00    +0.000 A 
ENDROOT
BRANCH   5   7
ATOM      7  C   UNL     1       3.665   3.714  17.445  0.00  0.00    +0.000 A 
ATOM      8  C   UNL     1       2.400   4.343  17.403  0.00  0.00    +0.000 A 
ATOM      9  C   UNL     1       1.251   3.728  17.914  0.00  0.00    +0.000 A 
ATOM     10  C   UNL     1       1.342   2.458  18.458  0.00  0.00    +0.000 A 
ATOM     11  F   UNL     1       0.240   1.858  18.927  0.00  0.00    +0.000 F 
ATOM     12  C   UNL     1       2.562   1.806  18.526  0.00  0.00    +0.000 A 
ATOM     13  C   UNL     1       3.714   2.439  18.042  0.00  0.00    +0.000 A 
ENDBRANCH   5   7
BRANCH   1  14
ATOM     14  N   UNL     1       6.817   7.589  16.774  0.00  0.00    +0.000 N 
ATOM     15  H   UNL     1       6.460   7.870  17.686  0.00  0.00    +0.000 HD
ATOM     16  H   UNL     1       6.444   8.154  16.019  0.00  0.00    +0.000 HD
ENDBRANCH   1  14
BRANCH   6  17
ATOM     17  N   UNL     1       4.431   6.541  18.072  0.00  0.00    +0.000 NA
ATOM     18  C   UNL     1       3.508   7.295  17.567  0.00  0.00    +0.000 C 
BRANCH  18  19
ATOM     19  C   UNL     1       2.570   8.063  18.420  0.00  0.00    +0.000 A 
ATOM     20  C   UNL     1       2.198   7.506  19.638  0.00  0.00    +0.000 A 
ATOM     21  C   UNL     1       1.379   8.258  20.453  0.00  0.00    +0.000 A 
ATOM     22  N   UNL     1       0.917   9.474  20.114  0.00  0.00    +0.000 NA
ATOM     23  C   UNL     1       1.264  10.004  18.929  0.00  0.00    +0.000 A 
ATOM     24  N   UNL     1       0.775  11.268  18.555  0.00  0.00    +0.000 N 
ATOM     25  C   UNL     1      -0.081  12.029  19.323  0.00  0.00    +0.000 C 
ATOM     26  O   UNL     1      -0.546  11.744  20.421  0.00  0.00    +0.000 OA
ATOM     27  C   UNL     1       2.104   9.328  18.049  0.00  0.00    +0.000 A 
ATOM     28  H   UNL     1       1.055  11.622  17.655  0.00  0.00    +0.000 HD
BRANCH  25  29
ATOM     29  C   UNL     1      -0.508  13.342  18.746  0.00  0.00    +0.000 C 
ATOM     30  C   UNL     1      -0.897  14.580  19.510  0.00  0.00    +0.000 C 
ATOM     31  C   UNL     1       0.429  14.527  18.808  0.00  0.00    +0.000 C 
ENDBRANCH  25  29
ENDBRANCH  18  19
ENDBRANCH   6  17
TORSDOF 5
ENDMDL
MODEL 2
REMARK VINA RESULT:      -9.0      3.033      4.613
REMARK  Name = 
REMARK  5 active torsions:
REMARK  status: ('A' for Active; 'I' for Inactive)
REMARK    1  A    between atoms: N_1  and  C_2
REMARK    2  A    between atoms: C_6  and  C_7
REMARK    3  A    between atoms: C_14  and  N_15
REMARK    4  A    between atoms: C_16  and  C_17
REMARK    5  A    between atoms: C_23  and  C_25
REMARK                            x       y       z     vdW  Elec       q    Type
REMARK                         _______ _______ _______ _____ _____    ______ ____
ROOT
ATOM      1  C   UNL     1       1.903   3.588  19.723  0.00  0.00    +0.000 A 
ATOM      2  N   UNL     1       2.016   2.288  19.396  0.00  0.00    +0.000 NA
ATOM      3  C   UNL     1       3.102   1.934  18.688  0.00  0.00    +0.000 A 
ATOM      4  C   UNL     1       4.100   2.818  18.319  0.00  0.00    +0.000 A 
ATOM      5  C   UNL     1       4.004   4.184  18.656  0.00  0.00    +0.000 A 
ATOM      6  C   UNL     1       2.852   4.593  19.387  0.00  0.00    +0.000 A 
ENDROOT
BRANCH   5   7
ATOM      7  C   UNL     1       5.100   5.109  18.230  0.00  0.00    +0.000 A 
ATOM      8  C   UNL     1       6.247   5.303  19.033  0.00  0.00    +0.000 A 
ATOM      9  C   UNL     1       7.272   6.180  18.660  0.00  0.00    +0.000 A 
ATOM     10  C   UNL     1       7.178   6.868  17.461  0.00  0.00    +0.000 A 
ATOM     11  F   UNL     1       8.167   7.691  17.090  0.00  0.00    +0.000 F 
ATOM     12  C   UNL     1       6.069   6.713  16.645  0.00  0.00    +0.000 A 
ATOM     13  C   UNL     1       5.033   5.857  17.038  0.00  0.00    +0.000 A 
ENDBRANCH   5   7
BRANCH   1  14
ATOM     14  N   UNL     1       0.747   3.888  20.458  0.00  0.00    +0.000 N 
ATOM     15  H   UNL     1       0.014   3.284  20.089  0.00  0.00    +0.000 HD
ATOM     16  H   UNL     1       0.532   4.873  20.351  0.00  0.00    +0.000 HD
ENDBRANCH   1  14
BRANCH   6  17
ATOM     17  N   UNL     1       2.622   5.973  19.673  0.00  0.00    +0.000 NA
ATOM     18  C   UNL     1       2.266   6.744  18.697  0.00  0.00    +0.000 C 
BRANCH  18  19
ATOM     19  C   UNL     1       1.900   8.164  18.913  0.00  0.00    +0.000 A 
ATOM     20  C   UNL     1       2.246   9.080  17.927  0.00  0.00    +0.000 A 
ATOM     21  C   UNL     1       1.842  10.386  18.107  0.00  0.00    +0.000 A 
ATOM     22  N   UNL     1       1.159  10.805  19.187  0.00  0.00    +0.000 NA
ATOM     23  C   UNL     1       0.840   9.921  20.147  0.00  0.00    +0.000 A 
ATOM     24  N   UNL     1       0.139  10.348  21.289  0.00  0.00    +0.000 N 
ATOM     25  C   UNL     1      -0.242  11.652  21.526  0.00  0.00    +0.000 C 
ATOM     26  O   UNL     1      -0.042  12.626  20.808  0.00  0.00    +0.000 OA
ATOM     27  C   UNL     1       1.187   8.577  20.043  0.00  0.00    +0.000 A 
ATOM     28  H   UNL     1      -0.071   9.653  21.986  0.00  0.00    +0.000 HD
BRANCH  25  29
ATOM     29  C   UNL     1      -0.963  11.915  22.809  0.00  0.00    +0.000 C 
ATOM     30  C   UNL     1      -1.501  13.238  23.288  0.00  0.00    +0.000 C 
ATOM     31  C   UNL     1      -2.451  12.187  22.791  0.00  0.00    +0.000 C 
ENDBRANCH  25  29
ENDBRANCH  18  19
ENDBRANCH   6  17
TORSDOF 5
ENDMDL
MODEL 3
REMARK VINA RESULT:      -8.9      1.356      1.653
REMARK  Name = 
REMARK  5 active torsions:
REMARK  status: ('A' for Active; 'I' for Inactive)
REMARK    1  A    between atoms: N_1  and  C_2
REMARK    2  A    between atoms: C_6  and  C_7
REMARK    3  A    between atoms: C_14  and  N_15
REMARK    4  A    between atoms: C_16  and  C_17
REMARK    5  A    between atoms: C_23  and  C_25
REMARK                            x       y       z     vdW  Elec       q    Type
REMARK                         _______ _______ _______ _____ _____    ______ ____
ROOT
ATOM      1  C   UNL     1       5.074   5.908  16.166  0.00  0.00    +0.000 A 
ATOM      2  N   UNL     1       5.655   4.966  15.402  0.00  0.00    +0.000 NA
ATOM      3  C   UNL     1       5.431   3.685  15.746  0.00  0.00    +0.000 A 
ATOM      4  C   UNL     1       4.624   3.303  16.802  0.00  0.00    +0.000 A 
ATOM      5  C   UNL     1       4.001   4.275  17.612  0.00  0.00    +0.000 A 
ATOM      6  C   UNL     1       4.238   5.641  17.286  0.00  0.00    +0.000 A 
ENDROOT
BRANCH   5   7
ATOM      7  C   UNL     1       3.144   3.820  18.750  0.00  0.00    +0.000 A 
ATOM      8  C   UNL     1       3.717   3.328  19.946  0.00  0.00    +0.000 A 
ATOM      9  C   UNL     1       2.930   2.877  21.012  0.00  0.00    +0.000 A 
ATOM     10  C   UNL     1       1.549   2.929  20.910  0.00  0.00    +0.000 A 
ATOM     11  F   UNL     1       0.794   2.520  21.938  0.00  0.00    +0.000 F 
ATOM     12  C   UNL     1       0.944   3.398  19.756  0.00  0.00    +0.000 A 
ATOM     13  C   UNL     1       1.737   3.819  18.680  0.00  0.00    +0.000 A 
ENDBRANCH   5   7
BRANCH   1  14
ATOM     14  N   UNL     1       5.350   7.219  15.754  0.00  0.00    +0.000 N 
ATOM     15  H   UNL     1       6.344   7.366  15.927  0.00  0.00    +0.000 HD
ATOM     16  H   UNL     1       4.765   7.862  16.276  0.00  0.00    +0.000 HD
ENDBRANCH   1  14
BRANCH   6  17
ATOM     17  N   UNL     1       3.738   6.687  18.119  0.00  0.00    +0.000 NA
ATOM     18  C   UNL     1       2.618   7.244  17.787  0.00  0.00    +0.000 C 
BRANCH  18  19
ATOM     19  C   UNL     1       1.965   8.262  18.644  0.00  0.00    +0.000 A 
ATOM     20  C   UNL     1       1.679   7.915  19.959  0.00  0.00    +0.000 A 
ATOM     21  C   UNL     1       1.134   8.891  20.767  0.00  0.00    +0.000 A 
ATOM     22  N   UNL     1       0.853  10.133  20.335  0.00  0.00    +0.000 NA
ATOM     23  C   UNL     1       1.114  10.462  19.059  0.00  0.00    +0.000 A 
ATOM     24  N   UNL     1       0.811  11.752  18.591  0.00  0.00    +0.000 N 
ATOM     25  C   UNL     1       0.224  12.740  19.355  0.00  0.00    +0.000 C 
ATOM     26  O   UNL     1      -0.121  12.663  20.528  0.00  0.00    +0.000 OA
ATOM     27  C   UNL     1       1.684   9.549  18.175  0.00  0.00    +0.000 A 
ATOM     28  H   UNL     1       1.016  11.951  17.625  0.00  0.00    +0.000 HD
BRANCH  25  29
ATOM     29  C   UNL     1      -0.040  14.044  18.672  0.00  0.00    +0.000 C 
ATOM     30  C   UNL     1      -0.504  15.323  19.319  0.00  0.00    +0.000 C 
ATOM     31  C   UNL     1       0.921  15.196  18.862  0.00  0.00    +0.000 C 
ENDBRANCH  25  29
ENDBRANCH  18  19
ENDBRANCH   6  17
TORSDOF 5
ENDMDL
MODEL 4
REMARK VINA RESULT:      -8.8      1.543      2.018
REMARK  Name = 
REMARK  5 active torsions:
REMARK  status: ('A' for Active; 'I' for Inactive)
REMARK    1  A    between atoms: N_1  and  C_2
REMARK    2  A    between atoms: C_6  and  C_7
REMARK    3  A    between atoms: C_14  and  N_15
REMARK    4  A    between atoms: C_16  and  C_17
REMARK    5  A    between atoms: C_23  and  C_25
REMARK                            x       y       z     vdW  Elec       q    Type
REMARK                         _______ _______ _______ _____ _____    ______ ____
ROOT
ATOM      1  C   UNL     1       6.429   6.546  16.960  0.00  0.00    +0.000 A 
ATOM      2  N   UNL     1       7.393   5.858  16.322  0.00  0.00    +0.000 NA
ATOM      3  C   UNL     1       7.181   4.542  16.146  0.00  0.00    +0.000 A 
ATOM      4  C   UNL     1       6.032   3.888  16.550  0.00  0.00    +0.000 A 
ATOM      5  C   UNL     1       5.006   4.592  17.215  0.00  0.00    +0.000 A 
ATOM      6  C   UNL     1       5.213   5.983  17.437  0.00  0.00    +0.000 A 
ENDROOT
BRANCH   5   7
ATOM      7  C   UNL     1       3.784   3.845  17.645  0.00  0.00    +0.000 A 
ATOM      8  C   UNL     1       3.882   2.591  18.289  0.00  0.00    +0.000 A 
ATOM      9  C   UNL     1       2.748   1.867  18.678  0.00  0.00    +0.000 A 
ATOM     10  C   UNL     1       1.490   2.397  18.446  0.00  0.00    +0.000 A 
ATOM     11  F   UNL     1       0.403   1.719  18.837  0.00  0.00    +0.000 F 
ATOM     12  C   UNL     1       1.345   3.620  17.813  0.00  0.00    +0.000 A 
ATOM     13  C   UNL     1       2.483   4.325  17.398  0.00  0.00    +0.000 A 
ENDBRANCH   5   7
BRANCH   1  14
ATOM     14  N   UNL     1       6.715   7.911  17.112  0.00  0.00    +0.000 N 
ATOM     15  H   UNL     1       7.500   7.963  17.759  0.00  0.00    +0.000 HD
ATOM     16  H   UNL     1       5.890   8.386  17.461  0.00  0.00    +0.000 HD
ENDBRANCH   1  14
BRANCH   6  17
ATOM     17  N   UNL     1       4.278   6.747  18.199  0.00  0.00    +0.000 NA
ATOM     18  C   UNL     1       3.361   7.399  17.559  0.00  0.00    +0.000 C 
BRANCH  18  19
ATOM     19  C   UNL     1       2.283   8.131  18.265  0.00  0.00    +0.000 A 
ATOM     20  C   UNL     1       2.299   8.127  19.655  0.00  0.00    +0.000 A 
ATOM     21  C   UNL     1       1.331   8.867  20.300  0.00  0.00    +0.000 A 
ATOM     22  N   UNL     1       0.377   9.560  19.653  0.00  0.00    +0.000 NA
ATOM     23  C   UNL     1       0.354   9.549  18.310  0.00  0.00    +0.000 A 
ATOM     24  N   UNL     1      -0.647  10.256  17.620  0.00  0.00    +0.000 N 
ATOM     25  C   UNL     1      -1.657  10.970  18.231  0.00  0.00    +0.000 C 
ATOM     26  O   UNL     1      -1.849  11.102  19.434  0.00  0.00    +0.000 OA
ATOM     27  C   UNL     1       1.303   8.848  17.571  0.00  0.00    +0.000 A 
ATOM     28  H   UNL     1      -0.631  10.213  16.615  0.00  0.00    +0.000 HD
BRANCH  25  29
ATOM     29  C   UNL     1      -2.642  11.641  17.327  0.00  0.00    +0.000 C 
ATOM     30  C   UNL     1      -3.001  11.234  15.922  0.00  0.00    +0.000 C 
ATOM     31  C   UNL     1      -3.970  10.976  17.040  0.00  0.00    +0.000 C 
ENDBRANCH  25  29
ENDBRANCH  18  19
ENDBRANCH   6  17
TORSDOF 5
ENDMDL
MODEL 5
REMARK VINA RESULT:      -8.6      0.763      1.013
REMARK  Name = 
REMARK  5 active torsions:
REMARK  status: ('A' for Active; 'I' for Inactive)
REMARK    1  A    between atoms: N_1  and  C_2
REMARK    2  A    between atoms: C_6  and  C_7
REMARK    3  A    between atoms: C_14  and  N_15
REMARK    4  A    between atoms: C_16  and  C_17
REMARK    5  A    between atoms: C_23  and  C_25
REMARK                            x       y       z     vdW  Elec       q    Type
REMARK                         _______ _______ _______ _____ _____    ______ ____
ROOT
ATOM      1  C   UNL     1       6.436   6.537  16.844  0.00  0.00    +0.000 A 
ATOM      2  N   UNL     1       7.258   5.697  16.191  0.00  0.00    +0.000 NA
ATOM      3  C   UNL     1       6.901   4.401  16.161  0.00  0.00    +0.000 A 
ATOM      4  C   UNL     1       5.738   3.912  16.728  0.00  0.00    +0.000 A 
ATOM      5  C   UNL     1       4.859   4.776  17.413  0.00  0.00    +0.000 A 
ATOM      6  C   UNL     1       5.223   6.151  17.480  0.00  0.00    +0.000 A 
ENDROOT
BRANCH   5   7
ATOM      7  C   UNL     1       3.617   4.205  18.020  0.00  0.00    +0.000 A 
ATOM      8  C   UNL     1       3.573   3.838  19.385  0.00  0.00    +0.000 A 
ATOM      9  C   UNL     1       2.427   3.280  19.964  0.00  0.00    +0.000 A 
ATOM     10  C   UNL     1       1.292   3.099  19.191  0.00  0.00    +0.000 A 
ATOM     11  F   UNL     1       0.186   2.587  19.748  0.00  0.00    +0.000 F 
ATOM     12  C   UNL     1       1.291   3.438  17.848  0.00  0.00    +0.000 A 
ATOM     13  C   UNL     1       2.451   3.967  17.267  0.00  0.00    +0.000 A 
ENDBRANCH   5   7
BRANCH   1  14
ATOM     14  N   UNL     1       6.868   7.870  16.838  0.00  0.00    +0.000 N 
ATOM     15  H   UNL     1       6.025   8.440  16.870  0.00  0.00    +0.000 HD
ATOM     16  H   UNL     1       7.420   8.037  16.004  0.00  0.00    +0.000 HD
ENDBRANCH   1  14
BRANCH   6  17
ATOM     17  N   UNL     1       4.448   7.073  18.247  0.00  0.00    +0.000 NA
ATOM     18  C   UNL     1       3.309   7.456  17.767  0.00  0.00    +0.000 C 
BRANCH  18  19
ATOM     19  C   UNL     1       2.387   8.325  18.536  0.00  0.00    +0.000 A 
ATOM     20  C   UNL     1       1.869   7.828  19.727  0.00  0.00    +0.000 A 
ATOM     21  C   UNL     1       1.067   8.669  20.468  0.00  0.00    +0.000 A 
ATOM     22  N   UNL     1       0.753   9.918  20.081  0.00  0.00    +0.000 NA
ATOM     23  C   UNL     1       1.240  10.391  18.922  0.00  0.00    +0.000 A 
ATOM     24  N   UNL     1       0.907  11.690  18.499  0.00  0.00    +0.000 N 
ATOM     25  C   UNL     1       0.072  12.543  19.189  0.00  0.00    +0.000 C 
ATOM     26  O   UNL     1      -0.502  12.323  20.250  0.00  0.00    +0.000 OA
ATOM     27  C   UNL     1       2.076   9.622  18.118  0.00  0.00    +0.000 A 
ATOM     28  H   UNL     1       1.288  11.999  17.620  0.00  0.00    +0.000 HD
BRANCH  25  29
ATOM     29  C   UNL     1      -0.179  13.880  18.568  0.00  0.00    +0.000 C 
ATOM     30  C   UNL     1      -0.610  15.138  19.275  0.00  0.00    +0.000 C 
ATOM     31  C   UNL     1       0.805  15.007  18.791  0.00  0.00    +0.000 C 
ENDBRANCH  25  29
ENDBRANCH  18  19
ENDBRANCH   6  17
TORSDOF 5
ENDMDL
MODEL 6
REMARK VINA RESULT:      -8.5      2.878      4.231
REMARK  Name = 
REMARK  5 active torsions:
REMARK  status: ('A' for Active; 'I' for Inactive)
REMARK    1  A    between atoms: N_1  and  C_2
REMARK    2  A    between atoms: C_6  and  C_7
REMARK    3  A    between atoms: C_14  and  N_15
REMARK    4  A    between atoms: C_16  and  C_17
REMARK    5  A    between atoms: C_23  and  C_25
REMARK                            x       y       z     vdW  Elec       q    Type
REMARK                         _______ _______ _______ _____ _____    ______ ____
ROOT
ATOM      1  C   UNL     1       1.849   3.363  19.408  0.00  0.00    +0.000 A 
ATOM      2  N   UNL     1       1.914   2.176  18.779  0.00  0.00    +0.000 NA
ATOM      3  C   UNL     1       2.966   1.978  17.966  0.00  0.00    +0.000 A 
ATOM      4  C   UNL     1       3.976   2.904  17.778  0.00  0.00    +0.000 A 
ATOM      5  C   UNL     1       3.930   4.153  18.432  0.00  0.00    +0.000 A 
ATOM      6  C   UNL     1       2.816   4.399  19.283  0.00  0.00    +0.000 A 
ENDROOT
BRANCH   5   7
ATOM      7  C   UNL     1       5.038   5.130  18.194  0.00  0.00    +0.000 A 
ATOM      8  C   UNL     1       4.940   6.113  17.183  0.00  0.00    +0.000 A 
ATOM      9  C   UNL     1       5.976   7.021  16.931  0.00  0.00    +0.000 A 
ATOM     10  C   UNL     1       7.125   6.975  17.703  0.00  0.00    +0.000 A 
ATOM     11  F   UNL     1       8.108   7.856  17.480  0.00  0.00    +0.000 F 
ATOM     12  C   UNL     1       7.267   6.024  18.700  0.00  0.00    +0.000 A 
ATOM     13  C   UNL     1       6.240   5.099  18.927  0.00  0.00    +0.000 A 
ENDBRANCH   5   7
BRANCH   1  14
ATOM     14  N   UNL     1       0.728   3.503  20.238  0.00  0.00    +0.000 N 
ATOM     15  H   UNL     1       0.266   2.595  20.243  0.00  0.00    +0.000 HD
ATOM     16  H   UNL     1       0.134   4.239  19.873  0.00  0.00    +0.000 HD
ENDBRANCH   1  14
BRANCH   6  17
ATOM     17  N   UNL     1       2.634   5.676  19.896  0.00  0.00    +0.000 NA
ATOM     18  C   UNL     1       1.951   6.568  19.252  0.00  0.00    +0.000 C 
BRANCH  18  19
ATOM     19  C   UNL     1       1.619   7.882  19.850  0.00  0.00    +0.000 A 
ATOM     20  C   UNL     1       1.318   7.920  21.206  0.00  0.00    +0.000 A 
ATOM     21  C   UNL     1       1.076   9.156  21.767  0.00  0.00    +0.000 A 
ATOM     22  N   UNL     1       1.097  10.301  21.063  0.00  0.00    +0.000 NA
ATOM     23  C   UNL     1       1.372  10.262  19.749  0.00  0.00    +0.000 A 
ATOM     24  N   UNL     1       1.382  11.450  18.998  0.00  0.00    +0.000 N 
ATOM     25  C   UNL     1       1.102  12.699  19.513  0.00  0.00    +0.000 C 
ATOM     26  O   UNL     1       0.804  12.975  20.670  0.00  0.00    +0.000 OA
ATOM     27  C   UNL     1       1.650   9.062  19.100  0.00  0.00    +0.000 A 
ATOM     28  H   UNL     1       1.585  11.372  18.015  0.00  0.00    +0.000 HD
BRANCH  25  29
ATOM     29  C   UNL     1       1.144  13.843  18.551  0.00  0.00    +0.000 C 
ATOM     30  C   UNL     1       1.248  15.306  18.893  0.00  0.00    +0.000 C 
ATOM     31  C   UNL     1       2.441  14.589  18.331  0.00  0.00    +0.000 C 
ENDBRANCH  25  29
ENDBRANCH  18  19
ENDBRANCH   6  17
TORSDOF 5
ENDMDL
MODEL 7
REMARK VINA RESULT:      -8.3      4.330      8.657
REMARK  Name = 
REMARK  5 active torsions:
REMARK  status: ('A' for Active; 'I' for Inactive)
REMARK    1  A    between atoms: N_1  and  C_2
REMARK    2  A    between atoms: C_6  and  C_7
REMARK    3  A    between atoms: C_14  and  N_15
REMARK    4  A    between atoms: C_16  and  C_17
REMARK    5  A    between atoms: C_23  and  C_25
REMARK                            x       y       z     vdW  Elec       q    Type
REMARK                         _______ _______ _______ _____ _____    ______ ____
ROOT
ATOM      1  C   UNL     1       3.368   2.619  19.991  0.00  0.00    +0.000 A 
ATOM      2  N   UNL     1       2.908   2.271  21.206  0.00  0.00    +0.000 NA
ATOM      3  C   UNL     1       2.259   3.220  21.902  0.00  0.00    +0.000 A 
ATOM      4  C   UNL     1       2.020   4.496  21.423  0.00  0.00    +0.000 A 
ATOM      5  C   UNL     1       2.488   4.879  20.149  0.00  0.00    +0.000 A 
ATOM      6  C   UNL     1       3.199   3.901  19.398  0.00  0.00    +0.000 A 
ENDROOT
BRANCH   5   7
ATOM      7  C   UNL     1       2.217   6.271  19.673  0.00  0.00    +0.000 A 
ATOM      8  C   UNL     1       2.439   6.640  18.326  0.00  0.00    +0.000 A 
ATOM      9  C   UNL     1       2.212   7.943  17.869  0.00  0.00    +0.000 A 
ATOM     10  C   UNL     1       1.737   8.901  18.749  0.00  0.00    +0.000 A 
ATOM     11  F   UNL     1       1.496  10.143  18.309  0.00  0.00    +0.000 F 
ATOM     12  C   UNL     1       1.510   8.587  20.078  0.00  0.00    +0.000 A 
ATOM     13  C   UNL     1       1.769   7.289  20.537  0.00  0.00    +0.000 A 
ENDBRANCH   5   7
BRANCH   1  14
ATOM     14  N   UNL     1       4.035   1.583  19.321  0.00  0.00    +0.000 N 
ATOM     15  H   UNL     1       3.444   1.332  18.530  0.00  0.00    +0.000 HD
ATOM     16  H   UNL     1       4.177   0.811  19.962  0.00  0.00    +0.000 HD
ENDBRANCH   1  14
BRANCH   6  17
ATOM     17  N   UNL     1       3.803   4.238  18.149  0.00  0.00    +0.000 NA
ATOM     18  C   UNL     1       5.046   4.601  18.152  0.00  0.00    +0.000 C 
BRANCH  18  19
ATOM     19  C   UNL     1       5.788   4.865  16.898  0.00  0.00    +0.000 A 
ATOM     20  C   UNL     1       6.696   5.918  16.891  0.00  0.00    +0.000 A 
ATOM     21  C   UNL     1       7.430   6.113  15.741  0.00  0.00    +0.000 A 
ATOM     22  N   UNL     1       7.291   5.355  14.639  0.00  0.00    +0.000 NA
ATOM     23  C   UNL     1       6.402   4.347  14.642  0.00  0.00    +0.000 A 
ATOM     24  N   UNL     1       6.235   3.556  13.491  0.00  0.00    +0.000 N 
ATOM     25  C   UNL     1       6.918   3.748  12.308  0.00  0.00    +0.000 C 
ATOM     26  O   UNL     1       7.755   4.611  12.066  0.00  0.00    +0.000 OA
ATOM     27  C   UNL     1       5.631   4.061  15.764  0.00  0.00    +0.000 A 
ATOM     28  H   UNL     1       5.552   2.818  13.536  0.00  0.00    +0.000 HD
BRANCH  25  29
ATOM     29  C   UNL     1       6.589   2.815  11.188  0.00  0.00    +0.000 C 
ATOM     30  C   UNL     1       7.046   1.387  11.039  0.00  0.00    +0.000 C 
ATOM     31  C   UNL     1       5.622   1.675  11.421  0.00  0.00    +0.000 C 
ENDBRANCH  25  29
ENDBRANCH  18  19
ENDBRANCH   6  17
TORSDOF 5
ENDMDL
MODEL 8
REMARK VINA RESULT:      -8.3      2.399      2.670
REMARK  Name = 
REMARK  5 active torsions:
REMARK  status: ('A' for Active; 'I' for Inactive)
REMARK    1  A    between atoms: N_1  and  C_2
REMARK    2  A    between atoms: C_6  and  C_7
REMARK    3  A    between atoms: C_14  and  N_15
REMARK    4  A    between atoms: C_16  and  C_17
REMARK    5  A    between atoms: C_23  and  C_25
REMARK                            x       y       z     vdW  Elec       q    Type
REMARK                         _______ _______ _______ _____ _____    ______ ____
ROOT
ATOM      1  C   UNL     1       5.005   6.160  16.495  0.00  0.00    +0.000 A 
ATOM      2  N   UNL     1       6.159   5.504  16.277  0.00  0.00    +0.000 NA
ATOM      3  C   UNL     1       6.374   4.397  17.008  0.00  0.00    +0.000 A 
ATOM      4  C   UNL     1       5.469   3.896  17.927  0.00  0.00    +0.000 A 
ATOM      5  C   UNL     1       4.251   4.565  18.167  0.00  0.00    +0.000 A 
ATOM      6  C   UNL     1       4.007   5.754  17.423  0.00  0.00    +0.000 A 
ENDROOT
BRANCH   5   7
ATOM      7  C   UNL     1       3.305   3.995  19.176  0.00  0.00    +0.000 A 
ATOM      8  C   UNL     1       3.202   4.545  20.474  0.00  0.00    +0.000 A 
ATOM      9  C   UNL     1       2.339   4.011  21.438  0.00  0.00    +0.000 A 
ATOM     10  C   UNL     1       1.544   2.924  21.113  0.00  0.00    +0.000 A 
ATOM     11  F   UNL     1       0.700   2.425  22.025  0.00  0.00    +0.000 F 
ATOM     12  C   UNL     1       1.615   2.349  19.855  0.00  0.00    +0.000 A 
ATOM     13  C   UNL     1       2.504   2.869  18.905  0.00  0.00    +0.000 A 
ENDBRANCH   5   7
BRANCH   1  14
ATOM     14  N   UNL     1       4.847   7.305  15.702  0.00  0.00    +0.000 N 
ATOM     15  H   UNL     1       4.017   7.779  16.054  0.00  0.00    +0.000 HD
ATOM     16  H   UNL     1       4.755   7.027  14.731  0.00  0.00    +0.000 HD
ENDBRANCH   1  14
BRANCH   6  17
ATOM     17  N   UNL     1       2.851   6.552  17.683  0.00  0.00    +0.000 NA
ATOM     18  C   UNL     1       2.902   7.393  18.666  0.00  0.00    +0.000 C 
BRANCH  18  19
ATOM     19  C   UNL     1       1.796   8.338  18.947  0.00  0.00    +0.000 A 
ATOM     20  C   UNL     1       1.645   8.790  20.253  0.00  0.00    +0.000 A 
ATOM     21  C   UNL     1       0.656   9.720  20.489  0.00  0.00    +0.000 A 
ATOM     22  N   UNL     1      -0.166  10.183  19.531  0.00  0.00    +0.000 NA
ATOM     23  C   UNL     1      -0.029   9.733  18.272  0.00  0.00    +0.000 A 
ATOM     24  N   UNL     1      -0.892  10.197  17.264  0.00  0.00    +0.000 N 
ATOM     25  C   UNL     1      -1.920  11.093  17.470  0.00  0.00    +0.000 C 
ATOM     26  O   UNL     1      -2.247  11.617  18.529  0.00  0.00    +0.000 OA
ATOM     27  C   UNL     1       0.955   8.809  17.934  0.00  0.00    +0.000 A 
ATOM     28  H   UNL     1      -0.757   9.827  16.337  0.00  0.00    +0.000 HD
BRANCH  25  29
ATOM     29  C   UNL     1      -2.744  11.452  16.275  0.00  0.00    +0.000 C 
ATOM     30  C   UNL     1      -3.069  10.563  15.102  0.00  0.00    +0.000 C 
ATOM     31  C   UNL     1      -4.131  10.870  16.118  0.00  0.00    +0.000 C 
ENDBRANCH  25  29
ENDBRANCH  18  19
ENDBRANCH   6  17
TORSDOF 5
ENDMDL
MODEL 9
REMARK VINA RESULT:      -8.2      1.504      1.695
REMARK  Name = 
REMARK  5 active torsions:
REMARK  status: ('A' for Active; 'I' for Inactive)
REMARK    1  A    between atoms: N_1  and  C_2
REMARK    2  A    between atoms: C_6  and  C_7
REMARK    3  A    between atoms: C_14  and  N_15
REMARK    4  A    between atoms: C_16  and  C_17
REMARK    5  A    between atoms: C_23  and  C_25
REMARK                            x       y       z     vdW  Elec       q    Type
REMARK                         _______ _______ _______ _____ _____    ______ ____
ROOT
ATOM      1  C   UNL     1       4.924   6.010  16.381  0.00  0.00    +0.000 A 
ATOM      2  N   UNL     1       5.443   5.112  15.526  0.00  0.00    +0.000 NA
ATOM      3  C   UNL     1       5.198   3.816  15.786  0.00  0.00    +0.000 A 
ATOM      4  C   UNL     1       4.427   3.378  16.848  0.00  0.00    +0.000 A 
ATOM      5  C   UNL     1       3.868   4.304  17.754  0.00  0.00    +0.000 A 
ATOM      6  C   UNL     1       4.131   5.683  17.516  0.00  0.00    +0.000 A 
ENDROOT
BRANCH   5   7
ATOM      7  C   UNL     1       3.049   3.788  18.895  0.00  0.00    +0.000 A 
ATOM      8  C   UNL     1       1.638   3.746  18.821  0.00  0.00    +0.000 A 
ATOM      9  C   UNL     1       0.855   3.288  19.888  0.00  0.00    +0.000 A 
ATOM     10  C   UNL     1       1.473   2.842  21.044  0.00  0.00    +0.000 A 
ATOM     11  F   UNL     1       0.728   2.381  22.057  0.00  0.00    +0.000 F 
ATOM     12  C   UNL     1       2.853   2.870  21.163  0.00  0.00    +0.000 A 
ATOM     13  C   UNL     1       3.629   3.359  20.104  0.00  0.00    +0.000 A 
ENDBRANCH   5   7
BRANCH   1  14
ATOM     14  N   UNL     1       5.219   7.341  16.052  0.00  0.00    +0.000 N 
ATOM     15  H   UNL     1       4.325   7.787  15.856  0.00  0.00    +0.000 HD
ATOM     16  H   UNL     1       5.845   7.354  15.255  0.00  0.00    +0.000 HD
ENDBRANCH   1  14
BRANCH   6  17
ATOM     17  N   UNL     1       3.698   6.678  18.444  0.00  0.00    +0.000 NA
ATOM     18  C   UNL     1       2.477   7.099  18.358  0.00  0.00    +0.000 C 
BRANCH  18  19
ATOM     19  C   UNL     1       1.904   8.048  19.341  0.00  0.00    +0.000 A 
ATOM     20  C   UNL     1       1.675   7.586  20.632  0.00  0.00    +0.000 A 
ATOM     21  C   UNL     1       1.206   8.495  21.556  0.00  0.00    +0.000 A 
ATOM     22  N   UNL     1       0.945   9.780  21.259  0.00  0.00    +0.000 NA
ATOM     23  C   UNL     1       1.152  10.222  20.007  0.00  0.00    +0.000 A 
ATOM     24  N   UNL     1       0.869  11.560  19.680  0.00  0.00    +0.000 N 
ATOM     25  C   UNL     1       0.356  12.486  20.564  0.00  0.00    +0.000 C 
ATOM     26  O   UNL     1       0.070  12.308  21.743  0.00  0.00    +0.000 OA
ATOM     27  C   UNL     1       1.644   9.382  19.012  0.00  0.00    +0.000 A 
ATOM     28  H   UNL     1       1.031  11.844  18.728  0.00  0.00    +0.000 HD
BRANCH  25  29
ATOM     29  C   UNL     1       0.103  13.857  20.023  0.00  0.00    +0.000 C 
ATOM     30  C   UNL     1       1.005  14.650  19.114  0.00  0.00    +0.000 C 
ATOM     31  C   UNL     1      -0.248  14.033  18.562  0.00  0.00    +0.000 C 
ENDBRANCH  25  29
ENDBRANCH  18  19
ENDBRANCH   6  17
TORSDOF 5
ENDMDL
