MODEL 1
REMARK VINA RESULT:      -7.6      0.000      0.000
REMARK  Name = 
REMARK  11 active torsions:
REMARK  status: ('A' for Active; 'I' for Inactive)
REMARK    1  A    between atoms: C_1  and  O_2
REMARK    2  A    between atoms: O_2  and  C_3
REMARK    3  A    between atoms: C_3  and  C_5
REMARK    4  A    between atoms: C_13  and  C_14
REMARK    5  A    between atoms: C_14  and  C_15
REMARK    6  A    between atoms: C_17  and  O_18
REMARK    7  A    between atoms: O_18  and  C_19
REMARK    8  A    between atoms: C_20  and  O_21
REMARK    9  A    between atoms: O_21  and  C_22
REMARK   10  A    between atoms: C_23  and  O_24
REMARK   11  A    between atoms: O_24  and  C_25
REMARK                            x       y       z     vdW  Elec       q    Type
REMARK                         _______ _______ _______ _____ _____    ______ ____
ROOT
ATOM      1  C   UNL     1       3.065   4.372  19.598  0.00  0.00    +0.000 A 
ATOM      2  N   UNL     1       2.728   5.437  20.396  0.00  0.00    +0.000 N 
ATOM      3  C   UNL     1       2.449   6.549  19.643  0.00  0.00    +0.000 A 
ATOM      4  C   UNL     1       2.103   7.841  20.063  0.00  0.00    +0.000 A 
ATOM      5  C   UNL     1       1.853   8.803  19.083  0.00  0.00    +0.000 A 
ATOM      6  C   UNL     1       1.925   8.476  17.736  0.00  0.00    +0.000 A 
ATOM      7  C   UNL     1       2.273   7.179  17.338  0.00  0.00    +0.000 A 
ATOM      8  C   UNL     1       2.565   6.183  18.299  0.00  0.00    +0.000 A 
ATOM      9  C   UNL     1       2.993   4.802  18.267  0.00  0.00    +0.000 A 
ATOM     10  H   UNL     1       2.703   5.402  21.405  0.00  0.00    +0.000 HD
ENDROOT
BRANCH   1  11
ATOM     11  C   UNL     1       3.433   3.061  20.098  0.00  0.00    +0.000 C 
ATOM     12  O   UNL     1       4.570   2.641  20.229  0.00  0.00    +0.000 OA
BRANCH  11  14
ATOM     13  C   UNL     1       1.860   2.524  21.733  0.00  0.00    +0.000 C 
ATOM     14  O   UNL     1       2.308   2.341  20.388  0.00  0.00    +0.000 OA
ENDBRANCH  11  14
ENDBRANCH   1  11
BRANCH   9  15
ATOM     15  C   UNL     1       3.344   3.871  17.136  0.00  0.00    +0.000 C 
BRANCH  15  16
ATOM     16  C   UNL     1       4.561   4.315  16.384  0.00  0.00    +0.000 A 
ATOM     17  C   UNL     1       5.416   5.271  16.938  0.00  0.00    +0.000 A 
ATOM     18  C   UNL     1       6.599   5.633  16.289  0.00  0.00    +0.000 A 
ATOM     19  C   UNL     1       6.924   5.053  15.042  0.00  0.00    +0.000 A 
ATOM     20  C   UNL     1       6.049   4.110  14.459  0.00  0.00    +0.000 A 
ATOM     21  C   UNL     1       4.881   3.749  15.144  0.00  0.00    +0.000 A 
BRANCH  18  22
ATOM     22  O   UNL     1       7.479   6.554  16.810  0.00  0.00    +0.000 OA
ATOM     23  C   UNL     1       7.622   6.541  18.228  0.00  0.00    +0.000 C 
ENDBRANCH  18  22
BRANCH  19  24
ATOM     24  O   UNL     1       8.077   5.527  14.455  0.00  0.00    +0.000 OA
ATOM     25  C   UNL     1       8.051   5.692  13.042  0.00  0.00    +0.000 C 
ENDBRANCH  19  24
BRANCH  20  26
ATOM     26  O   UNL     1       6.369   3.599  13.228  0.00  0.00    +0.000 OA
ATOM     27  C   UNL     1       5.310   3.323  12.321  0.00  0.00    +0.000 C 
ENDBRANCH  20  26
ENDBRANCH  15  16
ENDBRANCH   9  15
TORSDOF 7
ENDMDL
MODEL 2
REMARK VINA RESULT:      -7.6      2.366      6.651
REMARK  Name = 
REMARK  11 active torsions:
REMARK  status: ('A' for Active; 'I' for Inactive)
REMARK    1  A    between atoms: C_1  and  O_2
REMARK    2  A    between atoms: O_2  and  C_3
REMARK    3  A    between atoms: C_3  and  C_5
REMARK    4  A    between atoms: C_13  and  C_14
REMARK    5  A    between atoms: C_14  and  C_15
REMARK    6  A    between atoms: C_17  and  O_18
REMARK    7  A    between atoms: O_18  and  C_19
REMARK    8  A    between atoms: C_20  and  O_21
REMARK    9  A    between atoms: O_21  and  C_22
REMARK   10  A    between atoms: C_23  and  O_24
REMARK   11  A    between atoms: O_24  and  C_25
REMARK                            x       y       z     vdW  Elec       q    Type
REMARK                         _______ _______ _______ _____ _____    ______ ____
ROOT
ATOM      1  C   UNL     1       6.874   6.170  16.412  0.00  0.00    +0.000 A 
ATOM      2  N   UNL     1       7.656   5.429  15.562  0.00  0.00    +0.000 N 
ATOM      3  C   UNL     1       6.894   4.799  14.612  0.00  0.00    +0.000 A 
ATOM      4  C   UNL     1       7.293   3.928  13.588  0.00  0.00    +0.000 A 
ATOM      5  C   UNL     1       6.309   3.427  12.734  0.00  0.00    +0.000 A 
ATOM      6  C   UNL     1       4.982   3.802  12.887  0.00  0.00    +0.000 A 
ATOM      7  C   UNL     1       4.604   4.674  13.916  0.00  0.00    +0.000 A 
ATOM      8  C   UNL     1       5.566   5.180  14.823  0.00  0.00    +0.000 A 
ATOM      9  C   UNL     1       5.545   6.027  15.994  0.00  0.00    +0.000 A 
ATOM     10  H   UNL     1       8.661   5.354  15.639  0.00  0.00    +0.000 HD
ENDROOT
BRANCH   1  11
ATOM     11  C   UNL     1       7.384   6.936  17.533  0.00  0.00    +0.000 C 
ATOM     12  O   UNL     1       7.568   6.510  18.662  0.00  0.00    +0.000 OA
BRANCH  11  14
ATOM     13  C   UNL     1       8.291   8.993  18.147  0.00  0.00    +0.000 C 
ATOM     14  O   UNL     1       7.613   8.227  17.149  0.00  0.00    +0.000 OA
ENDBRANCH  11  14
ENDBRANCH   1  11
BRANCH   9  15
ATOM     15  C   UNL     1       4.423   6.692  16.749  0.00  0.00    +0.000 C 
BRANCH  15  16
ATOM     16  C   UNL     1       3.943   5.869  17.905  0.00  0.00    +0.000 A 
ATOM     17  C   UNL     1       3.059   6.419  18.836  0.00  0.00    +0.000 A 
ATOM     18  C   UNL     1       2.535   5.640  19.871  0.00  0.00    +0.000 A 
ATOM     19  C   UNL     1       2.925   4.288  20.000  0.00  0.00    +0.000 A 
ATOM     20  C   UNL     1       3.844   3.733  19.083  0.00  0.00    +0.000 A 
ATOM     21  C   UNL     1       4.335   4.532  18.042  0.00  0.00    +0.000 A 
BRANCH  18  22
ATOM     22  O   UNL     1       1.645   6.137  20.796  0.00  0.00    +0.000 OA
ATOM     23  C   UNL     1       1.556   7.557  20.869  0.00  0.00    +0.000 C 
ENDBRANCH  18  22
BRANCH  19  24
ATOM     24  O   UNL     1       2.403   3.627  21.092  0.00  0.00    +0.000 OA
ATOM     25  C   UNL     1       1.265   2.809  20.855  0.00  0.00    +0.000 C 
ENDBRANCH  19  24
BRANCH  20  26
ATOM     26  O   UNL     1       4.237   2.432  19.262  0.00  0.00    +0.000 OA
ATOM     27  C   UNL     1       3.669   1.438  18.419  0.00  0.00    +0.000 C 
ENDBRANCH  20  26
ENDBRANCH  15  16
ENDBRANCH   9  15
TORSDOF 7
ENDMDL
MODEL 3
REMARK VINA RESULT:      -7.4      2.330      6.920
REMARK  Name = 
REMARK  11 active torsions:
REMARK  status: ('A' for Active; 'I' for Inactive)
REMARK    1  A    between atoms: C_1  and  O_2
REMARK    2  A    between atoms: O_2  and  C_3
REMARK    3  A    between atoms: C_3  and  C_5
REMARK    4  A    between atoms: C_13  and  C_14
REMARK    5  A    between atoms: C_14  and  C_15
REMARK    6  A    between atoms: C_17  and  O_18
REMARK    7  A    between atoms: O_18  and  C_19
REMARK    8  A    between atoms: C_20  and  O_21
REMARK    9  A    between atoms: O_21  and  C_22
REMARK   10  A    between atoms: C_23  and  O_24
REMARK   11  A    between atoms: O_24  and  C_25
REMARK                            x       y       z     vdW  Elec       q    Type
REMARK                         _______ _______ _______ _____ _____    ______ ____
ROOT
ATOM      1  C   UNL     1       6.887   6.079  16.311  0.00  0.00    +0.000 A 
ATOM      2  N   UNL     1       7.656   5.325  15.461  0.00  0.00    +0.000 N 
ATOM      3  C   UNL     1       6.885   4.721  14.501  0.00  0.00    +0.000 A 
ATOM      4  C   UNL     1       7.269   3.846  13.475  0.00  0.00    +0.000 A 
ATOM      5  C   UNL     1       6.279   3.376  12.611  0.00  0.00    +0.000 A 
ATOM      6  C   UNL     1       4.960   3.784  12.756  0.00  0.00    +0.000 A 
ATOM      7  C   UNL     1       4.598   4.658  13.789  0.00  0.00    +0.000 A 
ATOM      8  C   UNL     1       5.566   5.133  14.706  0.00  0.00    +0.000 A 
ATOM      9  C   UNL     1       5.558   5.973  15.882  0.00  0.00    +0.000 A 
ATOM     10  H   UNL     1       8.658   5.223  15.545  0.00  0.00    +0.000 HD
ENDROOT
BRANCH   1  11
ATOM     11  C   UNL     1       7.408   6.825  17.440  0.00  0.00    +0.000 C 
ATOM     12  O   UNL     1       7.484   6.418  18.588  0.00  0.00    +0.000 OA
BRANCH  11  14
ATOM     13  C   UNL     1       8.198   8.908  18.124  0.00  0.00    +0.000 C 
ATOM     14  O   UNL     1       7.790   8.074  17.038  0.00  0.00    +0.000 OA
ENDBRANCH  11  14
ENDBRANCH   1  11
BRANCH   9  15
ATOM     15  C   UNL     1       4.449   6.662  16.634  0.00  0.00    +0.000 C 
BRANCH  15  16
ATOM     16  C   UNL     1       3.921   5.833  17.765  0.00  0.00    +0.000 A 
ATOM     17  C   UNL     1       4.303   4.495  17.889  0.00  0.00    +0.000 A 
ATOM     18  C   UNL     1       3.888   3.732  18.984  0.00  0.00    +0.000 A 
ATOM     19  C   UNL     1       3.047   4.307  19.963  0.00  0.00    +0.000 A 
ATOM     20  C   UNL     1       2.630   5.649  19.829  0.00  0.00    +0.000 A 
ATOM     21  C   UNL     1       3.080   6.396  18.732  0.00  0.00    +0.000 A 
BRANCH  18  22
ATOM     22  O   UNL     1       4.259   2.417  19.155  0.00  0.00    +0.000 OA
ATOM     23  C   UNL     1       3.596   1.473  18.319  0.00  0.00    +0.000 C 
ENDBRANCH  18  22
BRANCH  19  24
ATOM     24  O   UNL     1       2.642   3.451  20.965  0.00  0.00    +0.000 OA
ATOM     25  C   UNL     1       1.311   2.956  20.880  0.00  0.00    +0.000 C 
ENDBRANCH  19  24
BRANCH  20  26
ATOM     26  O   UNL     1       1.778   6.163  20.772  0.00  0.00    +0.000 OA
ATOM     27  C   UNL     1       1.533   7.563  20.760  0.00  0.00    +0.000 C 
ENDBRANCH  20  26
ENDBRANCH  15  16
ENDBRANCH   9  15
TORSDOF 7
ENDMDL
MODEL 4
REMARK VINA RESULT:      -7.4      2.829      6.790
REMARK  Name = 
REMARK  11 active torsions:
REMARK  status: ('A' for Active; 'I' for Inactive)
REMARK    1  A    between atoms: C_1  and  O_2
REMARK    2  A    between atoms: O_2  and  C_3
REMARK    3  A    between atoms: C_3  and  C_5
REMARK    4  A    between atoms: C_13  and  C_14
REMARK    5  A    between atoms: C_14  and  C_15
REMARK    6  A    between atoms: C_17  and  O_18
REMARK    7  A    between atoms: O_18  and  C_19
REMARK    8  A    between atoms: C_20  and  O_21
REMARK    9  A    between atoms: O_21  and  C_22
REMARK   10  A    between atoms: C_23  and  O_24
REMARK   11  A    between atoms: O_24  and  C_25
REMARK                            x       y       z     vdW  Elec       q    Type
REMARK                         _______ _______ _______ _____ _____    ______ ____
ROOT
ATOM      1  C   UNL     1       5.675   5.159  17.091  0.00  0.00    +0.000 A 
ATOM      2  N   UNL     1       5.628   3.819  17.385  0.00  0.00    +0.000 N 
ATOM      3  C   UNL     1       4.342   3.411  17.626  0.00  0.00    +0.000 A 
ATOM      4  C   UNL     1       3.867   2.143  17.993  0.00  0.00    +0.000 A 
ATOM      5  C   UNL     1       2.491   1.986  18.167  0.00  0.00    +0.000 A 
ATOM      6  C   UNL     1       1.624   3.050  17.961  0.00  0.00    +0.000 A 
ATOM      7  C   UNL     1       2.120   4.308  17.595  0.00  0.00    +0.000 A 
ATOM      8  C   UNL     1       3.511   4.518  17.439  0.00  0.00    +0.000 A 
ATOM      9  C   UNL     1       4.362   5.645  17.131  0.00  0.00    +0.000 A 
ATOM     10  H   UNL     1       6.442   3.220  17.427  0.00  0.00    +0.000 HD
ENDROOT
BRANCH   1  11
ATOM     11  C   UNL     1       6.895   5.891  16.807  0.00  0.00    +0.000 C 
ATOM     12  O   UNL     1       7.464   5.936  15.730  0.00  0.00    +0.000 OA
BRANCH  11  14
ATOM     13  C   UNL     1       7.740   7.868  17.709  0.00  0.00    +0.000 C 
ATOM     14  O   UNL     1       7.336   6.516  17.940  0.00  0.00    +0.000 OA
ENDBRANCH  11  14
ENDBRANCH   1  11
BRANCH   9  15
ATOM     15  C   UNL     1       4.073   7.104  16.888  0.00  0.00    +0.000 C 
BRANCH  15  16
ATOM     16  C   UNL     1       3.136   7.680  17.904  0.00  0.00    +0.000 A 
ATOM     17  C   UNL     1       2.606   8.960  17.721  0.00  0.00    +0.000 A 
ATOM     18  C   UNL     1       1.665   9.478  18.615  0.00  0.00    +0.000 A 
ATOM     19  C   UNL     1       1.265   8.715  19.736  0.00  0.00    +0.000 A 
ATOM     20  C   UNL     1       1.820   7.434  19.946  0.00  0.00    +0.000 A 
ATOM     21  C   UNL     1       2.744   6.931  19.020  0.00  0.00    +0.000 A 
BRANCH  18  22
ATOM     22  O   UNL     1       1.103  10.725  18.460  0.00  0.00    +0.000 OA
ATOM     23  C   UNL     1       2.022  11.806  18.328  0.00  0.00    +0.000 C 
ENDBRANCH  18  22
BRANCH  19  24
ATOM     24  O   UNL     1       0.385   9.344  20.590  0.00  0.00    +0.000 OA
ATOM     25  C   UNL     1       0.937   9.900  21.777  0.00  0.00    +0.000 C 
ENDBRANCH  19  24
BRANCH  20  26
ATOM     26  O   UNL     1       1.445   6.739  21.066  0.00  0.00    +0.000 OA
ATOM     27  C   UNL     1       1.670   5.335  21.090  0.00  0.00    +0.000 C 
ENDBRANCH  20  26
ENDBRANCH  15  16
ENDBRANCH   9  15
TORSDOF 7
ENDMDL
MODEL 5
REMARK VINA RESULT:      -7.3      2.787      6.813
REMARK  Name = 
REMARK  11 active torsions:
REMARK  status: ('A' for Active; 'I' for Inactive)
REMARK    1  A    between atoms: C_1  and  O_2
REMARK    2  A    between atoms: O_2  and  C_3
REMARK    3  A    between atoms: C_3  and  C_5
REMARK    4  A    between atoms: C_13  and  C_14
REMARK    5  A    between atoms: C_14  and  C_15
REMARK    6  A    between atoms: C_17  and  O_18
REMARK    7  A    between atoms: O_18  and  C_19
REMARK    8  A    between atoms: C_20  and  O_21
REMARK    9  A    between atoms: O_21  and  C_22
REMARK   10  A    between atoms: C_23  and  O_24
REMARK   11  A    between atoms: O_24  and  C_25
REMARK                            x       y       z     vdW  Elec       q    Type
REMARK                         _______ _______ _______ _____ _____    ______ ____
ROOT
ATOM      1  C   UNL     1       5.621   5.157  17.024  0.00  0.00    +0.000 A 
ATOM      2  N   UNL     1       5.611   3.805  17.261  0.00  0.00    +0.000 N 
ATOM      3  C   UNL     1       4.342   3.358  17.523  0.00  0.00    +0.000 A 
ATOM      4  C   UNL     1       3.904   2.066  17.848  0.00  0.00    +0.000 A 
ATOM      5  C   UNL     1       2.539   1.870  18.057  0.00  0.00    +0.000 A 
ATOM      6  C   UNL     1       1.644   2.923  17.923  0.00  0.00    +0.000 A 
ATOM      7  C   UNL     1       2.102   4.206  17.598  0.00  0.00    +0.000 A 
ATOM      8  C   UNL     1       3.482   4.454  17.409  0.00  0.00    +0.000 A 
ATOM      9  C   UNL     1       4.300   5.612  17.125  0.00  0.00    +0.000 A 
ATOM     10  H   UNL     1       6.438   3.223  17.252  0.00  0.00    +0.000 HD
ENDROOT
BRANCH   1  11
ATOM     11  C   UNL     1       6.815   5.928  16.737  0.00  0.00    +0.000 C 
ATOM     12  O   UNL     1       7.475   5.864  15.713  0.00  0.00    +0.000 OA
BRANCH  11  14
ATOM     13  C   UNL     1       7.742   6.029  18.873  0.00  0.00    +0.000 C 
ATOM     14  O   UNL     1       7.116   6.733  17.798  0.00  0.00    +0.000 OA
ENDBRANCH  11  14
ENDBRANCH   1  11
BRANCH   9  15
ATOM     15  C   UNL     1       3.973   7.073  16.954  0.00  0.00    +0.000 C 
BRANCH  15  16
ATOM     16  C   UNL     1       2.987   7.562  17.971  0.00  0.00    +0.000 A 
ATOM     17  C   UNL     1       2.706   6.791  19.101  0.00  0.00    +0.000 A 
ATOM     18  C   UNL     1       1.855   7.271  20.100  0.00  0.00    +0.000 A 
ATOM     19  C   UNL     1       1.244   8.538  19.955  0.00  0.00    +0.000 A 
ATOM     20  C   UNL     1       1.497   9.310  18.800  0.00  0.00    +0.000 A 
ATOM     21  C   UNL     1       2.373   8.812  17.826  0.00  0.00    +0.000 A 
BRANCH  18  22
ATOM     22  O   UNL     1       1.568   6.553  21.238  0.00  0.00    +0.000 OA
ATOM     23  C   UNL     1       1.835   5.154  21.172  0.00  0.00    +0.000 C 
ENDBRANCH  18  22
BRANCH  19  24
ATOM     24  O   UNL     1       0.372   8.888  20.963  0.00  0.00    +0.000 OA
ATOM     25  C   UNL     1       0.892   9.717  21.995  0.00  0.00    +0.000 C 
ENDBRANCH  19  24
BRANCH  20  26
ATOM     26  O   UNL     1       0.855  10.513  18.669  0.00  0.00    +0.000 OA
ATOM     27  C   UNL     1      -0.466  10.514  18.142  0.00  0.00    +0.000 C 
ENDBRANCH  20  26
ENDBRANCH  15  16
ENDBRANCH   9  15
TORSDOF 7
ENDMDL
MODEL 6
REMARK VINA RESULT:      -7.3      0.577      2.588
REMARK  Name = 
REMARK  11 active torsions:
REMARK  status: ('A' for Active; 'I' for Inactive)
REMARK    1  A    between atoms: C_1  and  O_2
REMARK    2  A    between atoms: O_2  and  C_3
REMARK    3  A    between atoms: C_3  and  C_5
REMARK    4  A    between atoms: C_13  and  C_14
REMARK    5  A    between atoms: C_14  and  C_15
REMARK    6  A    between atoms: C_17  and  O_18
REMARK    7  A    between atoms: O_18  and  C_19
REMARK    8  A    between atoms: C_20  and  O_21
REMARK    9  A    between atoms: O_21  and  C_22
REMARK   10  A    between atoms: C_23  and  O_24
REMARK   11  A    between atoms: O_24  and  C_25
REMARK                            x       y       z     vdW  Elec       q    Type
REMARK                         _______ _______ _______ _____ _____    ______ ____
ROOT
ATOM      1  C   UNL     1       3.261   4.450  19.479  0.00  0.00    +0.000 A 
ATOM      2  N   UNL     1       2.944   5.482  20.327  0.00  0.00    +0.000 N 
ATOM      3  C   UNL     1       2.555   6.595  19.627  0.00  0.00    +0.000 A 
ATOM      4  C   UNL     1       2.188   7.861  20.105  0.00  0.00    +0.000 A 
ATOM      5  C   UNL     1       1.816   8.830  19.172  0.00  0.00    +0.000 A 
ATOM      6  C   UNL     1       1.792   8.535  17.816  0.00  0.00    +0.000 A 
ATOM      7  C   UNL     1       2.163   7.264  17.359  0.00  0.00    +0.000 A 
ATOM      8  C   UNL     1       2.577   6.263  18.269  0.00  0.00    +0.000 A 
ATOM      9  C   UNL     1       3.061   4.904  18.169  0.00  0.00    +0.000 A 
ATOM     10  H   UNL     1       3.003   5.425  21.334  0.00  0.00    +0.000 HD
ENDROOT
BRANCH   1  11
ATOM     11  C   UNL     1       3.726   3.148  19.915  0.00  0.00    +0.000 C 
ATOM     12  O   UNL     1       4.859   2.716  19.788  0.00  0.00    +0.000 OA
BRANCH  11  14
ATOM     13  C   UNL     1       1.764   1.953  19.515  0.00  0.00    +0.000 C 
ATOM     14  O   UNL     1       2.695   2.450  20.480  0.00  0.00    +0.000 OA
ENDBRANCH  11  14
ENDBRANCH   1  11
BRANCH   9  15
ATOM     15  C   UNL     1       3.359   4.014  16.991  0.00  0.00    +0.000 C 
BRANCH  15  16
ATOM     16  C   UNL     1       4.659   4.355  16.329  0.00  0.00    +0.000 A 
ATOM     17  C   UNL     1       4.988   3.782  15.098  0.00  0.00    +0.000 A 
ATOM     18  C   UNL     1       6.156   4.154  14.426  0.00  0.00    +0.000 A 
ATOM     19  C   UNL     1       7.033   5.096  15.010  0.00  0.00    +0.000 A 
ATOM     20  C   UNL     1       6.725   5.655  16.269  0.00  0.00    +0.000 A 
ATOM     21  C   UNL     1       5.535   5.280  16.908  0.00  0.00    +0.000 A 
BRANCH  18  22
ATOM     22  O   UNL     1       6.507   3.630  13.203  0.00  0.00    +0.000 OA
ATOM     23  C   UNL     1       5.423   3.288  12.342  0.00  0.00    +0.000 C 
ENDBRANCH  18  22
BRANCH  19  24
ATOM     24  O   UNL     1       8.188   5.343  14.298  0.00  0.00    +0.000 OA
ATOM     25  C   UNL     1       8.026   5.762  12.949  0.00  0.00    +0.000 C 
ENDBRANCH  19  24
BRANCH  20  26
ATOM     26  O   UNL     1       7.618   6.531  16.828  0.00  0.00    +0.000 OA
ATOM     27  C   UNL     1       7.110   7.723  17.414  0.00  0.00    +0.000 C 
ENDBRANCH  20  26
ENDBRANCH  15  16
ENDBRANCH   9  15
TORSDOF 7
ENDMDL
MODEL 7
REMARK VINA RESULT:      -7.2      2.409      6.439
REMARK  Name = 
REMARK  11 active torsions:
REMARK  status: ('A' for Active; 'I' for Inactive)
REMARK    1  A    between atoms: C_1  and  O_2
REMARK    2  A    between atoms: O_2  and  C_3
REMARK    3  A    between atoms: C_3  and  C_5
REMARK    4  A    between atoms: C_13  and  C_14
REMARK    5  A    between atoms: C_14  and  C_15
REMARK    6  A    between atoms: C_17  and  O_18
REMARK    7  A    between atoms: O_18  and  C_19
REMARK    8  A    between atoms: C_20  and  O_21
REMARK    9  A    between atoms: O_21  and  C_22
REMARK   10  A    between atoms: C_23  and  O_24
REMARK   11  A    between atoms: O_24  and  C_25
REMARK                            x       y       z     vdW  Elec       q    Type
REMARK                         _______ _______ _______ _____ _____    ______ ____
ROOT
ATOM      1  C   UNL     1       6.767   6.123  16.531  0.00  0.00    +0.000 A 
ATOM      2  N   UNL     1       7.580   5.364  15.727  0.00  0.00    +0.000 N 
ATOM      3  C   UNL     1       6.867   4.784  14.710  0.00  0.00    +0.000 A 
ATOM      4  C   UNL     1       7.306   3.913  13.702  0.00  0.00    +0.000 A 
ATOM      5  C   UNL     1       6.370   3.470  12.767  0.00  0.00    +0.000 A 
ATOM      6  C   UNL     1       5.052   3.900  12.826  0.00  0.00    +0.000 A 
ATOM      7  C   UNL     1       4.634   4.769  13.842  0.00  0.00    +0.000 A 
ATOM      8  C   UNL     1       5.544   5.218  14.828  0.00  0.00    +0.000 A 
ATOM      9  C   UNL     1       5.469   6.045  16.011  0.00  0.00    +0.000 A 
ATOM     10  H   UNL     1       8.573   5.244  15.879  0.00  0.00    +0.000 HD
ENDROOT
BRANCH   1  11
ATOM     11  C   UNL     1       7.222   6.847  17.703  0.00  0.00    +0.000 C 
ATOM     12  O   UNL     1       7.814   7.914  17.696  0.00  0.00    +0.000 OA
BRANCH  11  14
ATOM     13  C   UNL     1       8.055   5.584  19.476  0.00  0.00    +0.000 C 
ATOM     14  O   UNL     1       6.909   6.146  18.834  0.00  0.00    +0.000 OA
ENDBRANCH  11  14
ENDBRANCH   1  11
BRANCH   9  15
ATOM     15  C   UNL     1       4.322   6.745  16.693  0.00  0.00    +0.000 C 
BRANCH  15  16
ATOM     16  C   UNL     1       3.600   5.856  17.659  0.00  0.00    +0.000 A 
ATOM     17  C   UNL     1       3.031   6.395  18.815  0.00  0.00    +0.000 A 
ATOM     18  C   UNL     1       2.281   5.595  19.682  0.00  0.00    +0.000 A 
ATOM     19  C   UNL     1       2.121   4.218  19.407  0.00  0.00    +0.000 A 
ATOM     20  C   UNL     1       2.720   3.658  18.257  0.00  0.00    +0.000 A 
ATOM     21  C   UNL     1       3.447   4.490  17.395  0.00  0.00    +0.000 A 
BRANCH  18  22
ATOM     22  O   UNL     1       1.686   6.091  20.820  0.00  0.00    +0.000 OA
ATOM     23  C   UNL     1       1.488   7.502  20.851  0.00  0.00    +0.000 C 
ENDBRANCH  18  22
BRANCH  19  24
ATOM     24  O   UNL     1       1.421   3.507  20.358  0.00  0.00    +0.000 OA
ATOM     25  C   UNL     1       2.176   2.981  21.443  0.00  0.00    +0.000 C 
ENDBRANCH  19  24
BRANCH  20  26
ATOM     26  O   UNL     1       2.584   2.312  18.043  0.00  0.00    +0.000 OA
ATOM     27  C   UNL     1       3.655   1.460  18.428  0.00  0.00    +0.000 C 
ENDBRANCH  20  26
ENDBRANCH  15  16
ENDBRANCH   9  15
TORSDOF 7
ENDMDL
MODEL 8
REMARK VINA RESULT:      -7.2      2.830      6.737
REMARK  Name = 
REMARK  11 active torsions:
REMARK  status: ('A' for Active; 'I' for Inactive)
REMARK    1  A    between atoms: C_1  and  O_2
REMARK    2  A    between atoms: O_2  and  C_3
REMARK    3  A    between atoms: C_3  and  C_5
REMARK    4  A    between atoms: C_13  and  C_14
REMARK    5  A    between atoms: C_14  and  C_15
REMARK    6  A    between atoms: C_17  and  O_18
REMARK    7  A    between atoms: O_18  and  C_19
REMARK    8  A    between atoms: C_20  and  O_21
REMARK    9  A    between atoms: O_21  and  C_22
REMARK   10  A    between atoms: C_23  and  O_24
REMARK   11  A    between atoms: O_24  and  C_25
REMARK                            x       y       z     vdW  Elec       q    Type
REMARK                         _______ _______ _______ _____ _____    ______ ____
ROOT
ATOM      1  C   UNL     1       5.614   4.874  17.459  0.00  0.00    +0.000 A 
ATOM      2  N   UNL     1       5.483   3.564  17.846  0.00  0.00    +0.000 N 
ATOM      3  C   UNL     1       4.164   3.225  18.002  0.00  0.00    +0.000 A 
ATOM      4  C   UNL     1       3.604   2.008  18.419  0.00  0.00    +0.000 A 
ATOM      5  C   UNL     1       2.213   1.916  18.482  0.00  0.00    +0.000 A 
ATOM      6  C   UNL     1       1.415   2.993  18.120  0.00  0.00    +0.000 A 
ATOM      7  C   UNL     1       1.995   4.199  17.708  0.00  0.00    +0.000 A 
ATOM      8  C   UNL     1       3.401   4.344  17.660  0.00  0.00    +0.000 A 
ATOM      9  C   UNL     1       4.325   5.411  17.346  0.00  0.00    +0.000 A 
ATOM     10  H   UNL     1       6.263   2.941  18.005  0.00  0.00    +0.000 HD
ENDROOT
BRANCH   1  11
ATOM     11  C   UNL     1       6.884   5.536  17.232  0.00  0.00    +0.000 C 
ATOM     12  O   UNL     1       7.252   6.573  17.759  0.00  0.00    +0.000 OA
BRANCH  11  14
ATOM     13  C   UNL     1       7.050   4.880  15.001  0.00  0.00    +0.000 C 
ATOM     14  O   UNL     1       7.616   4.837  16.313  0.00  0.00    +0.000 OA
ENDBRANCH  11  14
ENDBRANCH   1  11
BRANCH   9  15
ATOM     15  C   UNL     1       4.123   6.856  16.971  0.00  0.00    +0.000 C 
BRANCH  15  16
ATOM     16  C   UNL     1       3.126   7.544  17.853  0.00  0.00    +0.000 A 
ATOM     17  C   UNL     1       2.657   6.910  19.006  0.00  0.00    +0.000 A 
ATOM     18  C   UNL     1       1.794   7.571  19.883  0.00  0.00    +0.000 A 
ATOM     19  C   UNL     1       1.362   8.884  19.590  0.00  0.00    +0.000 A 
ATOM     20  C   UNL     1       1.805   9.520  18.410  0.00  0.00    +0.000 A 
ATOM     21  C   UNL     1       2.689   8.841  17.560  0.00  0.00    +0.000 A 
BRANCH  18  22
ATOM     22  O   UNL     1       1.325   6.990  21.040  0.00  0.00    +0.000 OA
ATOM     23  C   UNL     1       1.464   5.574  21.123  0.00  0.00    +0.000 C 
ENDBRANCH  18  22
BRANCH  19  24
ATOM     24  O   UNL     1       0.460   9.419  20.484  0.00  0.00    +0.000 OA
ATOM     25  C   UNL     1       0.962  10.400  21.384  0.00  0.00    +0.000 C 
ENDBRANCH  19  24
BRANCH  20  26
ATOM     26  O   UNL     1       1.332  10.776  18.131  0.00  0.00    +0.000 OA
ATOM     27  C   UNL     1       2.248  11.862  18.180  0.00  0.00    +0.000 C 
ENDBRANCH  20  26
ENDBRANCH  15  16
ENDBRANCH   9  15
TORSDOF 7
ENDMDL
MODEL 9
REMARK VINA RESULT:      -7.2      3.385      6.439
REMARK  Name = 
REMARK  11 active torsions:
REMARK  status: ('A' for Active; 'I' for Inactive)
REMARK    1  A    between atoms: C_1  and  O_2
REMARK    2  A    between atoms: O_2  and  C_3
REMARK    3  A    between atoms: C_3  and  C_5
REMARK    4  A    between atoms: C_13  and  C_14
REMARK    5  A    between atoms: C_14  and  C_15
REMARK    6  A    between atoms: C_17  and  O_18
REMARK    7  A    between atoms: O_18  and  C_19
REMARK    8  A    between atoms: C_20  and  O_21
REMARK    9  A    between atoms: O_21  and  C_22
REMARK   10  A    between atoms: C_23  and  O_24
REMARK   11  A    between atoms: O_24  and  C_25
REMARK                            x       y       z     vdW  Elec       q    Type
REMARK                         _______ _______ _______ _____ _____    ______ ____
ROOT
ATOM      1  C   UNL     1       4.147   3.884  19.038  0.00  0.00    +0.000 A 
ATOM      2  N   UNL     1       5.516   3.792  19.084  0.00  0.00    +0.000 N 
ATOM      3  C   UNL     1       6.104   4.891  18.514  0.00  0.00    +0.000 A 
ATOM      4  C   UNL     1       7.465   5.173  18.326  0.00  0.00    +0.000 A 
ATOM      5  C   UNL     1       7.806   6.385  17.724  0.00  0.00    +0.000 A 
ATOM      6  C   UNL     1       6.822   7.289  17.346  0.00  0.00    +0.000 A 
ATOM      7  C   UNL     1       5.468   6.988  17.543  0.00  0.00    +0.000 A 
ATOM      8  C   UNL     1       5.079   5.757  18.121  0.00  0.00    +0.000 A 
ATOM      9  C   UNL     1       3.827   5.100  18.422  0.00  0.00    +0.000 A 
ATOM     10  H   UNL     1       6.017   3.007  19.477  0.00  0.00    +0.000 HD
ENDROOT
BRANCH   1  11
ATOM     11  C   UNL     1       3.243   2.869  19.543  0.00  0.00    +0.000 C 
ATOM     12  O   UNL     1       2.637   2.054  18.866  0.00  0.00    +0.000 OA
BRANCH  11  14
ATOM     13  C   UNL     1       1.865   3.431  21.337  0.00  0.00    +0.000 C 
ATOM     14  O   UNL     1       3.145   2.966  20.902  0.00  0.00    +0.000 OA
ENDBRANCH  11  14
ENDBRANCH   1  11
BRANCH   9  15
ATOM     15  C   UNL     1       2.391   5.489  18.184  0.00  0.00    +0.000 C 
BRANCH  15  16
ATOM     16  C   UNL     1       2.067   6.849  18.722  0.00  0.00    +0.000 A 
ATOM     17  C   UNL     1       2.058   7.955  17.869  0.00  0.00    +0.000 A 
ATOM     18  C   UNL     1       1.676   9.215  18.337  0.00  0.00    +0.000 A 
ATOM     19  C   UNL     1       1.324   9.384  19.695  0.00  0.00    +0.000 A 
ATOM     20  C   UNL     1       1.362   8.277  20.572  0.00  0.00    +0.000 A 
ATOM     21  C   UNL     1       1.727   7.022  20.069  0.00  0.00    +0.000 A 
BRANCH  18  22
ATOM     22  O   UNL     1       1.632  10.326  17.525  0.00  0.00    +0.000 OA
ATOM     23  C   UNL     1       2.642  11.304  17.759  0.00  0.00    +0.000 C 
ENDBRANCH  18  22
BRANCH  19  24
ATOM     24  O   UNL     1       1.027  10.677  20.069  0.00  0.00    +0.000 OA
ATOM     25  C   UNL     1      -0.331  11.079  19.944  0.00  0.00    +0.000 C 
ENDBRANCH  19  24
BRANCH  20  26
ATOM     26  O   UNL     1       1.058   8.483  21.892  0.00  0.00    +0.000 OA
ATOM     27  C   UNL     1      -0.313   8.523  22.266  0.00  0.00    +0.000 C 
ENDBRANCH  20  26
ENDBRANCH  15  16
ENDBRANCH   9  15
TORSDOF 7
ENDMDL
