MODEL 1
REMARK VINA RESULT:      -8.2      0.000      0.000
REMARK  Name = 
REMARK  7 active torsions:
REMARK  status: ('A' for Active; 'I' for Inactive)
REMARK    1  A    between atoms: C_1  and  C_2
REMARK    2  A    between atoms: C_5  and  C_6
REMARK    3  A    between atoms: N_7  and  N_8
REMARK    4  A    between atoms: N_8  and  C_9
REMARK    5  A    between atoms: N_8  and  S_10
REMARK    6  A    between atoms: S_10  and  C_13
REMARK    7  A    between atoms: C_16  and  C_17
REMARK                            x       y       z     vdW  Elec       q    Type
REMARK                         _______ _______ _______ _____ _____    ______ ____
ROOT
ATOM      1  N   UNL     1       7.395   6.869  17.639  0.00  0.00    +0.000 N 
ATOM      2  C   UNL     1       6.206   7.277  16.859  0.00  0.00    +0.000 C 
ENDROOT
BRANCH   1   3
ATOM      3  S   UNL     1       7.421   5.251  18.270  0.00  0.00    +0.000 S 
ATOM      4  O   UNL     1       8.086   4.362  17.339  0.00  0.00    +0.000 OA
ATOM      5  O   UNL     1       7.834   5.310  19.667  0.00  0.00    +0.000 OA
BRANCH   3   6
ATOM      6  C   UNL     1       5.685   4.786  18.260  0.00  0.00    +0.000 A 
ATOM      7  C   UNL     1       4.821   5.292  19.240  0.00  0.00    +0.000 A 
ATOM      8  C   UNL     1       3.454   4.996  19.184  0.00  0.00    +0.000 A 
ATOM      9  C   UNL     1       2.931   4.212  18.146  0.00  0.00    +0.000 A 
ATOM     10  C   UNL     1       1.465   3.881  18.103  0.00  0.00    +0.000 C 
ATOM     11  C   UNL     1       3.799   3.749  17.148  0.00  0.00    +0.000 A 
ATOM     12  C   UNL     1       5.169   4.041  17.198  0.00  0.00    +0.000 A 
ENDBRANCH   3   6
ENDBRANCH   1   3
BRANCH   1  14
ATOM     13  C   UNL     1       8.160   9.069  17.905  0.00  0.00    +0.000 C 
ATOM     14  N   UNL     1       8.192   7.856  18.353  0.00  0.00    +0.000 NA
BRANCH  13  19
ATOM     15  C   UNL     1      11.284  13.315  20.251  0.00  0.00    +0.000 C 
ATOM     16  C   UNL     1      10.492  12.204  19.626  0.00  0.00    +0.000 A 
ATOM     17  C   UNL     1      10.292  12.160  18.243  0.00  0.00    +0.000 A 
ATOM     18  C   UNL     1       9.549  11.127  17.665  0.00  0.00    +0.000 A 
ATOM     19  C   UNL     1       9.000  10.135  18.479  0.00  0.00    +0.000 A 
ATOM     20  C   UNL     1       9.192  10.168  19.863  0.00  0.00    +0.000 A 
ATOM     21  C   UNL     1       9.937  11.202  20.434  0.00  0.00    +0.000 A 
ENDBRANCH  13  19
ENDBRANCH   1  14
TORSDOF 4
ENDMDL
MODEL 2
REMARK VINA RESULT:      -8.1      0.380      1.082
REMARK  Name = 
REMARK  7 active torsions:
REMARK  status: ('A' for Active; 'I' for Inactive)
REMARK    1  A    between atoms: C_1  and  C_2
REMARK    2  A    between atoms: C_5  and  C_6
REMARK    3  A    between atoms: N_7  and  N_8
REMARK    4  A    between atoms: N_8  and  C_9
REMARK    5  A    between atoms: N_8  and  S_10
REMARK    6  A    between atoms: S_10  and  C_13
REMARK    7  A    between atoms: C_16  and  C_17
REMARK                            x       y       z     vdW  Elec       q    Type
REMARK                         _______ _______ _______ _____ _____    ______ ____
ROOT
ATOM      1  N   UNL     1       7.577   6.846  17.779  0.00  0.00    +0.000 N 
ATOM      2  C   UNL     1       6.569   7.139  16.736  0.00  0.00    +0.000 C 
ENDROOT
BRANCH   1   3
ATOM      3  S   UNL     1       7.431   5.339  18.629  0.00  0.00    +0.000 S 
ATOM      4  O   UNL     1       8.182   4.305  17.947  0.00  0.00    +0.000 OA
ATOM      5  O   UNL     1       7.638   5.593  20.050  0.00  0.00    +0.000 OA
BRANCH   3   6
ATOM      6  C   UNL     1       5.696   4.924  18.422  0.00  0.00    +0.000 A 
ATOM      7  C   UNL     1       4.740   5.465  19.292  0.00  0.00    +0.000 A 
ATOM      8  C   UNL     1       3.380   5.207  19.080  0.00  0.00    +0.000 A 
ATOM      9  C   UNL     1       2.957   4.428  17.994  0.00  0.00    +0.000 A 
ATOM     10  C   UNL     1       1.497   4.139  17.783  0.00  0.00    +0.000 C 
ATOM     11  C   UNL     1       3.921   3.930  17.106  0.00  0.00    +0.000 A 
ATOM     12  C   UNL     1       5.284   4.183  17.312  0.00  0.00    +0.000 A 
ENDBRANCH   3   6
ENDBRANCH   1   3
BRANCH   1  14
ATOM     13  C   UNL     1       8.142   9.112  17.982  0.00  0.00    +0.000 C 
ATOM     14  N   UNL     1       8.258   7.924  18.481  0.00  0.00    +0.000 NA
BRANCH  13  19
ATOM     15  C   UNL     1      11.105  13.619  20.032  0.00  0.00    +0.000 C 
ATOM     16  C   UNL     1      10.319  12.447  19.520  0.00  0.00    +0.000 A 
ATOM     17  C   UNL     1      10.224  11.270  20.267  0.00  0.00    +0.000 A 
ATOM     18  C   UNL     1       9.496  10.179  19.785  0.00  0.00    +0.000 A 
ATOM     19  C   UNL     1       8.864  10.267  18.544  0.00  0.00    +0.000 A 
ATOM     20  C   UNL     1       8.951  11.438  17.787  0.00  0.00    +0.000 A 
ATOM     21  C   UNL     1       9.679  12.526  18.275  0.00  0.00    +0.000 A 
ENDBRANCH  13  19
ENDBRANCH   1  14
TORSDOF 4
ENDMDL
MODEL 3
REMARK VINA RESULT:      -7.9      0.251      1.081
REMARK  Name = 
REMARK  7 active torsions:
REMARK  status: ('A' for Active; 'I' for Inactive)
REMARK    1  A    between atoms: C_1  and  C_2
REMARK    2  A    between atoms: C_5  and  C_6
REMARK    3  A    between atoms: N_7  and  N_8
REMARK    4  A    between atoms: N_8  and  C_9
REMARK    5  A    between atoms: N_8  and  S_10
REMARK    6  A    between atoms: S_10  and  C_13
REMARK    7  A    between atoms: C_16  and  C_17
REMARK                            x       y       z     vdW  Elec       q    Type
REMARK                         _______ _______ _______ _____ _____    ______ ____
ROOT
ATOM      1  N   UNL     1       7.418   6.926  17.493  0.00  0.00    +0.000 N 
ATOM      2  C   UNL     1       6.338   7.279  16.544  0.00  0.00    +0.000 C 
ENDROOT
BRANCH   1   3
ATOM      3  S   UNL     1       7.392   5.328  18.173  0.00  0.00    +0.000 S 
ATOM      4  O   UNL     1       8.054   4.396  17.284  0.00  0.00    +0.000 OA
ATOM      5  O   UNL     1       7.781   5.422  19.575  0.00  0.00    +0.000 OA
BRANCH   3   6
ATOM      6  C   UNL     1       5.647   4.904  18.145  0.00  0.00    +0.000 A 
ATOM      7  C   UNL     1       5.126   4.161  17.077  0.00  0.00    +0.000 A 
ATOM      8  C   UNL     1       3.784   3.762  17.096  0.00  0.00    +0.000 A 
ATOM      9  C   UNL     1       2.955   4.078  18.181  0.00  0.00    +0.000 A 
ATOM     10  C   UNL     1       1.510   3.663  18.185  0.00  0.00    +0.000 C 
ATOM     11  C   UNL     1       3.501   4.784  19.262  0.00  0.00    +0.000 A 
ATOM     12  C   UNL     1       4.842   5.188  19.250  0.00  0.00    +0.000 A 
ENDBRANCH   3   6
ENDBRANCH   1   3
BRANCH   1  14
ATOM     13  C   UNL     1       8.161   9.134  17.752  0.00  0.00    +0.000 C 
ATOM     14  N   UNL     1       8.086   7.955  18.277  0.00  0.00    +0.000 NA
BRANCH  13  19
ATOM     15  C   UNL     1      10.889  13.463  20.420  0.00  0.00    +0.000 C 
ATOM     16  C   UNL     1      10.199  12.336  19.708  0.00  0.00    +0.000 A 
ATOM     17  C   UNL     1       9.841  12.453  18.362  0.00  0.00    +0.000 A 
ATOM     18  C   UNL     1       9.193  11.405  17.704  0.00  0.00    +0.000 A 
ATOM     19  C   UNL     1       8.898  10.232  18.402  0.00  0.00    +0.000 A 
ATOM     20  C   UNL     1       9.250  10.102  19.748  0.00  0.00    +0.000 A 
ATOM     21  C   UNL     1       9.899  11.153  20.399  0.00  0.00    +0.000 A 
ENDBRANCH  13  19
ENDBRANCH   1  14
TORSDOF 4
ENDMDL
MODEL 4
REMARK VINA RESULT:      -7.9      0.395      1.489
REMARK  Name = 
REMARK  7 active torsions:
REMARK  status: ('A' for Active; 'I' for Inactive)
REMARK    1  A    between atoms: C_1  and  C_2
REMARK    2  A    between atoms: C_5  and  C_6
REMARK    3  A    between atoms: N_7  and  N_8
REMARK    4  A    between atoms: N_8  and  C_9
REMARK    5  A    between atoms: N_8  and  S_10
REMARK    6  A    between atoms: S_10  and  C_13
REMARK    7  A    between atoms: C_16  and  C_17
REMARK                            x       y       z     vdW  Elec       q    Type
REMARK                         _______ _______ _______ _____ _____    ______ ____
ROOT
ATOM      1  N   UNL     1       7.455   6.761  17.544  0.00  0.00    +0.000 N 
ATOM      2  C   UNL     1       6.434   7.060  16.516  0.00  0.00    +0.000 C 
ENDROOT
BRANCH   1   3
ATOM      3  S   UNL     1       7.389   5.202  18.306  0.00  0.00    +0.000 S 
ATOM      4  O   UNL     1       8.077   4.219  17.494  0.00  0.00    +0.000 OA
ATOM      5  O   UNL     1       7.721   5.367  19.715  0.00  0.00    +0.000 OA
BRANCH   3   6
ATOM      6  C   UNL     1       5.642   4.788  18.229  0.00  0.00    +0.000 A 
ATOM      7  C   UNL     1       5.192   3.825  17.316  0.00  0.00    +0.000 A 
ATOM      8  C   UNL     1       3.844   3.445  17.313  0.00  0.00    +0.000 A 
ATOM      9  C   UNL     1       2.938   4.002  18.227  0.00  0.00    +0.000 A 
ATOM     10  C   UNL     1       1.489   3.603  18.206  0.00  0.00    +0.000 C 
ATOM     11  C   UNL     1       3.411   4.931  19.164  0.00  0.00    +0.000 A 
ATOM     12  C   UNL     1       4.759   5.317  19.172  0.00  0.00    +0.000 A 
ENDBRANCH   3   6
ENDBRANCH   1   3
BRANCH   1  14
ATOM     13  C   UNL     1       8.064   9.012  17.781  0.00  0.00    +0.000 C 
ATOM     14  N   UNL     1       8.077   7.831  18.310  0.00  0.00    +0.000 NA
BRANCH  13  19
ATOM     15  C   UNL     1      10.863  13.499  20.090  0.00  0.00    +0.000 C 
ATOM     16  C   UNL     1      10.122  12.329  19.512  0.00  0.00    +0.000 A 
ATOM     17  C   UNL     1      10.166  11.077  20.133  0.00  0.00    +0.000 A 
ATOM     18  C   UNL     1       9.480   9.989  19.588  0.00  0.00    +0.000 A 
ATOM     19  C   UNL     1       8.747  10.156  18.412  0.00  0.00    +0.000 A 
ATOM     20  C   UNL     1       8.695  11.401  17.781  0.00  0.00    +0.000 A 
ATOM     21  C   UNL     1       9.382  12.486  18.331  0.00  0.00    +0.000 A 
ENDBRANCH  13  19
ENDBRANCH   1  14
TORSDOF 4
ENDMDL
MODEL 5
REMARK VINA RESULT:      -7.8      4.393      6.680
REMARK  Name = 
REMARK  7 active torsions:
REMARK  status: ('A' for Active; 'I' for Inactive)
REMARK    1  A    between atoms: C_1  and  C_2
REMARK    2  A    between atoms: C_5  and  C_6
REMARK    3  A    between atoms: N_7  and  N_8
REMARK    4  A    between atoms: N_8  and  C_9
REMARK    5  A    between atoms: N_8  and  S_10
REMARK    6  A    between atoms: S_10  and  C_13
REMARK    7  A    between atoms: C_16  and  C_17
REMARK                            x       y       z     vdW  Elec       q    Type
REMARK                         _______ _______ _______ _____ _____    ______ ____
ROOT
ATOM      1  N   UNL     1       2.258   3.720  19.627  0.00  0.00    +0.000 N 
ATOM      2  C   UNL     1       2.415   3.315  21.042  0.00  0.00    +0.000 C 
ENDROOT
BRANCH   1   3
ATOM      3  S   UNL     1       3.243   2.908  18.450  0.00  0.00    +0.000 S 
ATOM      4  O   UNL     1       3.904   1.768  19.052  0.00  0.00    +0.000 OA
ATOM      5  O   UNL     1       2.464   2.756  17.228  0.00  0.00    +0.000 OA
BRANCH   3   6
ATOM      6  C   UNL     1       4.530   4.111  18.100  0.00  0.00    +0.000 A 
ATOM      7  C   UNL     1       4.492   4.848  16.909  0.00  0.00    +0.000 A 
ATOM      8  C   UNL     1       5.449   5.843  16.674  0.00  0.00    +0.000 A 
ATOM      9  C   UNL     1       6.438   6.127  17.626  0.00  0.00    +0.000 A 
ATOM     10  C   UNL     1       7.474   7.184  17.359  0.00  0.00    +0.000 C 
ATOM     11  C   UNL     1       6.438   5.413  18.832  0.00  0.00    +0.000 A 
ATOM     12  C   UNL     1       5.484   4.415  19.074  0.00  0.00    +0.000 A 
ENDBRANCH   3   6
ENDBRANCH   1   3
BRANCH   1  14
ATOM     13  C   UNL     1       2.445   6.049  19.818  0.00  0.00    +0.000 C 
ATOM     14  N   UNL     1       1.807   5.060  19.282  0.00  0.00    +0.000 NA
BRANCH  13  19
ATOM     15  C   UNL     1       0.592  11.464  19.080  0.00  0.00    +0.000 C 
ATOM     16  C   UNL     1       1.099  10.063  19.265  0.00  0.00    +0.000 A 
ATOM     17  C   UNL     1       1.751   9.395  18.226  0.00  0.00    +0.000 A 
ATOM     18  C   UNL     1       2.216   8.089  18.400  0.00  0.00    +0.000 A 
ATOM     19  C   UNL     1       2.021   7.447  19.625  0.00  0.00    +0.000 A 
ATOM     20  C   UNL     1       1.370   8.103  20.672  0.00  0.00    +0.000 A 
ATOM     21  C   UNL     1       0.909   9.410  20.492  0.00  0.00    +0.000 A 
ENDBRANCH  13  19
ENDBRANCH   1  14
TORSDOF 4
ENDMDL
MODEL 6
REMARK VINA RESULT:      -7.7      4.124      6.547
REMARK  Name = 
REMARK  7 active torsions:
REMARK  status: ('A' for Active; 'I' for Inactive)
REMARK    1  A    between atoms: C_1  and  C_2
REMARK    2  A    between atoms: C_5  and  C_6
REMARK    3  A    between atoms: N_7  and  N_8
REMARK    4  A    between atoms: N_8  and  C_9
REMARK    5  A    between atoms: N_8  and  S_10
REMARK    6  A    between atoms: S_10  and  C_13
REMARK    7  A    between atoms: C_16  and  C_17
REMARK                            x       y       z     vdW  Elec       q    Type
REMARK                         _______ _______ _______ _____ _____    ______ ____
ROOT
ATOM      1  N   UNL     1       2.587   3.554  19.607  0.00  0.00    +0.000 N 
ATOM      2  C   UNL     1       2.170   3.097  20.951  0.00  0.00    +0.000 C 
ENDROOT
BRANCH   1   3
ATOM      3  S   UNL     1       4.015   2.838  18.927  0.00  0.00    +0.000 S 
ATOM      4  O   UNL     1       4.764   2.144  19.954  0.00  0.00    +0.000 OA
ATOM      5  O   UNL     1       3.642   2.159  17.692  0.00  0.00    +0.000 OA
BRANCH   3   6
ATOM      6  C   UNL     1       5.000   4.265  18.458  0.00  0.00    +0.000 A 
ATOM      7  C   UNL     1       5.883   4.838  19.383  0.00  0.00    +0.000 A 
ATOM      8  C   UNL     1       6.709   5.899  18.992  0.00  0.00    +0.000 A 
ATOM      9  C   UNL     1       6.680   6.385  17.677  0.00  0.00    +0.000 A 
ATOM     10  C   UNL     1       7.557   7.537  17.269  0.00  0.00    +0.000 C 
ATOM     11  C   UNL     1       5.824   5.774  16.751  0.00  0.00    +0.000 A 
ATOM     12  C   UNL     1       4.994   4.712  17.135  0.00  0.00    +0.000 A 
ENDBRANCH   3   6
ENDBRANCH   1   3
BRANCH   1  14
ATOM     13  C   UNL     1       2.513   5.877  19.918  0.00  0.00    +0.000 C 
ATOM     14  N   UNL     1       2.240   4.886  19.132  0.00  0.00    +0.000 NA
BRANCH  13  19
ATOM     15  C   UNL     1       0.783  11.237  18.666  0.00  0.00    +0.000 C 
ATOM     16  C   UNL     1       1.258   9.850  18.986  0.00  0.00    +0.000 A 
ATOM     17  C   UNL     1       1.933   9.087  18.029  0.00  0.00    +0.000 A 
ATOM     18  C   UNL     1       2.368   7.793  18.328  0.00  0.00    +0.000 A 
ATOM     19  C   UNL     1       2.121   7.260  19.594  0.00  0.00    +0.000 A 
ATOM     20  C   UNL     1       1.447   8.011  20.560  0.00  0.00    +0.000 A 
ATOM     21  C   UNL     1       1.016   9.305  20.255  0.00  0.00    +0.000 A 
ENDBRANCH  13  19
ENDBRANCH   1  14
TORSDOF 4
ENDMDL
MODEL 7
REMARK VINA RESULT:      -7.7      4.435      6.735
REMARK  Name = 
REMARK  7 active torsions:
REMARK  status: ('A' for Active; 'I' for Inactive)
REMARK    1  A    between atoms: C_1  and  C_2
REMARK    2  A    between atoms: C_5  and  C_6
REMARK    3  A    between atoms: N_7  and  N_8
REMARK    4  A    between atoms: N_8  and  C_9
REMARK    5  A    between atoms: N_8  and  S_10
REMARK    6  A    between atoms: S_10  and  C_13
REMARK    7  A    between atoms: C_16  and  C_17
REMARK                            x       y       z     vdW  Elec       q    Type
REMARK                         _______ _______ _______ _____ _____    ______ ____
ROOT
ATOM      1  N   UNL     1       2.270   3.651  19.630  0.00  0.00    +0.000 N 
ATOM      2  C   UNL     1       2.525   3.252  21.032  0.00  0.00    +0.000 C 
ENDROOT
BRANCH   1   3
ATOM      3  S   UNL     1       3.207   2.869  18.394  0.00  0.00    +0.000 S 
ATOM      4  O   UNL     1       3.861   1.694  18.931  0.00  0.00    +0.000 OA
ATOM      5  O   UNL     1       2.391   2.782  17.189  0.00  0.00    +0.000 OA
BRANCH   3   6
ATOM      6  C   UNL     1       4.506   4.063  18.056  0.00  0.00    +0.000 A 
ATOM      7  C   UNL     1       4.444   4.855  16.901  0.00  0.00    +0.000 A 
ATOM      8  C   UNL     1       5.413   5.841  16.680  0.00  0.00    +0.000 A 
ATOM      9  C   UNL     1       6.439   6.062  17.610  0.00  0.00    +0.000 A 
ATOM     10  C   UNL     1       7.488   7.109  17.357  0.00  0.00    +0.000 C 
ATOM     11  C   UNL     1       6.464   5.292  18.782  0.00  0.00    +0.000 A 
ATOM     12  C   UNL     1       5.498   4.303  19.010  0.00  0.00    +0.000 A 
ENDBRANCH   3   6
ENDBRANCH   1   3
BRANCH   1  14
ATOM     13  C   UNL     1       2.443   5.987  19.743  0.00  0.00    +0.000 C 
ATOM     14  N   UNL     1       1.757   4.977  19.315  0.00  0.00    +0.000 NA
BRANCH  13  19
ATOM     15  C   UNL     1       0.809  11.478  19.059  0.00  0.00    +0.000 C 
ATOM     16  C   UNL     1       1.209  10.044  19.244  0.00  0.00    +0.000 A 
ATOM     17  C   UNL     1       1.013   9.398  20.468  0.00  0.00    +0.000 A 
ATOM     18  C   UNL     1       1.392   8.064  20.638  0.00  0.00    +0.000 A 
ATOM     19  C   UNL     1       1.977   7.374  19.574  0.00  0.00    +0.000 A 
ATOM     20  C   UNL     1       2.179   8.007  18.345  0.00  0.00    +0.000 A 
ATOM     21  C   UNL     1       1.796   9.340  18.181  0.00  0.00    +0.000 A 
ENDBRANCH  13  19
ENDBRANCH   1  14
TORSDOF 4
ENDMDL
MODEL 8
REMARK VINA RESULT:      -7.7      1.730      2.183
REMARK  Name = 
REMARK  7 active torsions:
REMARK  status: ('A' for Active; 'I' for Inactive)
REMARK    1  A    between atoms: C_1  and  C_2
REMARK    2  A    between atoms: C_5  and  C_6
REMARK    3  A    between atoms: N_7  and  N_8
REMARK    4  A    between atoms: N_8  and  C_9
REMARK    5  A    between atoms: N_8  and  S_10
REMARK    6  A    between atoms: S_10  and  C_13
REMARK    7  A    between atoms: C_16  and  C_17
REMARK                            x       y       z     vdW  Elec       q    Type
REMARK                         _______ _______ _______ _____ _____    ______ ____
ROOT
ATOM      1  N   UNL     1       6.817   6.496  17.488  0.00  0.00    +0.000 N 
ATOM      2  C   UNL     1       7.494   5.521  18.372  0.00  0.00    +0.000 C 
ENDROOT
BRANCH   1   3
ATOM      3  S   UNL     1       5.933   5.866  16.132  0.00  0.00    +0.000 S 
ATOM      4  O   UNL     1       5.433   6.951  15.314  0.00  0.00    +0.000 OA
ATOM      5  O   UNL     1       6.713   4.786  15.540  0.00  0.00    +0.000 OA
BRANCH   3   6
ATOM      6  C   UNL     1       4.498   5.109  16.902  0.00  0.00    +0.000 A 
ATOM      7  C   UNL     1       4.324   3.720  16.841  0.00  0.00    +0.000 A 
ATOM      8  C   UNL     1       3.249   3.122  17.511  0.00  0.00    +0.000 A 
ATOM      9  C   UNL     1       2.351   3.895  18.261  0.00  0.00    +0.000 A 
ATOM     10  C   UNL     1       1.188   3.249  18.962  0.00  0.00    +0.000 C 
ATOM     11  C   UNL     1       2.562   5.278  18.350  0.00  0.00    +0.000 A 
ATOM     12  C   UNL     1       3.635   5.883  17.682  0.00  0.00    +0.000 A 
ENDBRANCH   3   6
ENDBRANCH   1   3
BRANCH   1  14
ATOM     13  C   UNL     1       8.108   8.279  18.293  0.00  0.00    +0.000 C 
ATOM     14  N   UNL     1       7.316   7.858  17.362  0.00  0.00    +0.000 NA
BRANCH  13  19
ATOM     15  C   UNL     1       9.957  13.736  18.625  0.00  0.00    +0.000 C 
ATOM     16  C   UNL     1       9.482  12.316  18.513  0.00  0.00    +0.000 A 
ATOM     17  C   UNL     1       8.481  11.967  17.602  0.00  0.00    +0.000 A 
ATOM     18  C   UNL     1       8.037  10.645  17.505  0.00  0.00    +0.000 A 
ATOM     19  C   UNL     1       8.599   9.668  18.329  0.00  0.00    +0.000 A 
ATOM     20  C   UNL     1       9.600  10.004  19.244  0.00  0.00    +0.000 A 
ATOM     21  C   UNL     1      10.041  11.327  19.335  0.00  0.00    +0.000 A 
ENDBRANCH  13  19
ENDBRANCH   1  14
TORSDOF 4
ENDMDL
MODEL 9
REMARK VINA RESULT:      -7.7      4.924      5.656
REMARK  Name = 
REMARK  7 active torsions:
REMARK  status: ('A' for Active; 'I' for Inactive)
REMARK    1  A    between atoms: C_1  and  C_2
REMARK    2  A    between atoms: C_5  and  C_6
REMARK    3  A    between atoms: N_7  and  N_8
REMARK    4  A    between atoms: N_8  and  C_9
REMARK    5  A    between atoms: N_8  and  S_10
REMARK    6  A    between atoms: S_10  and  C_13
REMARK    7  A    between atoms: C_16  and  C_17
REMARK                            x       y       z     vdW  Elec       q    Type
REMARK                         _______ _______ _______ _____ _____    ______ ____
ROOT
ATOM      1  N   UNL     1       5.407   6.075  16.793  0.00  0.00    +0.000 N 
ATOM      2  C   UNL     1       5.350   6.498  15.376  0.00  0.00    +0.000 C 
ENDROOT
BRANCH   1   3
ATOM      3  S   UNL     1       5.858   4.429  17.117  0.00  0.00    +0.000 S 
ATOM      4  O   UNL     1       5.969   3.688  15.878  0.00  0.00    +0.000 OA
ATOM      5  O   UNL     1       6.952   4.437  18.081  0.00  0.00    +0.000 OA
BRANCH   3   6
ATOM      6  C   UNL     1       4.418   3.776  17.970  0.00  0.00    +0.000 A 
ATOM      7  C   UNL     1       4.432   3.646  19.365  0.00  0.00    +0.000 A 
ATOM      8  C   UNL     1       3.282   3.215  20.036  0.00  0.00    +0.000 A 
ATOM      9  C   UNL     1       2.104   2.928  19.332  0.00  0.00    +0.000 A 
ATOM     10  C   UNL     1       0.878   2.446  20.056  0.00  0.00    +0.000 C 
ATOM     11  C   UNL     1       2.090   3.105  17.941  0.00  0.00    +0.000 A 
ATOM     12  C   UNL     1       3.239   3.536  17.263  0.00  0.00    +0.000 A 
ENDBRANCH   3   6
ENDBRANCH   1   3
BRANCH   1  14
ATOM     13  C   UNL     1       3.433   7.172  17.422  0.00  0.00    +0.000 C 
ATOM     14  N   UNL     1       4.590   6.735  17.801  0.00  0.00    +0.000 NA
BRANCH  13  19
ATOM     15  C   UNL     1      -0.126  10.036  20.947  0.00  0.00    +0.000 C 
ATOM     16  C   UNL     1       0.814   9.313  20.027  0.00  0.00    +0.000 A 
ATOM     17  C   UNL     1       1.059   9.788  18.736  0.00  0.00    +0.000 A 
ATOM     18  C   UNL     1       1.930   9.109  17.881  0.00  0.00    +0.000 A 
ATOM     19  C   UNL     1       2.558   7.943  18.322  0.00  0.00    +0.000 A 
ATOM     20  C   UNL     1       2.322   7.456  19.610  0.00  0.00    +0.000 A 
ATOM     21  C   UNL     1       1.451   8.141  20.461  0.00  0.00    +0.000 A 
ENDBRANCH  13  19
ENDBRANCH   1  14
TORSDOF 4
ENDMDL
