MODEL 1
REMARK VINA RESULT:      -6.6      0.000      0.000
REMARK  Name = 
REMARK  14 active torsions:
REMARK  status: ('A' for Active; 'I' for Inactive)
REMARK    1  A    between atoms: C_1  and  C_2
REMARK    2  A    between atoms: C_2  and  C_3
REMARK    3  A    between atoms: C_2  and  C_4
REMARK    4  A    between atoms: C_4  and  N_5
REMARK    5  A    between atoms: N_8  and  C_9
REMARK    6  A    between atoms: C_9  and  C_10
REMARK    7  A    between atoms: C_13  and  C_14
REMARK    8  A    between atoms: C_15  and  C_16
REMARK    9  A    between atoms: C_16  and  C_17
REMARK   10  A    between atoms: C_16  and  C_18
REMARK   11  A    between atoms: C_16  and  O_19
REMARK   12  A    between atoms: C_23  and  C_24
REMARK   13  A    between atoms: C_24  and  C_25
REMARK   14  A    between atoms: C_25  and  O_26
REMARK                            x       y       z     vdW  Elec       q    Type
REMARK                         _______ _______ _______ _____ _____    ______ ____
ROOT
ATOM      1  N   UNL     1      -2.624  11.892  18.326  0.00  0.00    +0.000 NA
ATOM      2  C   UNL     1      -1.406  12.741  18.396  0.00  0.00    +0.000 C 
ATOM      3  C   UNL     1      -0.475  12.443  19.590  0.00  0.00    +0.000 C 
ATOM      4  N   UNL     1      -0.049  11.033  19.708  0.00  0.00    +0.000 NA
ATOM      5  C   UNL     1      -1.232  10.150  19.548  0.00  0.00    +0.000 C 
ATOM      6  C   UNL     1      -2.219  10.456  18.361  0.00  0.00    +0.000 C 
ENDROOT
BRANCH   1   7
ATOM      7  C   UNL     1      -3.577  12.192  19.422  0.00  0.00    +0.000 C 
BRANCH   7   9
ATOM      8  C   UNL     1      -5.386  11.183  17.956  0.00  0.00    +0.000 C 
ATOM      9  C   UNL     1      -5.050  12.280  18.965  0.00  0.00    +0.000 C 
ATOM     10  C   UNL     1      -5.986  12.209  20.173  0.00  0.00    +0.000 C 
ENDBRANCH   7   9
ENDBRANCH   1   7
BRANCH   4  11
ATOM     11  C   UNL     1       1.015  10.662  18.766  0.00  0.00    +0.000 C 
BRANCH  11  12
ATOM     12  C   UNL     1       1.517   9.244  18.851  0.00  0.00    +0.000 A 
ATOM     13  C   UNL     1       2.040   8.581  17.735  0.00  0.00    +0.000 A 
ATOM     14  C   UNL     1       2.542   7.291  17.861  0.00  0.00    +0.000 A 
ATOM     15  C   UNL     1       2.529   6.651  19.110  0.00  0.00    +0.000 A 
ATOM     16  C   UNL     1       2.012   7.299  20.225  0.00  0.00    +0.000 A 
ATOM     17  C   UNL     1       1.508   8.593  20.098  0.00  0.00    +0.000 A 
BRANCH  15  18
ATOM     18  C   UNL     1       3.042   5.327  19.230  0.00  0.00    +0.000 C 
ATOM     19  C   UNL     1       3.453   4.202  19.333  0.00  0.00    +0.000 C 
BRANCH  19  20
ATOM     20  C   UNL     1       3.927   2.820  19.458  0.00  0.00    +0.000 C 
ATOM     21  C   UNL     1       3.411   1.977  18.294  0.00  0.00    +0.000 C 
ATOM     22  C   UNL     1       3.485   2.234  20.797  0.00  0.00    +0.000 C 
BRANCH  20  23
ATOM     23  O   UNL     1       5.353   2.809  19.424  0.00  0.00    +0.000 OA
ATOM     24  H   UNL     1       5.614   2.830  18.486  0.00  0.00    +0.000 HD
ENDBRANCH  20  23
ENDBRANCH  19  20
ENDBRANCH  15  18
ENDBRANCH  11  12
ENDBRANCH   4  11
BRANCH   6  25
ATOM     25  C   UNL     1      -1.677   9.992  16.977  0.00  0.00    +0.000 C 
BRANCH  25  26
ATOM     26  C   UNL     1      -2.657  10.082  15.809  0.00  0.00    +0.000 C 
BRANCH  26  27
ATOM     27  O   UNL     1      -2.909  11.430  15.439  0.00  0.00    +0.000 OA
ATOM     28  H   UNL     1      -2.986  11.931  16.281  0.00  0.00    +0.000 HD
ENDBRANCH  26  27
ENDBRANCH  25  26
ENDBRANCH   6  25
TORSDOF 10
ENDMDL
MODEL 2
REMARK VINA RESULT:      -6.5      3.591      9.786
REMARK  Name = 
REMARK  14 active torsions:
REMARK  status: ('A' for Active; 'I' for Inactive)
REMARK    1  A    between atoms: C_1  and  C_2
REMARK    2  A    between atoms: C_2  and  C_3
REMARK    3  A    between atoms: C_2  and  C_4
REMARK    4  A    between atoms: C_4  and  N_5
REMARK    5  A    between atoms: N_8  and  C_9
REMARK    6  A    between atoms: C_9  and  C_10
REMARK    7  A    between atoms: C_13  and  C_14
REMARK    8  A    between atoms: C_15  and  C_16
REMARK    9  A    between atoms: C_16  and  C_17
REMARK   10  A    between atoms: C_16  and  C_18
REMARK   11  A    between atoms: C_16  and  O_19
REMARK   12  A    between atoms: C_23  and  C_24
REMARK   13  A    between atoms: C_24  and  C_25
REMARK   14  A    between atoms: C_25  and  O_26
REMARK                            x       y       z     vdW  Elec       q    Type
REMARK                         _______ _______ _______ _____ _____    ______ ____
ROOT
ATOM      1  N   UNL     1       5.107   4.854  17.161  0.00  0.00    +0.000 NA
ATOM      2  C   UNL     1       5.205   6.285  17.550  0.00  0.00    +0.000 C 
ATOM      3  C   UNL     1       3.894   7.087  17.410  0.00  0.00    +0.000 C 
ATOM      4  N   UNL     1       2.732   6.506  18.114  0.00  0.00    +0.000 NA
ATOM      5  C   UNL     1       2.659   5.053  17.821  0.00  0.00    +0.000 C 
ATOM      6  C   UNL     1       3.990   4.218  17.920  0.00  0.00    +0.000 C 
ENDROOT
BRANCH   1   7
ATOM      7  C   UNL     1       4.908   4.685  15.701  0.00  0.00    +0.000 C 
BRANCH   7   9
ATOM      8  C   UNL     1       5.788   3.775  13.502  0.00  0.00    +0.000 C 
ATOM      9  C   UNL     1       6.098   4.017  14.979  0.00  0.00    +0.000 C 
ATOM     10  C   UNL     1       7.360   4.869  15.133  0.00  0.00    +0.000 C 
ENDBRANCH   7   9
ENDBRANCH   1   7
BRANCH   4  11
ATOM     11  C   UNL     1       2.744   6.751  19.562  0.00  0.00    +0.000 C 
BRANCH  11  12
ATOM     12  C   UNL     1       1.784   7.796  20.070  0.00  0.00    +0.000 A 
ATOM     13  C   UNL     1       1.175   7.687  21.326  0.00  0.00    +0.000 A 
ATOM     14  C   UNL     1       0.335   8.694  21.783  0.00  0.00    +0.000 A 
ATOM     15  C   UNL     1       0.096   9.826  20.989  0.00  0.00    +0.000 A 
ATOM     16  C   UNL     1       0.693   9.945  19.740  0.00  0.00    +0.000 A 
ATOM     17  C   UNL     1       1.537   8.934  19.281  0.00  0.00    +0.000 A 
BRANCH  15  18
ATOM     18  C   UNL     1      -0.770  10.852  21.464  0.00  0.00    +0.000 C 
ATOM     19  C   UNL     1      -1.504  11.726  21.845  0.00  0.00    +0.000 C 
BRANCH  19  20
ATOM     20  C   UNL     1      -2.401  12.801  22.280  0.00  0.00    +0.000 C 
ATOM     21  C   UNL     1      -2.834  13.644  21.082  0.00  0.00    +0.000 C 
ATOM     22  C   UNL     1      -1.713  13.662  23.336  0.00  0.00    +0.000 C 
BRANCH  20  23
ATOM     23  O   UNL     1      -3.565  12.228  22.871  0.00  0.00    +0.000 OA
ATOM     24  H   UNL     1      -3.584  11.291  22.609  0.00  0.00    +0.000 HD
ENDBRANCH  20  23
ENDBRANCH  19  20
ENDBRANCH  15  18
ENDBRANCH  11  12
ENDBRANCH   4  11
BRANCH   6  25
ATOM     25  C   UNL     1       4.413   3.908  19.385  0.00  0.00    +0.000 C 
BRANCH  25  26
ATOM     26  C   UNL     1       4.029   2.528  19.915  0.00  0.00    +0.000 C 
BRANCH  26  27
ATOM     27  O   UNL     1       5.163   1.682  20.041  0.00  0.00    +0.000 OA
ATOM     28  H   UNL     1       5.223   1.450  20.994  0.00  0.00    +0.000 HD
ENDBRANCH  26  27
ENDBRANCH  25  26
ENDBRANCH   6  25
TORSDOF 10
ENDMDL
MODEL 3
REMARK VINA RESULT:      -6.5      3.245      9.820
REMARK  Name = 
REMARK  14 active torsions:
REMARK  status: ('A' for Active; 'I' for Inactive)
REMARK    1  A    between atoms: C_1  and  C_2
REMARK    2  A    between atoms: C_2  and  C_3
REMARK    3  A    between atoms: C_2  and  C_4
REMARK    4  A    between atoms: C_4  and  N_5
REMARK    5  A    between atoms: N_8  and  C_9
REMARK    6  A    between atoms: C_9  and  C_10
REMARK    7  A    between atoms: C_13  and  C_14
REMARK    8  A    between atoms: C_15  and  C_16
REMARK    9  A    between atoms: C_16  and  C_17
REMARK   10  A    between atoms: C_16  and  C_18
REMARK   11  A    between atoms: C_16  and  O_19
REMARK   12  A    between atoms: C_23  and  C_24
REMARK   13  A    between atoms: C_24  and  C_25
REMARK   14  A    between atoms: C_25  and  O_26
REMARK                            x       y       z     vdW  Elec       q    Type
REMARK                         _______ _______ _______ _____ _____    ______ ____
ROOT
ATOM      1  N   UNL     1       4.768   4.540  17.580  0.00  0.00    +0.000 NA
ATOM      2  C   UNL     1       5.080   5.949  17.935  0.00  0.00    +0.000 C 
ATOM      3  C   UNL     1       3.968   6.965  17.599  0.00  0.00    +0.000 C 
ATOM      4  N   UNL     1       2.641   6.641  18.163  0.00  0.00    +0.000 NA
ATOM      5  C   UNL     1       2.337   5.211  17.908  0.00  0.00    +0.000 C 
ATOM      6  C   UNL     1       3.468   4.157  18.206  0.00  0.00    +0.000 C 
ENDROOT
BRANCH   1   7
ATOM      7  C   UNL     1       4.722   4.331  16.112  0.00  0.00    +0.000 C 
BRANCH   7   9
ATOM      8  C   UNL     1       6.072   3.935  14.001  0.00  0.00    +0.000 C 
ATOM      9  C   UNL     1       6.030   3.764  15.519  0.00  0.00    +0.000 C 
ATOM     10  C   UNL     1       7.243   4.432  16.171  0.00  0.00    +0.000 C 
ENDBRANCH   7   9
ENDBRANCH   1   7
BRANCH   4  11
ATOM     11  C   UNL     1       2.520   6.958  19.592  0.00  0.00    +0.000 C 
BRANCH  11  12
ATOM     12  C   UNL     1       1.572   8.074  19.949  0.00  0.00    +0.000 A 
ATOM     13  C   UNL     1       0.957   8.143  21.205  0.00  0.00    +0.000 A 
ATOM     14  C   UNL     1       0.129   9.213  21.519  0.00  0.00    +0.000 A 
ATOM     15  C   UNL     1      -0.092  10.231  20.578  0.00  0.00    +0.000 A 
ATOM     16  C   UNL     1       0.512  10.173  19.328  0.00  0.00    +0.000 A 
ATOM     17  C   UNL     1       1.343   9.099  19.013  0.00  0.00    +0.000 A 
BRANCH  15  18
ATOM     18  C   UNL     1      -0.946  11.322  20.906  0.00  0.00    +0.000 C 
ATOM     19  C   UNL     1      -1.649  12.258  21.184  0.00  0.00    +0.000 C 
BRANCH  19  20
ATOM     20  C   UNL     1      -2.482  13.417  21.521  0.00  0.00    +0.000 C 
ATOM     21  C   UNL     1      -1.659  14.455  22.281  0.00  0.00    +0.000 C 
ATOM     22  C   UNL     1      -3.693  12.973  22.336  0.00  0.00    +0.000 C 
BRANCH  20  23
ATOM     23  O   UNL     1      -2.959  14.016  20.317  0.00  0.00    +0.000 OA
ATOM     24  H   UNL     1      -2.254  13.918  19.653  0.00  0.00    +0.000 HD
ENDBRANCH  20  23
ENDBRANCH  19  20
ENDBRANCH  15  18
ENDBRANCH  11  12
ENDBRANCH   4  11
BRANCH   6  25
ATOM     25  C   UNL     1       3.642   3.856  19.723  0.00  0.00    +0.000 C 
BRANCH  25  26
ATOM     26  C   UNL     1       4.070   2.434  20.079  0.00  0.00    +0.000 C 
BRANCH  26  27
ATOM     27  O   UNL     1       4.453   1.698  18.927  0.00  0.00    +0.000 OA
ATOM     28  H   UNL     1       4.886   2.344  18.326  0.00  0.00    +0.000 HD
ENDBRANCH  26  27
ENDBRANCH  25  26
ENDBRANCH   6  25
TORSDOF 10
ENDMDL
MODEL 4
REMARK VINA RESULT:      -6.5      3.154      9.795
REMARK  Name = 
REMARK  14 active torsions:
REMARK  status: ('A' for Active; 'I' for Inactive)
REMARK    1  A    between atoms: C_1  and  C_2
REMARK    2  A    between atoms: C_2  and  C_3
REMARK    3  A    between atoms: C_2  and  C_4
REMARK    4  A    between atoms: C_4  and  N_5
REMARK    5  A    between atoms: N_8  and  C_9
REMARK    6  A    between atoms: C_9  and  C_10
REMARK    7  A    between atoms: C_13  and  C_14
REMARK    8  A    between atoms: C_15  and  C_16
REMARK    9  A    between atoms: C_16  and  C_17
REMARK   10  A    between atoms: C_16  and  C_18
REMARK   11  A    between atoms: C_16  and  O_19
REMARK   12  A    between atoms: C_23  and  C_24
REMARK   13  A    between atoms: C_24  and  C_25
REMARK   14  A    between atoms: C_25  and  O_26
REMARK                            x       y       z     vdW  Elec       q    Type
REMARK                         _______ _______ _______ _____ _____    ______ ____
ROOT
ATOM      1  N   UNL     1       4.717   4.492  17.764  0.00  0.00    +0.000 NA
ATOM      2  C   UNL     1       5.043   5.908  18.072  0.00  0.00    +0.000 C 
ATOM      3  C   UNL     1       3.970   6.930  17.640  0.00  0.00    +0.000 C 
ATOM      4  N   UNL     1       2.612   6.658  18.153  0.00  0.00    +0.000 NA
ATOM      5  C   UNL     1       2.289   5.225  17.945  0.00  0.00    +0.000 C 
ATOM      6  C   UNL     1       3.381   4.163  18.342  0.00  0.00    +0.000 C 
ENDROOT
BRANCH   1   7
ATOM      7  C   UNL     1       4.736   4.218  16.307  0.00  0.00    +0.000 C 
BRANCH   7   9
ATOM      8  C   UNL     1       6.353   4.699  14.411  0.00  0.00    +0.000 C 
ATOM      9  C   UNL     1       6.148   3.964  15.735  0.00  0.00    +0.000 C 
ATOM     10  C   UNL     1       7.215   4.374  16.752  0.00  0.00    +0.000 C 
ENDBRANCH   7   9
ENDBRANCH   1   7
BRANCH   4  11
ATOM     11  C   UNL     1       2.430   7.041  19.559  0.00  0.00    +0.000 C 
BRANCH  11  12
ATOM     12  C   UNL     1       1.549   8.236  19.816  0.00  0.00    +0.000 A 
ATOM     13  C   UNL     1       1.348   9.224  18.845  0.00  0.00    +0.000 A 
ATOM     14  C   UNL     1       0.489  10.286  19.097  0.00  0.00    +0.000 A 
ATOM     15  C   UNL     1      -0.183  10.370  20.327  0.00  0.00    +0.000 A 
ATOM     16  C   UNL     1       0.010   9.396  21.299  0.00  0.00    +0.000 A 
ATOM     17  C   UNL     1       0.872   8.331  21.045  0.00  0.00    +0.000 A 
BRANCH  15  18
ATOM     18  C   UNL     1      -1.059  11.465  20.578  0.00  0.00    +0.000 C 
ATOM     19  C   UNL     1      -1.792  12.398  20.771  0.00  0.00    +0.000 C 
BRANCH  19  20
ATOM     20  C   UNL     1      -2.679  13.548  20.980  0.00  0.00    +0.000 C 
ATOM     21  C   UNL     1      -2.613  14.007  22.435  0.00  0.00    +0.000 C 
ATOM     22  C   UNL     1      -4.107  13.187  20.582  0.00  0.00    +0.000 C 
BRANCH  20  23
ATOM     23  O   UNL     1      -2.250  14.625  20.149  0.00  0.00    +0.000 OA
ATOM     24  H   UNL     1      -1.436  14.333  19.704  0.00  0.00    +0.000 HD
ENDBRANCH  20  23
ENDBRANCH  19  20
ENDBRANCH  15  18
ENDBRANCH  11  12
ENDBRANCH   4  11
BRANCH   6  25
ATOM     25  C   UNL     1       3.476   3.926  19.878  0.00  0.00    +0.000 C 
BRANCH  25  26
ATOM     26  C   UNL     1       3.961   2.545  20.314  0.00  0.00    +0.000 C 
BRANCH  26  27
ATOM     27  O   UNL     1       5.151   2.169  19.636  0.00  0.00    +0.000 OA
ATOM     28  H   UNL     1       5.138   2.651  18.780  0.00  0.00    +0.000 HD
ENDBRANCH  26  27
ENDBRANCH  25  26
ENDBRANCH   6  25
TORSDOF 10
ENDMDL
MODEL 5
REMARK VINA RESULT:      -6.4      3.681      9.714
REMARK  Name = 
REMARK  14 active torsions:
REMARK  status: ('A' for Active; 'I' for Inactive)
REMARK    1  A    between atoms: C_1  and  C_2
REMARK    2  A    between atoms: C_2  and  C_3
REMARK    3  A    between atoms: C_2  and  C_4
REMARK    4  A    between atoms: C_4  and  N_5
REMARK    5  A    between atoms: N_8  and  C_9
REMARK    6  A    between atoms: C_9  and  C_10
REMARK    7  A    between atoms: C_13  and  C_14
REMARK    8  A    between atoms: C_15  and  C_16
REMARK    9  A    between atoms: C_16  and  C_17
REMARK   10  A    between atoms: C_16  and  C_18
REMARK   11  A    between atoms: C_16  and  O_19
REMARK   12  A    between atoms: C_23  and  C_24
REMARK   13  A    between atoms: C_24  and  C_25
REMARK   14  A    between atoms: C_25  and  O_26
REMARK                            x       y       z     vdW  Elec       q    Type
REMARK                         _______ _______ _______ _____ _____    ______ ____
ROOT
ATOM      1  N   UNL     1       4.538   4.278  17.384  0.00  0.00    +0.000 NA
ATOM      2  C   UNL     1       5.006   5.507  18.077  0.00  0.00    +0.000 C 
ATOM      3  C   UNL     1       4.102   6.744  17.885  0.00  0.00    +0.000 C 
ATOM      4  N   UNL     1       2.683   6.537  18.241  0.00  0.00    +0.000 NA
ATOM      5  C   UNL     1       2.209   5.265  17.641  0.00  0.00    +0.000 C 
ATOM      6  C   UNL     1       3.130   3.997  17.788  0.00  0.00    +0.000 C 
ENDROOT
BRANCH   1   7
ATOM      7  C   UNL     1       4.644   4.395  15.909  0.00  0.00    +0.000 C 
BRANCH   7   9
ATOM      8  C   UNL     1       5.929   3.807  13.802  0.00  0.00    +0.000 C 
ATOM      9  C   UNL     1       5.962   3.837  15.329  0.00  0.00    +0.000 C 
ATOM     10  C   UNL     1       7.153   4.659  15.828  0.00  0.00    +0.000 C 
ENDBRANCH   7   9
ENDBRANCH   1   7
BRANCH   4  11
ATOM     11  C   UNL     1       2.434   6.561  19.688  0.00  0.00    +0.000 C 
BRANCH  11  12
ATOM     12  C   UNL     1       1.739   7.786  20.225  0.00  0.00    +0.000 A 
ATOM     13  C   UNL     1       1.449   8.884  19.407  0.00  0.00    +0.000 A 
ATOM     14  C   UNL     1       0.761   9.976  19.922  0.00  0.00    +0.000 A 
ATOM     15  C   UNL     1       0.353   9.980  21.265  0.00  0.00    +0.000 A 
ATOM     16  C   UNL     1       0.636   8.895  22.087  0.00  0.00    +0.000 A 
ATOM     17  C   UNL     1       1.326   7.800  21.569  0.00  0.00    +0.000 A 
BRANCH  15  18
ATOM     18  C   UNL     1      -0.347  11.104  21.786  0.00  0.00    +0.000 C 
ATOM     19  C   UNL     1      -0.921  12.068  22.223  0.00  0.00    +0.000 C 
BRANCH  19  20
ATOM     20  C   UNL     1      -1.596  13.259  22.748  0.00  0.00    +0.000 C 
ATOM     21  C   UNL     1      -2.935  12.873  23.373  0.00  0.00    +0.000 C 
ATOM     22  C   UNL     1      -1.786  14.286  21.636  0.00  0.00    +0.000 C 
BRANCH  20  23
ATOM     23  O   UNL     1      -0.782  13.851  23.759  0.00  0.00    +0.000 OA
ATOM     24  H   UNL     1      -0.057  14.313  23.304  0.00  0.00    +0.000 HD
ENDBRANCH  20  23
ENDBRANCH  19  20
ENDBRANCH  15  18
ENDBRANCH  11  12
ENDBRANCH   4  11
BRANCH   6  25
ATOM     25  C   UNL     1       3.070   3.357  19.206  0.00  0.00    +0.000 C 
BRANCH  25  26
ATOM     26  C   UNL     1       3.913   2.100  19.410  0.00  0.00    +0.000 C 
BRANCH  26  27
ATOM     27  O   UNL     1       5.248   2.418  19.773  0.00  0.00    +0.000 OA
ATOM     28  H   UNL     1       5.809   1.710  19.388  0.00  0.00    +0.000 HD
ENDBRANCH  26  27
ENDBRANCH  25  26
ENDBRANCH   6  25
TORSDOF 10
ENDMDL
MODEL 6
REMARK VINA RESULT:      -6.3      3.842      9.934
REMARK  Name = 
REMARK  14 active torsions:
REMARK  status: ('A' for Active; 'I' for Inactive)
REMARK    1  A    between atoms: C_1  and  C_2
REMARK    2  A    between atoms: C_2  and  C_3
REMARK    3  A    between atoms: C_2  and  C_4
REMARK    4  A    between atoms: C_4  and  N_5
REMARK    5  A    between atoms: N_8  and  C_9
REMARK    6  A    between atoms: C_9  and  C_10
REMARK    7  A    between atoms: C_13  and  C_14
REMARK    8  A    between atoms: C_15  and  C_16
REMARK    9  A    between atoms: C_16  and  C_17
REMARK   10  A    between atoms: C_16  and  C_18
REMARK   11  A    between atoms: C_16  and  O_19
REMARK   12  A    between atoms: C_23  and  C_24
REMARK   13  A    between atoms: C_24  and  C_25
REMARK   14  A    between atoms: C_25  and  O_26
REMARK                            x       y       z     vdW  Elec       q    Type
REMARK                         _______ _______ _______ _____ _____    ______ ____
ROOT
ATOM      1  N   UNL     1       6.100   4.954  16.212  0.00  0.00    +0.000 NA
ATOM      2  C   UNL     1       4.858   5.767  16.275  0.00  0.00    +0.000 C 
ATOM      3  C   UNL     1       3.716   5.146  17.108  0.00  0.00    +0.000 C 
ATOM      4  N   UNL     1       4.085   4.779  18.491  0.00  0.00    +0.000 NA
ATOM      5  C   UNL     1       5.375   4.044  18.474  0.00  0.00    +0.000 C 
ATOM      6  C   UNL     1       6.544   4.635  17.601  0.00  0.00    +0.000 C 
ENDROOT
BRANCH   1   7
ATOM      7  C   UNL     1       5.913   3.710  15.426  0.00  0.00    +0.000 C 
BRANCH   7   9
ATOM      8  C   UNL     1       5.461   3.613  12.932  0.00  0.00    +0.000 C 
ATOM      9  C   UNL     1       6.531   3.764  14.012  0.00  0.00    +0.000 C 
ATOM     10  C   UNL     1       7.311   5.066  13.822  0.00  0.00    +0.000 C 
ENDBRANCH   7   9
ENDBRANCH   1   7
BRANCH   4  11
ATOM     11  C   UNL     1       4.147   5.927  19.404  0.00  0.00    +0.000 C 
BRANCH  11  12
ATOM     12  C   UNL     1       3.072   6.971  19.235  0.00  0.00    +0.000 A 
ATOM     13  C   UNL     1       2.081   7.169  20.204  0.00  0.00    +0.000 A 
ATOM     14  C   UNL     1       1.137   8.174  20.040  0.00  0.00    +0.000 A 
ATOM     15  C   UNL     1       1.175   8.998  18.905  0.00  0.00    +0.000 A 
ATOM     16  C   UNL     1       2.154   8.811  17.936  0.00  0.00    +0.000 A 
ATOM     17  C   UNL     1       3.102   7.801  18.100  0.00  0.00    +0.000 A 
BRANCH  15  18
ATOM     18  C   UNL     1       0.201  10.024  18.743  0.00  0.00    +0.000 C 
ATOM     19  C   UNL     1      -0.620  10.888  18.584  0.00  0.00    +0.000 C 
BRANCH  19  20
ATOM     20  C   UNL     1      -1.621  11.936  18.361  0.00  0.00    +0.000 C 
ATOM     21  C   UNL     1      -1.908  12.678  19.665  0.00  0.00    +0.000 C 
ATOM     22  C   UNL     1      -2.896  11.329  17.783  0.00  0.00    +0.000 C 
BRANCH  20  23
ATOM     23  O   UNL     1      -1.112  12.874  17.413  0.00  0.00    +0.000 OA
ATOM     24  H   UNL     1      -0.345  13.307  17.827  0.00  0.00    +0.000 HD
ENDBRANCH  20  23
ENDBRANCH  19  20
ENDBRANCH  15  18
ENDBRANCH  11  12
ENDBRANCH   4  11
BRANCH   6  25
ATOM     25  C   UNL     1       7.243   5.859  18.261  0.00  0.00    +0.000 C 
BRANCH  25  26
ATOM     26  C   UNL     1       8.345   5.538  19.269  0.00  0.00    +0.000 C 
BRANCH  26  27
ATOM     27  O   UNL     1       7.843   5.490  20.597  0.00  0.00    +0.000 OA
ATOM     28  H   UNL     1       7.375   6.342  20.740  0.00  0.00    +0.000 HD
ENDBRANCH  26  27
ENDBRANCH  25  26
ENDBRANCH   6  25
TORSDOF 10
ENDMDL
MODEL 7
REMARK VINA RESULT:      -6.3      2.484      3.248
REMARK  Name = 
REMARK  14 active torsions:
REMARK  status: ('A' for Active; 'I' for Inactive)
REMARK    1  A    between atoms: C_1  and  C_2
REMARK    2  A    between atoms: C_2  and  C_3
REMARK    3  A    between atoms: C_2  and  C_4
REMARK    4  A    between atoms: C_4  and  N_5
REMARK    5  A    between atoms: N_8  and  C_9
REMARK    6  A    between atoms: C_9  and  C_10
REMARK    7  A    between atoms: C_13  and  C_14
REMARK    8  A    between atoms: C_15  and  C_16
REMARK    9  A    between atoms: C_16  and  C_17
REMARK   10  A    between atoms: C_16  and  C_18
REMARK   11  A    between atoms: C_16  and  O_19
REMARK   12  A    between atoms: C_23  and  C_24
REMARK   13  A    between atoms: C_24  and  C_25
REMARK   14  A    between atoms: C_25  and  O_26
REMARK                            x       y       z     vdW  Elec       q    Type
REMARK                         _______ _______ _______ _____ _____    ______ ____
ROOT
ATOM      1  N   UNL     1      -1.352  13.694  21.300  0.00  0.00    +0.000 NA
ATOM      2  C   UNL     1      -0.382  12.759  21.927  0.00  0.00    +0.000 C 
ATOM      3  C   UNL     1      -0.630  11.266  21.623  0.00  0.00    +0.000 C 
ATOM      4  N   UNL     1      -0.715  10.932  20.186  0.00  0.00    +0.000 NA
ATOM      5  C   UNL     1      -1.606  11.907  19.509  0.00  0.00    +0.000 C 
ATOM      6  C   UNL     1      -1.400  13.434  19.831  0.00  0.00    +0.000 C 
ENDROOT
BRANCH   1   7
ATOM      7  C   UNL     1      -2.705  13.576  21.895  0.00  0.00    +0.000 C 
BRANCH   7   9
ATOM      8  C   UNL     1      -3.057  15.026  23.947  0.00  0.00    +0.000 C 
ATOM      9  C   UNL     1      -2.718  13.626  23.438  0.00  0.00    +0.000 C 
ATOM     10  C   UNL     1      -3.704  12.595  23.995  0.00  0.00    +0.000 C 
ENDBRANCH   7   9
ENDBRANCH   1   7
BRANCH   4  11
ATOM     11  C   UNL     1       0.593  10.865  19.522  0.00  0.00    +0.000 C 
BRANCH  11  12
ATOM     12  C   UNL     1       1.196   9.492  19.373  0.00  0.00    +0.000 A 
ATOM     13  C   UNL     1       1.749   9.060  18.162  0.00  0.00    +0.000 A 
ATOM     14  C   UNL     1       2.342   7.806  18.074  0.00  0.00    +0.000 A 
ATOM     15  C   UNL     1       2.391   6.971  19.201  0.00  0.00    +0.000 A 
ATOM     16  C   UNL     1       1.844   7.389  20.408  0.00  0.00    +0.000 A 
ATOM     17  C   UNL     1       1.249   8.646  20.496  0.00  0.00    +0.000 A 
BRANCH  15  18
ATOM     18  C   UNL     1       2.998   5.686  19.101  0.00  0.00    +0.000 C 
ATOM     19  C   UNL     1       3.530   4.610  19.025  0.00  0.00    +0.000 C 
BRANCH  19  20
ATOM     20  C   UNL     1       4.202   3.309  18.944  0.00  0.00    +0.000 C 
ATOM     21  C   UNL     1       3.712   2.537  17.721  0.00  0.00    +0.000 C 
ATOM     22  C   UNL     1       3.964   2.516  20.226  0.00  0.00    +0.000 C 
BRANCH  20  23
ATOM     23  O   UNL     1       5.607   3.517  18.811  0.00  0.00    +0.000 OA
ATOM     24  H   UNL     1       6.029   3.111  19.588  0.00  0.00    +0.000 HD
ENDBRANCH  20  23
ENDBRANCH  19  20
ENDBRANCH  15  18
ENDBRANCH  11  12
ENDBRANCH   4  11
BRANCH   6  25
ATOM     25  C   UNL     1      -0.165  14.052  19.111  0.00  0.00    +0.000 C 
BRANCH  25  26
ATOM     26  C   UNL     1      -0.204  15.563  18.893  0.00  0.00    +0.000 C 
BRANCH  26  27
ATOM     27  O   UNL     1      -1.446  16.119  19.297  0.00  0.00    +0.000 OA
ATOM     28  H   UNL     1      -1.856  16.485  18.482  0.00  0.00    +0.000 HD
ENDBRANCH  26  27
ENDBRANCH  25  26
ENDBRANCH   6  25
TORSDOF 10
ENDMDL
MODEL 8
REMARK VINA RESULT:      -6.3      3.587      9.596
REMARK  Name = 
REMARK  14 active torsions:
REMARK  status: ('A' for Active; 'I' for Inactive)
REMARK    1  A    between atoms: C_1  and  C_2
REMARK    2  A    between atoms: C_2  and  C_3
REMARK    3  A    between atoms: C_2  and  C_4
REMARK    4  A    between atoms: C_4  and  N_5
REMARK    5  A    between atoms: N_8  and  C_9
REMARK    6  A    between atoms: C_9  and  C_10
REMARK    7  A    between atoms: C_13  and  C_14
REMARK    8  A    between atoms: C_15  and  C_16
REMARK    9  A    between atoms: C_16  and  C_17
REMARK   10  A    between atoms: C_16  and  C_18
REMARK   11  A    between atoms: C_16  and  O_19
REMARK   12  A    between atoms: C_23  and  C_24
REMARK   13  A    between atoms: C_24  and  C_25
REMARK   14  A    between atoms: C_25  and  O_26
REMARK                            x       y       z     vdW  Elec       q    Type
REMARK                         _______ _______ _______ _____ _____    ______ ____
ROOT
ATOM      1  N   UNL     1       4.702   4.515  17.387  0.00  0.00    +0.000 NA
ATOM      2  C   UNL     1       5.091   5.814  17.994  0.00  0.00    +0.000 C 
ATOM      3  C   UNL     1       4.076   6.959  17.785  0.00  0.00    +0.000 C 
ATOM      4  N   UNL     1       2.698   6.652  18.220  0.00  0.00    +0.000 NA
ATOM      5  C   UNL     1       2.309   5.315  17.708  0.00  0.00    +0.000 C 
ATOM      6  C   UNL     1       3.342   4.138  17.873  0.00  0.00    +0.000 C 
ENDROOT
BRANCH   1   7
ATOM      7  C   UNL     1       4.732   4.560  15.905  0.00  0.00    +0.000 C 
BRANCH   7   9
ATOM      8  C   UNL     1       5.867   3.800  13.767  0.00  0.00    +0.000 C 
ATOM      9  C   UNL     1       5.997   3.930  15.284  0.00  0.00    +0.000 C 
ATOM     10  C   UNL     1       7.235   4.751  15.652  0.00  0.00    +0.000 C 
ENDBRANCH   7   9
ENDBRANCH   1   7
BRANCH   4  11
ATOM     11  C   UNL     1       2.512   6.733  19.674  0.00  0.00    +0.000 C 
BRANCH  11  12
ATOM     12  C   UNL     1       1.691   7.892  20.178  0.00  0.00    +0.000 A 
ATOM     13  C   UNL     1       1.378   8.982  19.358  0.00  0.00    +0.000 A 
ATOM     14  C   UNL     1       0.576  10.010  19.839  0.00  0.00    +0.000 A 
ATOM     15  C   UNL     1       0.075   9.957  21.149  0.00  0.00    +0.000 A 
ATOM     16  C   UNL     1       0.380   8.880  21.973  0.00  0.00    +0.000 A 
ATOM     17  C   UNL     1       1.185   7.849  21.490  0.00  0.00    +0.000 A 
BRANCH  15  18
ATOM     18  C   UNL     1      -0.743  11.016  21.635  0.00  0.00    +0.000 C 
ATOM     19  C   UNL     1      -1.415  11.924  22.048  0.00  0.00    +0.000 C 
BRANCH  19  20
ATOM     20  C   UNL     1      -2.210  13.049  22.552  0.00  0.00    +0.000 C 
ATOM     21  C   UNL     1      -1.321  14.017  23.329  0.00  0.00    +0.000 C 
ATOM     22  C   UNL     1      -3.352  12.534  23.424  0.00  0.00    +0.000 C 
BRANCH  20  23
ATOM     23  O   UNL     1      -2.782  13.749  21.448  0.00  0.00    +0.000 OA
ATOM     24  H   UNL     1      -3.571  13.251  21.174  0.00  0.00    +0.000 HD
ENDBRANCH  20  23
ENDBRANCH  19  20
ENDBRANCH  15  18
ENDBRANCH  11  12
ENDBRANCH   4  11
BRANCH   6  25
ATOM     25  C   UNL     1       3.400   3.573  19.322  0.00  0.00    +0.000 C 
BRANCH  25  26
ATOM     26  C   UNL     1       2.195   2.749  19.770  0.00  0.00    +0.000 C 
BRANCH  26  27
ATOM     27  O   UNL     1       1.961   1.649  18.903  0.00  0.00    +0.000 OA
ATOM     28  H   UNL     1       1.280   1.949  18.262  0.00  0.00    +0.000 HD
ENDBRANCH  26  27
ENDBRANCH  25  26
ENDBRANCH   6  25
TORSDOF 10
ENDMDL
MODEL 9
REMARK VINA RESULT:      -6.2      3.435      9.667
REMARK  Name = 
REMARK  14 active torsions:
REMARK  status: ('A' for Active; 'I' for Inactive)
REMARK    1  A    between atoms: C_1  and  C_2
REMARK    2  A    between atoms: C_2  and  C_3
REMARK    3  A    between atoms: C_2  and  C_4
REMARK    4  A    between atoms: C_4  and  N_5
REMARK    5  A    between atoms: N_8  and  C_9
REMARK    6  A    between atoms: C_9  and  C_10
REMARK    7  A    between atoms: C_13  and  C_14
REMARK    8  A    between atoms: C_15  and  C_16
REMARK    9  A    between atoms: C_16  and  C_17
REMARK   10  A    between atoms: C_16  and  C_18
REMARK   11  A    between atoms: C_16  and  O_19
REMARK   12  A    between atoms: C_23  and  C_24
REMARK   13  A    between atoms: C_24  and  C_25
REMARK   14  A    between atoms: C_25  and  O_26
REMARK                            x       y       z     vdW  Elec       q    Type
REMARK                         _______ _______ _______ _____ _____    ______ ____
ROOT
ATOM      1  N   UNL     1       4.722   4.487  17.696  0.00  0.00    +0.000 NA
ATOM      2  C   UNL     1       4.992   5.896  18.085  0.00  0.00    +0.000 C 
ATOM      3  C   UNL     1       3.849   6.885  17.776  0.00  0.00    +0.000 C 
ATOM      4  N   UNL     1       2.534   6.507  18.333  0.00  0.00    +0.000 NA
ATOM      5  C   UNL     1       2.273   5.075  18.043  0.00  0.00    +0.000 C 
ATOM      6  C   UNL     1       3.436   4.049  18.313  0.00  0.00    +0.000 C 
ENDROOT
BRANCH   1   7
ATOM      7  C   UNL     1       4.681   4.313  16.224  0.00  0.00    +0.000 C 
BRANCH   7   9
ATOM      8  C   UNL     1       6.044   3.995  14.108  0.00  0.00    +0.000 C 
ATOM      9  C   UNL     1       5.995   3.774  15.619  0.00  0.00    +0.000 C 
ATOM     10  C   UNL     1       7.200   4.426  16.300  0.00  0.00    +0.000 C 
ENDBRANCH   7   9
ENDBRANCH   1   7
BRANCH   4  11
ATOM     11  C   UNL     1       2.405   6.785  19.769  0.00  0.00    +0.000 C 
BRANCH  11  12
ATOM     12  C   UNL     1       1.584   7.992  20.144  0.00  0.00    +0.000 A 
ATOM     13  C   UNL     1       1.345   9.029  19.234  0.00  0.00    +0.000 A 
ATOM     14  C   UNL     1       0.541  10.103  19.597  0.00  0.00    +0.000 A 
ATOM     15  C   UNL     1      -0.036  10.150  20.875  0.00  0.00    +0.000 A 
ATOM     16  C   UNL     1       0.196   9.127  21.787  0.00  0.00    +0.000 A 
ATOM     17  C   UNL     1       1.002   8.049  21.423  0.00  0.00    +0.000 A 
BRANCH  15  18
ATOM     18  C   UNL     1      -0.856  11.256  21.240  0.00  0.00    +0.000 C 
ATOM     19  C   UNL     1      -1.565  12.181  21.536  0.00  0.00    +0.000 C 
BRANCH  19  20
ATOM     20  C   UNL     1      -2.454  13.295  21.884  0.00  0.00    +0.000 C 
ATOM     21  C   UNL     1      -2.189  14.486  20.965  0.00  0.00    +0.000 C 
ATOM     22  C   UNL     1      -2.263  13.679  23.348  0.00  0.00    +0.000 C 
BRANCH  20  23
ATOM     23  O   UNL     1      -3.809  12.884  21.709  0.00  0.00    +0.000 OA
ATOM     24  H   UNL     1      -3.893  12.566  20.794  0.00  0.00    +0.000 HD
ENDBRANCH  20  23
ENDBRANCH  19  20
ENDBRANCH  15  18
ENDBRANCH  11  12
ENDBRANCH   4  11
BRANCH   6  25
ATOM     25  C   UNL     1       3.622   3.717  19.823  0.00  0.00    +0.000 C 
BRANCH  25  26
ATOM     26  C   UNL     1       2.478   2.952  20.486  0.00  0.00    +0.000 C 
BRANCH  26  27
ATOM     27  O   UNL     1       2.409   3.220  21.879  0.00  0.00    +0.000 OA
ATOM     28  H   UNL     1       2.997   3.991  22.036  0.00  0.00    +0.000 HD
ENDBRANCH  26  27
ENDBRANCH  25  26
ENDBRANCH   6  25
TORSDOF 10
ENDMDL
