MODEL 1
REMARK VINA RESULT:      -8.4      0.000      0.000
REMARK  Name = 
REMARK  9 active torsions:
REMARK  status: ('A' for Active; 'I' for Inactive)
REMARK    1  A    between atoms: C_6  and  C_7
REMARK    2  A    between atoms: C_10  and  O_11
REMARK    3  A    between atoms: C_12  and  C_13
REMARK    4  A    between atoms: C_12  and  C_14
REMARK    5  A    between atoms: C_14  and  O_15
REMARK    6  A    between atoms: C_16  and  C_17
REMARK    7  A    between atoms: C_17  and  C_18
REMARK    8  A    between atoms: C_18  and  O_19
REMARK    9  A    between atoms: C_18  and  C_20
REMARK                            x       y       z     vdW  Elec       q    Type
REMARK                         _______ _______ _______ _____ _____    ______ ____
ROOT
ATOM      1  C   UNL     1       5.680   7.339  17.605  0.00  0.00    +0.000 C 
ATOM      2  C   UNL     1       4.556   6.622  17.438  0.00  0.00    +0.000 C 
ATOM      3  C   UNL     1       3.255   7.107  18.041  0.00  0.00    +0.000 C 
ATOM      4  C   UNL     1       2.738   6.150  19.130  0.00  0.00    +0.000 C 
ATOM      5  C   UNL     1       2.651   4.691  18.640  0.00  0.00    +0.000 C 
ATOM      6  C   UNL     1       3.984   4.208  17.950  0.00  0.00    +0.000 C 
ATOM      7  C   UNL     1       5.178   4.122  18.946  0.00  0.00    +0.000 C 
ATOM      8  C   UNL     1       3.689   2.838  17.270  0.00  0.00    +0.000 C 
ATOM      9  C   UNL     1       2.819   1.824  18.000  0.00  0.00    +0.000 C 
ATOM     10  C   UNL     1       1.648   2.384  18.803  0.00  0.00    +0.000 C 
ATOM     11  C   UNL     1       2.013   3.631  19.658  0.00  0.00    +0.000 C 
ATOM     12  C   UNL     1       0.711   4.188  20.290  0.00  0.00    +0.000 C 
ATOM     13  C   UNL     1       4.465   5.235  16.802  0.00  0.00    +0.000 C 
ENDROOT
BRANCH  10  14
ATOM     14  O   UNL     1       1.103   1.335  19.610  0.00  0.00    +0.000 OA
ATOM     15  H   UNL     1       0.437   1.712  20.211  0.00  0.00    +0.000 HD
ENDBRANCH  10  14
BRANCH  11  16
ATOM     16  C   UNL     1       2.867   3.154  20.863  0.00  0.00    +0.000 C 
BRANCH  16  17
ATOM     17  O   UNL     1       2.084   2.641  21.929  0.00  0.00    +0.000 OA
ATOM     18  H   UNL     1       2.277   3.178  22.717  0.00  0.00    +0.000 HD
ENDBRANCH  16  17
ENDBRANCH  11  16
BRANCH  13  19
ATOM     19  C   UNL     1       5.746   4.665  16.098  0.00  0.00    +0.000 C 
BRANCH  19  20
ATOM     20  C   UNL     1       6.403   5.373  14.910  0.00  0.00    +0.000 C 
BRANCH  20  21
ATOM     21  C   UNL     1       6.570   4.580  13.675  0.00  0.00    +0.000 C 
ATOM     22  C   UNL     1       5.866   3.527  13.250  0.00  0.00    +0.000 C 
ATOM     23  C   UNL     1       6.325   3.105  11.915  0.00  0.00    +0.000 C 
ATOM     24  O   UNL     1       7.373   4.009  11.590  0.00  0.00    +0.000 OA
ATOM     25  C   UNL     1       7.519   4.909  12.612  0.00  0.00    +0.000 C 
ATOM     26  O   UNL     1       8.282   5.853  12.609  0.00  0.00    +0.000 OA
ENDBRANCH  20  21
BRANCH  20  27
ATOM     27  O   UNL     1       7.714   5.787  15.335  0.00  0.00    +0.000 OA
ATOM     28  H   UNL     1       7.615   6.651  15.788  0.00  0.00    +0.000 HD
ENDBRANCH  20  27
ENDBRANCH  19  20
ENDBRANCH  13  19
TORSDOF 7
ENDMDL
MODEL 2
REMARK VINA RESULT:      -8.2      3.632      6.514
REMARK  Name = 
REMARK  9 active torsions:
REMARK  status: ('A' for Active; 'I' for Inactive)
REMARK    1  A    between atoms: C_6  and  C_7
REMARK    2  A    between atoms: C_10  and  O_11
REMARK    3  A    between atoms: C_12  and  C_13
REMARK    4  A    between atoms: C_12  and  C_14
REMARK    5  A    between atoms: C_14  and  O_15
REMARK    6  A    between atoms: C_16  and  C_17
REMARK    7  A    between atoms: C_17  and  C_18
REMARK    8  A    between atoms: C_18  and  O_19
REMARK    9  A    between atoms: C_18  and  C_20
REMARK                            x       y       z     vdW  Elec       q    Type
REMARK                         _______ _______ _______ _____ _____    ______ ____
ROOT
ATOM      1  C   UNL     1       4.763   6.681  16.272  0.00  0.00    +0.000 C 
ATOM      2  C   UNL     1       4.677   6.337  17.568  0.00  0.00    +0.000 C 
ATOM      3  C   UNL     1       5.744   5.460  18.189  0.00  0.00    +0.000 C 
ATOM      4  C   UNL     1       5.181   4.096  18.625  0.00  0.00    +0.000 C 
ATOM      5  C   UNL     1       3.936   4.232  19.525  0.00  0.00    +0.000 C 
ATOM      6  C   UNL     1       2.854   5.200  18.910  0.00  0.00    +0.000 C 
ATOM      7  C   UNL     1       2.221   4.638  17.602  0.00  0.00    +0.000 C 
ATOM      8  C   UNL     1       1.784   5.464  20.010  0.00  0.00    +0.000 C 
ATOM      9  C   UNL     1       1.333   4.309  20.894  0.00  0.00    +0.000 C 
ATOM     10  C   UNL     1       2.407   3.304  21.302  0.00  0.00    +0.000 C 
ATOM     11  C   UNL     1       3.340   2.875  20.132  0.00  0.00    +0.000 C 
ATOM     12  C   UNL     1       4.471   1.986  20.711  0.00  0.00    +0.000 C 
ATOM     13  C   UNL     1       3.493   6.621  18.494  0.00  0.00    +0.000 C 
ENDROOT
BRANCH  10  14
ATOM     14  O   UNL     1       1.772   2.174  21.907  0.00  0.00    +0.000 OA
ATOM     15  H   UNL     1       0.917   2.019  21.469  0.00  0.00    +0.000 HD
ENDBRANCH  10  14
BRANCH  11  16
ATOM     16  C   UNL     1       2.535   1.935  19.196  0.00  0.00    +0.000 C 
BRANCH  16  17
ATOM     17  O   UNL     1       3.364   1.145  18.358  0.00  0.00    +0.000 OA
ATOM     18  H   UNL     1       3.147   0.212  18.529  0.00  0.00    +0.000 HD
ENDBRANCH  16  17
ENDBRANCH  11  16
BRANCH  13  19
ATOM     19  C   UNL     1       2.360   7.567  17.965  0.00  0.00    +0.000 C 
BRANCH  19  20
ATOM     20  C   UNL     1       2.202   9.005  18.467  0.00  0.00    +0.000 C 
BRANCH  20  21
ATOM     21  C   UNL     1       1.181   9.236  19.509  0.00  0.00    +0.000 C 
ATOM     22  C   UNL     1       1.098   8.713  20.735  0.00  0.00    +0.000 C 
ATOM     23  C   UNL     1      -0.040   9.296  21.468  0.00  0.00    +0.000 C 
ATOM     24  O   UNL     1      -0.627  10.214  20.554  0.00  0.00    +0.000 OA
ATOM     25  C   UNL     1       0.098  10.212  19.393  0.00  0.00    +0.000 C 
ATOM     26  O   UNL     1      -0.104  10.939  18.442  0.00  0.00    +0.000 OA
ENDBRANCH  20  21
BRANCH  20  27
ATOM     27  O   UNL     1       1.846   9.814  17.331  0.00  0.00    +0.000 OA
ATOM     28  H   UNL     1       0.947  10.168  17.495  0.00  0.00    +0.000 HD
ENDBRANCH  20  27
ENDBRANCH  19  20
ENDBRANCH  13  19
TORSDOF 7
ENDMDL
MODEL 3
REMARK VINA RESULT:      -8.1      3.613      6.483
REMARK  Name = 
REMARK  9 active torsions:
REMARK  status: ('A' for Active; 'I' for Inactive)
REMARK    1  A    between atoms: C_6  and  C_7
REMARK    2  A    between atoms: C_10  and  O_11
REMARK    3  A    between atoms: C_12  and  C_13
REMARK    4  A    between atoms: C_12  and  C_14
REMARK    5  A    between atoms: C_14  and  O_15
REMARK    6  A    between atoms: C_16  and  C_17
REMARK    7  A    between atoms: C_17  and  C_18
REMARK    8  A    between atoms: C_18  and  O_19
REMARK    9  A    between atoms: C_18  and  C_20
REMARK                            x       y       z     vdW  Elec       q    Type
REMARK                         _______ _______ _______ _____ _____    ______ ____
ROOT
ATOM      1  C   UNL     1       4.673   6.762  16.289  0.00  0.00    +0.000 C 
ATOM      2  C   UNL     1       4.606   6.400  17.581  0.00  0.00    +0.000 C 
ATOM      3  C   UNL     1       5.691   5.529  18.179  0.00  0.00    +0.000 C 
ATOM      4  C   UNL     1       5.148   4.153  18.604  0.00  0.00    +0.000 C 
ATOM      5  C   UNL     1       3.913   4.264  19.520  0.00  0.00    +0.000 C 
ATOM      6  C   UNL     1       2.812   5.226  18.930  0.00  0.00    +0.000 C 
ATOM      7  C   UNL     1       2.171   4.673  17.623  0.00  0.00    +0.000 C 
ATOM      8  C   UNL     1       1.752   5.464  20.046  0.00  0.00    +0.000 C 
ATOM      9  C   UNL     1       1.325   4.293  20.921  0.00  0.00    +0.000 C 
ATOM     10  C   UNL     1       2.416   3.296  21.303  0.00  0.00    +0.000 C 
ATOM     11  C   UNL     1       3.339   2.892  20.118  0.00  0.00    +0.000 C 
ATOM     12  C   UNL     1       4.488   2.010  20.672  0.00  0.00    +0.000 C 
ATOM     13  C   UNL     1       3.431   6.660  18.524  0.00  0.00    +0.000 C 
ENDROOT
BRANCH  10  14
ATOM     14  O   UNL     1       1.800   2.151  21.902  0.00  0.00    +0.000 OA
ATOM     15  H   UNL     1       2.209   1.346  21.539  0.00  0.00    +0.000 HD
ENDBRANCH  10  14
BRANCH  11  16
ATOM     16  C   UNL     1       2.534   1.954  19.179  0.00  0.00    +0.000 C 
BRANCH  16  17
ATOM     17  O   UNL     1       3.364   1.124  18.381  0.00  0.00    +0.000 OA
ATOM     18  H   UNL     1       4.247   1.118  18.788  0.00  0.00    +0.000 HD
ENDBRANCH  16  17
ENDBRANCH  11  16
BRANCH  13  19
ATOM     19  C   UNL     1       2.280   7.599  18.021  0.00  0.00    +0.000 C 
BRANCH  19  20
ATOM     20  C   UNL     1       2.231   9.087  18.379  0.00  0.00    +0.000 C 
BRANCH  20  21
ATOM     21  C   UNL     1       1.028   9.556  19.098  0.00  0.00    +0.000 C 
ATOM     22  C   UNL     1      -0.047  10.186  18.617  0.00  0.00    +0.000 C 
ATOM     23  C   UNL     1      -1.048  10.384  19.680  0.00  0.00    +0.000 C 
ATOM     24  O   UNL     1      -0.459   9.812  20.841  0.00  0.00    +0.000 OA
ATOM     25  C   UNL     1       0.764   9.293  20.512  0.00  0.00    +0.000 C 
ATOM     26  O   UNL     1       1.487   8.674  21.267  0.00  0.00    +0.000 OA
ENDBRANCH  20  21
BRANCH  20  27
ATOM     27  O   UNL     1       2.306   9.823  17.145  0.00  0.00    +0.000 OA
ATOM     28  H   UNL     1       1.908   9.263  16.446  0.00  0.00    +0.000 HD
ENDBRANCH  20  27
ENDBRANCH  19  20
ENDBRANCH  13  19
TORSDOF 7
ENDMDL
MODEL 4
REMARK VINA RESULT:      -8.0      3.649      7.557
REMARK  Name = 
REMARK  9 active torsions:
REMARK  status: ('A' for Active; 'I' for Inactive)
REMARK    1  A    between atoms: C_6  and  C_7
REMARK    2  A    between atoms: C_10  and  O_11
REMARK    3  A    between atoms: C_12  and  C_13
REMARK    4  A    between atoms: C_12  and  C_14
REMARK    5  A    between atoms: C_14  and  O_15
REMARK    6  A    between atoms: C_16  and  C_17
REMARK    7  A    between atoms: C_17  and  C_18
REMARK    8  A    between atoms: C_18  and  O_19
REMARK    9  A    between atoms: C_18  and  C_20
REMARK                            x       y       z     vdW  Elec       q    Type
REMARK                         _______ _______ _______ _____ _____    ______ ____
ROOT
ATOM      1  C   UNL     1       1.263   4.190  19.933  0.00  0.00    +0.000 C 
ATOM      2  C   UNL     1       1.801   4.594  18.770  0.00  0.00    +0.000 C 
ATOM      3  C   UNL     1       2.005   3.600  17.647  0.00  0.00    +0.000 C 
ATOM      4  C   UNL     1       3.498   3.390  17.333  0.00  0.00    +0.000 C 
ATOM      5  C   UNL     1       4.240   4.719  17.084  0.00  0.00    +0.000 C 
ATOM      6  C   UNL     1       3.972   5.779  18.220  0.00  0.00    +0.000 C 
ATOM      7  C   UNL     1       4.570   5.351  19.592  0.00  0.00    +0.000 C 
ATOM      8  C   UNL     1       4.545   7.143  17.731  0.00  0.00    +0.000 C 
ATOM      9  C   UNL     1       5.877   7.162  16.994  0.00  0.00    +0.000 C 
ATOM     10  C   UNL     1       6.146   6.000  16.043  0.00  0.00    +0.000 C 
ATOM     11  C   UNL     1       5.773   4.608  16.632  0.00  0.00    +0.000 C 
ATOM     12  C   UNL     1       5.944   3.544  15.517  0.00  0.00    +0.000 C 
ATOM     13  C   UNL     1       2.393   5.976  18.489  0.00  0.00    +0.000 C 
ENDROOT
BRANCH  10  14
ATOM     14  O   UNL     1       7.518   6.047  15.638  0.00  0.00    +0.000 OA
ATOM     15  H   UNL     1       8.063   6.310  16.399  0.00  0.00    +0.000 HD
ENDBRANCH  10  14
BRANCH  11  16
ATOM     16  C   UNL     1       6.836   4.239  17.701  0.00  0.00    +0.000 C 
BRANCH  16  17
ATOM     17  O   UNL     1       8.127   4.032  17.150  0.00  0.00    +0.000 OA
ATOM     18  H   UNL     1       8.777   4.296  17.824  0.00  0.00    +0.000 HD
ENDBRANCH  16  17
ENDBRANCH  11  16
BRANCH  13  19
ATOM     19  C   UNL     1       2.186   7.095  19.568  0.00  0.00    +0.000 C 
BRANCH  19  20
ATOM     20  C   UNL     1       1.882   8.546  19.184  0.00  0.00    +0.000 C 
BRANCH  20  21
ATOM     21  C   UNL     1       0.935   9.277  20.051  0.00  0.00    +0.000 C 
ATOM     22  C   UNL     1       0.510   8.969  21.279  0.00  0.00    +0.000 C 
ATOM     23  C   UNL     1      -0.364  10.032  21.804  0.00  0.00    +0.000 C 
ATOM     24  O   UNL     1      -0.418  11.002  20.766  0.00  0.00    +0.000 OA
ATOM     25  C   UNL     1       0.367  10.584  19.724  0.00  0.00    +0.000 C 
ATOM     26  O   UNL     1       0.587  11.223  18.716  0.00  0.00    +0.000 OA
ENDBRANCH  20  21
BRANCH  20  27
ATOM     27  O   UNL     1       1.320   8.526  17.859  0.00  0.00    +0.000 OA
ATOM     28  H   UNL     1       0.418   8.903  17.919  0.00  0.00    +0.000 HD
ENDBRANCH  20  27
ENDBRANCH  19  20
ENDBRANCH  13  19
TORSDOF 7
ENDMDL
MODEL 5
REMARK VINA RESULT:      -7.6      3.289      7.533
REMARK  Name = 
REMARK  9 active torsions:
REMARK  status: ('A' for Active; 'I' for Inactive)
REMARK    1  A    between atoms: C_6  and  C_7
REMARK    2  A    between atoms: C_10  and  O_11
REMARK    3  A    between atoms: C_12  and  C_13
REMARK    4  A    between atoms: C_12  and  C_14
REMARK    5  A    between atoms: C_14  and  O_15
REMARK    6  A    between atoms: C_16  and  C_17
REMARK    7  A    between atoms: C_17  and  C_18
REMARK    8  A    between atoms: C_18  and  O_19
REMARK    9  A    between atoms: C_18  and  C_20
REMARK                            x       y       z     vdW  Elec       q    Type
REMARK                         _______ _______ _______ _____ _____    ______ ____
ROOT
ATOM      1  C   UNL     1       1.320   4.253  19.986  0.00  0.00    +0.000 C 
ATOM      2  C   UNL     1       1.840   4.591  18.794  0.00  0.00    +0.000 C 
ATOM      3  C   UNL     1       2.074   3.527  17.743  0.00  0.00    +0.000 C 
ATOM      4  C   UNL     1       3.571   3.346  17.436  0.00  0.00    +0.000 C 
ATOM      5  C   UNL     1       4.266   4.678  17.088  0.00  0.00    +0.000 C 
ATOM      6  C   UNL     1       3.966   5.807  18.147  0.00  0.00    +0.000 C 
ATOM      7  C   UNL     1       4.584   5.499  19.543  0.00  0.00    +0.000 C 
ATOM      8  C   UNL     1       4.489   7.151  17.559  0.00  0.00    +0.000 C 
ATOM      9  C   UNL     1       5.817   7.164  16.814  0.00  0.00    +0.000 C 
ATOM     10  C   UNL     1       6.123   5.946  15.946  0.00  0.00    +0.000 C 
ATOM     11  C   UNL     1       5.801   4.588  16.636  0.00  0.00    +0.000 C 
ATOM     12  C   UNL     1       6.004   3.454  15.599  0.00  0.00    +0.000 C 
ATOM     13  C   UNL     1       2.383   5.969  18.412  0.00  0.00    +0.000 C 
ENDROOT
BRANCH  10  14
ATOM     14  O   UNL     1       7.491   6.011  15.531  0.00  0.00    +0.000 OA
ATOM     15  H   UNL     1       7.523   6.171  14.572  0.00  0.00    +0.000 HD
ENDBRANCH  10  14
BRANCH  11  16
ATOM     16  C   UNL     1       6.879   4.333  17.722  0.00  0.00    +0.000 C 
BRANCH  16  17
ATOM     17  O   UNL     1       8.145   3.995  17.177  0.00  0.00    +0.000 OA
ATOM     18  H   UNL     1       8.298   4.575  16.412  0.00  0.00    +0.000 HD
ENDBRANCH  16  17
ENDBRANCH  11  16
BRANCH  13  19
ATOM     19  C   UNL     1       2.141   7.155  19.409  0.00  0.00    +0.000 C 
BRANCH  19  20
ATOM     20  C   UNL     1       1.937   8.593  18.924  0.00  0.00    +0.000 C 
BRANCH  20  21
ATOM     21  C   UNL     1       0.967   9.415  19.678  0.00  0.00    +0.000 C 
ATOM     22  C   UNL     1       0.005  10.217  19.213  0.00  0.00    +0.000 C 
ATOM     23  C   UNL     1      -0.786  10.772  20.325  0.00  0.00    +0.000 C 
ATOM     24  O   UNL     1      -0.197  10.222  21.497  0.00  0.00    +0.000 OA
ATOM     25  C   UNL     1       0.831   9.395  21.133  0.00  0.00    +0.000 C 
ATOM     26  O   UNL     1       1.489   8.719  21.898  0.00  0.00    +0.000 OA
ENDBRANCH  20  21
BRANCH  20  27
ATOM     27  O   UNL     1       1.472   8.521  17.564  0.00  0.00    +0.000 OA
ATOM     28  H   UNL     1       1.092   7.627  17.433  0.00  0.00    +0.000 HD
ENDBRANCH  20  27
ENDBRANCH  19  20
ENDBRANCH  13  19
TORSDOF 7
ENDMDL
MODEL 6
REMARK VINA RESULT:      -7.4      3.378      7.287
REMARK  Name = 
REMARK  9 active torsions:
REMARK  status: ('A' for Active; 'I' for Inactive)
REMARK    1  A    between atoms: C_6  and  C_7
REMARK    2  A    between atoms: C_10  and  O_11
REMARK    3  A    between atoms: C_12  and  C_13
REMARK    4  A    between atoms: C_12  and  C_14
REMARK    5  A    between atoms: C_14  and  O_15
REMARK    6  A    between atoms: C_16  and  C_17
REMARK    7  A    between atoms: C_17  and  C_18
REMARK    8  A    between atoms: C_18  and  O_19
REMARK    9  A    between atoms: C_18  and  C_20
REMARK                            x       y       z     vdW  Elec       q    Type
REMARK                         _______ _______ _______ _____ _____    ______ ____
ROOT
ATOM      1  C   UNL     1       1.320   4.168  19.951  0.00  0.00    +0.000 C 
ATOM      2  C   UNL     1       1.846   4.625  18.802  0.00  0.00    +0.000 C 
ATOM      3  C   UNL     1       2.008   3.690  17.622  0.00  0.00    +0.000 C 
ATOM      4  C   UNL     1       3.489   3.467  17.269  0.00  0.00    +0.000 C 
ATOM      5  C   UNL     1       4.256   4.791  17.078  0.00  0.00    +0.000 C 
ATOM      6  C   UNL     1       4.032   5.792  18.276  0.00  0.00    +0.000 C 
ATOM      7  C   UNL     1       4.645   5.276  19.611  0.00  0.00    +0.000 C 
ATOM      8  C   UNL     1       4.626   7.168  17.852  0.00  0.00    +0.000 C 
ATOM      9  C   UNL     1       5.944   7.201  17.092  0.00  0.00    +0.000 C 
ATOM     10  C   UNL     1       6.171   6.087  16.073  0.00  0.00    +0.000 C 
ATOM     11  C   UNL     1       5.778   4.674  16.592  0.00  0.00    +0.000 C 
ATOM     12  C   UNL     1       5.905   3.669  15.417  0.00  0.00    +0.000 C 
ATOM     13  C   UNL     1       2.463   6.007  18.586  0.00  0.00    +0.000 C 
ENDROOT
BRANCH  10  14
ATOM     14  O   UNL     1       7.536   6.128  15.645  0.00  0.00    +0.000 OA
ATOM     15  H   UNL     1       7.706   6.982  15.212  0.00  0.00    +0.000 HD
ENDBRANCH  10  14
BRANCH  11  16
ATOM     16  C   UNL     1       6.851   4.223  17.618  0.00  0.00    +0.000 C 
BRANCH  16  17
ATOM     17  O   UNL     1       8.122   3.997  17.028  0.00  0.00    +0.000 OA
ATOM     18  H   UNL     1       8.755   4.595  17.462  0.00  0.00    +0.000 HD
ENDBRANCH  16  17
ENDBRANCH  11  16
BRANCH  13  19
ATOM     19  C   UNL     1       2.300   7.069  19.728  0.00  0.00    +0.000 C 
BRANCH  19  20
ATOM     20  C   UNL     1       1.121   8.046  19.766  0.00  0.00    +0.000 C 
BRANCH  20  21
ATOM     21  C   UNL     1       1.352   9.387  19.192  0.00  0.00    +0.000 C 
ATOM     22  C   UNL     1       2.136   9.740  18.168  0.00  0.00    +0.000 C 
ATOM     23  C   UNL     1       1.990  11.177  17.879  0.00  0.00    +0.000 C 
ATOM     24  O   UNL     1       1.046  11.645  18.834  0.00  0.00    +0.000 OA
ATOM     25  C   UNL     1       0.636  10.592  19.608  0.00  0.00    +0.000 C 
ATOM     26  O   UNL     1      -0.219  10.648  20.468  0.00  0.00    +0.000 OA
ENDBRANCH  20  21
BRANCH  20  27
ATOM     27  O   UNL     1       0.765   8.228  21.149  0.00  0.00    +0.000 OA
ATOM     28  H   UNL     1       1.053   9.129  21.408  0.00  0.00    +0.000 HD
ENDBRANCH  20  27
ENDBRANCH  19  20
ENDBRANCH  13  19
TORSDOF 7
ENDMDL
MODEL 7
REMARK VINA RESULT:      -7.4      3.238      7.168
REMARK  Name = 
REMARK  9 active torsions:
REMARK  status: ('A' for Active; 'I' for Inactive)
REMARK    1  A    between atoms: C_6  and  C_7
REMARK    2  A    between atoms: C_10  and  O_11
REMARK    3  A    between atoms: C_12  and  C_13
REMARK    4  A    between atoms: C_12  and  C_14
REMARK    5  A    between atoms: C_14  and  O_15
REMARK    6  A    between atoms: C_16  and  C_17
REMARK    7  A    between atoms: C_17  and  C_18
REMARK    8  A    between atoms: C_18  and  O_19
REMARK    9  A    between atoms: C_18  and  C_20
REMARK                            x       y       z     vdW  Elec       q    Type
REMARK                         _______ _______ _______ _____ _____    ______ ____
ROOT
ATOM      1  C   UNL     1       1.394   4.277  20.171  0.00  0.00    +0.000 C 
ATOM      2  C   UNL     1       1.870   4.670  18.977  0.00  0.00    +0.000 C 
ATOM      3  C   UNL     1       2.008   3.665  17.853  0.00  0.00    +0.000 C 
ATOM      4  C   UNL     1       3.479   3.446  17.459  0.00  0.00    +0.000 C 
ATOM      5  C   UNL     1       4.213   4.768  17.159  0.00  0.00    +0.000 C 
ATOM      6  C   UNL     1       4.013   5.839  18.299  0.00  0.00    +0.000 C 
ATOM      7  C   UNL     1       4.683   5.419  19.640  0.00  0.00    +0.000 C 
ATOM      8  C   UNL     1       4.564   7.196  17.769  0.00  0.00    +0.000 C 
ATOM      9  C   UNL     1       5.854   7.203  16.960  0.00  0.00    +0.000 C 
ATOM     10  C   UNL     1       6.065   6.031  16.004  0.00  0.00    +0.000 C 
ATOM     11  C   UNL     1       5.719   4.647  16.624  0.00  0.00    +0.000 C 
ATOM     12  C   UNL     1       5.823   3.573  15.510  0.00  0.00    +0.000 C 
ATOM     13  C   UNL     1       2.452   6.046  18.653  0.00  0.00    +0.000 C 
ENDROOT
BRANCH  10  14
ATOM     14  O   UNL     1       7.413   6.068  15.524  0.00  0.00    +0.000 OA
ATOM     15  H   UNL     1       7.976   5.549  16.124  0.00  0.00    +0.000 HD
ENDBRANCH  10  14
BRANCH  11  16
ATOM     16  C   UNL     1       6.836   4.280  17.636  0.00  0.00    +0.000 C 
BRANCH  16  17
ATOM     17  O   UNL     1       8.086   4.025  17.014  0.00  0.00    +0.000 OA
ATOM     18  H   UNL     1       8.003   3.189  16.525  0.00  0.00    +0.000 HD
ENDBRANCH  16  17
ENDBRANCH  11  16
BRANCH  13  19
ATOM     19  C   UNL     1       2.310   7.175  19.732  0.00  0.00    +0.000 C 
BRANCH  19  20
ATOM     20  C   UNL     1       1.032   8.008  19.871  0.00  0.00    +0.000 C 
BRANCH  20  21
ATOM     21  C   UNL     1       1.144   9.450  19.566  0.00  0.00    +0.000 C 
ATOM     22  C   UNL     1       0.961  10.497  20.375  0.00  0.00    +0.000 C 
ATOM     23  C   UNL     1       1.268  11.753  19.669  0.00  0.00    +0.000 C 
ATOM     24  O   UNL     1       1.648  11.349  18.361  0.00  0.00    +0.000 OA
ATOM     25  C   UNL     1       1.605   9.983  18.285  0.00  0.00    +0.000 C 
ATOM     26  O   UNL     1       1.942   9.325  17.322  0.00  0.00    +0.000 OA
ENDBRANCH  20  21
BRANCH  20  27
ATOM     27  O   UNL     1       0.597   7.893  21.238  0.00  0.00    +0.000 OA
ATOM     28  H   UNL     1       0.586   8.797  21.618  0.00  0.00    +0.000 HD
ENDBRANCH  20  27
ENDBRANCH  19  20
ENDBRANCH  13  19
TORSDOF 7
ENDMDL
MODEL 8
REMARK VINA RESULT:      -7.2      3.283      7.670
REMARK  Name = 
REMARK  9 active torsions:
REMARK  status: ('A' for Active; 'I' for Inactive)
REMARK    1  A    between atoms: C_6  and  C_7
REMARK    2  A    between atoms: C_10  and  O_11
REMARK    3  A    between atoms: C_12  and  C_13
REMARK    4  A    between atoms: C_12  and  C_14
REMARK    5  A    between atoms: C_14  and  O_15
REMARK    6  A    between atoms: C_16  and  C_17
REMARK    7  A    between atoms: C_17  and  C_18
REMARK    8  A    between atoms: C_18  and  O_19
REMARK    9  A    between atoms: C_18  and  C_20
REMARK                            x       y       z     vdW  Elec       q    Type
REMARK                         _______ _______ _______ _____ _____    ______ ____
ROOT
ATOM      1  C   UNL     1       1.299   4.293  20.091  0.00  0.00    +0.000 C 
ATOM      2  C   UNL     1       1.800   4.711  18.917  0.00  0.00    +0.000 C 
ATOM      3  C   UNL     1       1.933   3.739  17.764  0.00  0.00    +0.000 C 
ATOM      4  C   UNL     1       3.405   3.500  17.384  0.00  0.00    +0.000 C 
ATOM      5  C   UNL     1       4.170   4.815  17.134  0.00  0.00    +0.000 C 
ATOM      6  C   UNL     1       3.976   5.855  18.304  0.00  0.00    +0.000 C 
ATOM      7  C   UNL     1       4.619   5.380  19.641  0.00  0.00    +0.000 C 
ATOM      8  C   UNL     1       4.563   7.215  17.823  0.00  0.00    +0.000 C 
ATOM      9  C   UNL     1       5.864   7.219  17.032  0.00  0.00    +0.000 C 
ATOM     10  C   UNL     1       6.064   6.073  16.044  0.00  0.00    +0.000 C 
ATOM     11  C   UNL     1       5.680   4.678  16.617  0.00  0.00    +0.000 C 
ATOM     12  C   UNL     1       5.778   3.637  15.472  0.00  0.00    +0.000 C 
ATOM     13  C   UNL     1       2.415   6.084  18.643  0.00  0.00    +0.000 C 
ENDROOT
BRANCH  10  14
ATOM     14  O   UNL     1       7.420   6.096  15.584  0.00  0.00    +0.000 OA
ATOM     15  H   UNL     1       7.549   5.373  14.947  0.00  0.00    +0.000 HD
ENDBRANCH  10  14
BRANCH  11  16
ATOM     16  C   UNL     1       6.776   4.257  17.632  0.00  0.00    +0.000 C 
BRANCH  16  17
ATOM     17  O   UNL     1       8.033   4.013  17.022  0.00  0.00    +0.000 OA
ATOM     18  H   UNL     1       8.617   4.755  17.251  0.00  0.00    +0.000 HD
ENDBRANCH  16  17
ENDBRANCH  11  16
BRANCH  13  19
ATOM     19  C   UNL     1       2.281   7.183  19.754  0.00  0.00    +0.000 C 
BRANCH  19  20
ATOM     20  C   UNL     1       0.957   7.902  20.029  0.00  0.00    +0.000 C 
BRANCH  20  21
ATOM     21  C   UNL     1       1.015   9.374  20.151  0.00  0.00    +0.000 C 
ATOM     22  C   UNL     1       0.777  10.304  19.223  0.00  0.00    +0.000 C 
ATOM     23  C   UNL     1       0.863  11.653  19.811  0.00  0.00    +0.000 C 
ATOM     24  O   UNL     1       1.179  11.431  21.179  0.00  0.00    +0.000 OA
ATOM     25  C   UNL     1       1.250  10.083  21.408  0.00  0.00    +0.000 C 
ATOM     26  O   UNL     1       1.432   9.566  22.492  0.00  0.00    +0.000 OA
ENDBRANCH  20  21
BRANCH  20  27
ATOM     27  O   UNL     1       0.445   7.389  21.272  0.00  0.00    +0.000 OA
ATOM     28  H   UNL     1      -0.519   7.564  21.284  0.00  0.00    +0.000 HD
ENDBRANCH  20  27
ENDBRANCH  19  20
ENDBRANCH  13  19
TORSDOF 7
ENDMDL
MODEL 9
REMARK VINA RESULT:      -7.2      3.746      6.374
REMARK  Name = 
REMARK  9 active torsions:
REMARK  status: ('A' for Active; 'I' for Inactive)
REMARK    1  A    between atoms: C_6  and  C_7
REMARK    2  A    between atoms: C_10  and  O_11
REMARK    3  A    between atoms: C_12  and  C_13
REMARK    4  A    between atoms: C_12  and  C_14
REMARK    5  A    between atoms: C_14  and  O_15
REMARK    6  A    between atoms: C_16  and  C_17
REMARK    7  A    between atoms: C_17  and  C_18
REMARK    8  A    between atoms: C_18  and  O_19
REMARK    9  A    between atoms: C_18  and  C_20
REMARK                            x       y       z     vdW  Elec       q    Type
REMARK                         _______ _______ _______ _____ _____    ______ ____
ROOT
ATOM      1  C   UNL     1       4.504   6.851  16.229  0.00  0.00    +0.000 C 
ATOM      2  C   UNL     1       4.456   6.500  17.525  0.00  0.00    +0.000 C 
ATOM      3  C   UNL     1       5.553   5.639  18.115  0.00  0.00    +0.000 C 
ATOM      4  C   UNL     1       5.023   4.264  18.559  0.00  0.00    +0.000 C 
ATOM      5  C   UNL     1       3.800   4.376  19.491  0.00  0.00    +0.000 C 
ATOM      6  C   UNL     1       2.686   5.327  18.908  0.00  0.00    +0.000 C 
ATOM      7  C   UNL     1       2.030   4.760  17.613  0.00  0.00    +0.000 C 
ATOM      8  C   UNL     1       1.640   5.569  20.036  0.00  0.00    +0.000 C 
ATOM      9  C   UNL     1       1.231   4.403  20.926  0.00  0.00    +0.000 C 
ATOM     10  C   UNL     1       2.332   3.415  21.302  0.00  0.00    +0.000 C 
ATOM     11  C   UNL     1       3.241   3.006  20.107  0.00  0.00    +0.000 C 
ATOM     12  C   UNL     1       4.402   2.134  20.653  0.00  0.00    +0.000 C 
ATOM     13  C   UNL     1       3.292   6.761  18.482  0.00  0.00    +0.000 C 
ENDROOT
BRANCH  10  14
ATOM     14  O   UNL     1       1.730   2.271  21.918  0.00  0.00    +0.000 OA
ATOM     15  H   UNL     1       2.116   1.466  21.533  0.00  0.00    +0.000 HD
ENDBRANCH  10  14
BRANCH  11  16
ATOM     16  C   UNL     1       2.429   2.056  19.187  0.00  0.00    +0.000 C 
BRANCH  16  17
ATOM     17  O   UNL     1       3.252   1.240  18.368  0.00  0.00    +0.000 OA
ATOM     18  H   UNL     1       3.060   0.314  18.594  0.00  0.00    +0.000 HD
ENDBRANCH  16  17
ENDBRANCH  11  16
BRANCH  13  19
ATOM     19  C   UNL     1       2.129   7.690  17.986  0.00  0.00    +0.000 C 
BRANCH  19  20
ATOM     20  C   UNL     1       2.049   9.168  18.377  0.00  0.00    +0.000 C 
BRANCH  20  21
ATOM     21  C   UNL     1       0.716   9.803  18.301  0.00  0.00    +0.000 C 
ATOM     22  C   UNL     1      -0.413   9.324  17.773  0.00  0.00    +0.000 C 
ATOM     23  C   UNL     1      -1.527  10.262  18.001  0.00  0.00    +0.000 C 
ATOM     24  O   UNL     1      -0.946  11.346  18.713  0.00  0.00    +0.000 OA
ATOM     25  C   UNL     1       0.381  11.082  18.923  0.00  0.00    +0.000 C 
ATOM     26  O   UNL     1       1.140  11.780  19.565  0.00  0.00    +0.000 OA
ENDBRANCH  20  21
BRANCH  20  27
ATOM     27  O   UNL     1       2.918   9.890  17.486  0.00  0.00    +0.000 OA
ATOM     28  H   UNL     1       2.376  10.183  16.723  0.00  0.00    +0.000 HD
ENDBRANCH  20  27
ENDBRANCH  19  20
ENDBRANCH  13  19
TORSDOF 7
ENDMDL
