MODEL 1
REMARK VINA RESULT:      -8.0      0.000      0.000
REMARK  Name = 
REMARK  10 active torsions:
REMARK  status: ('A' for Active; 'I' for Inactive)
REMARK    1  A    between atoms: C_1  and  C_2
REMARK    2  A    between atoms: C_2  and  C_3
REMARK    3  A    between atoms: C_2  and  C_4
REMARK    4  A    between atoms: C_2  and  N_5
REMARK    5  A    between atoms: C_6  and  C_8
REMARK    6  A    between atoms: N_11  and  C_12
REMARK    7  A    between atoms: C_12  and  C_13
REMARK    8  A    between atoms: C_17  and  N_18
REMARK    9  A    between atoms: C_19  and  C_21
REMARK   10  A    between atoms: C_25  and  C_26
REMARK                            x       y       z     vdW  Elec       q    Type
REMARK                         _______ _______ _______ _____ _____    ______ ____
ROOT
ATOM      1  C   UNL     1       0.138  10.150  19.928  0.00  0.00    +0.000 A 
ATOM      2  N   UNL     1      -0.063  10.088  21.257  0.00  0.00    +0.000 NA
ATOM      3  C   UNL     1       0.615   9.131  21.913  0.00  0.00    +0.000 A 
ATOM      4  C   UNL     1       1.472   8.238  21.299  0.00  0.00    +0.000 A 
ATOM      5  C   UNL     1       1.614   8.380  19.938  0.00  0.00    +0.000 A 
ATOM      6  N   UNL     1       0.960   9.323  19.257  0.00  0.00    +0.000 NA
ENDROOT
BRANCH   5   7
ATOM      7  N   UNL     1       2.465   7.503  19.243  0.00  0.00    +0.000 N 
ATOM      8  C   UNL     1       2.465   6.127  19.426  0.00  0.00    +0.000 C 
ATOM      9  O   UNL     1       1.763   5.474  20.189  0.00  0.00    +0.000 OA
ATOM     10  H   UNL     1       3.115   7.873  18.565  0.00  0.00    +0.000 HD
BRANCH   8  11
ATOM     11  C   UNL     1       3.439   5.391  18.560  0.00  0.00    +0.000 A 
ATOM     12  C   UNL     1       2.997   4.290  17.836  0.00  0.00    +0.000 A 
ATOM     13  C   UNL     1       3.890   3.654  16.984  0.00  0.00    +0.000 A 
ATOM     14  C   UNL     1       5.191   4.137  16.882  0.00  0.00    +0.000 A 
ATOM     15  C   UNL     1       5.577   5.244  17.650  0.00  0.00    +0.000 A 
ATOM     16  N   UNL     1       4.710   5.877  18.500  0.00  0.00    +0.000 NA
BRANCH  15  17
ATOM     17  C   UNL     1       6.997   5.783  17.522  0.00  0.00    +0.000 C 
ATOM     18  F   UNL     1       7.153   7.035  18.044  0.00  0.00    +0.000 F 
ATOM     19  F   UNL     1       7.913   5.003  18.162  0.00  0.00    +0.000 F 
ATOM     20  F   UNL     1       7.415   5.870  16.228  0.00  0.00    +0.000 F 
ENDBRANCH  15  17
ENDBRANCH   8  11
ENDBRANCH   5   7
BRANCH   1  21
ATOM     21  C   UNL     1      -0.614  11.179  19.100  0.00  0.00    +0.000 C 
BRANCH  21  25
ATOM     22  C   UNL     1      -4.012  10.506  16.534  0.00  0.00    +0.000 C 
ATOM     23  C   UNL     1      -3.464   9.350  17.369  0.00  0.00    +0.000 C 
ATOM     24  C   UNL     1      -2.564   9.860  18.498  0.00  0.00    +0.000 C 
ATOM     25  N   UNL     1      -1.435  10.645  17.974  0.00  0.00    +0.000 NA
ATOM     26  C   UNL     1      -1.902  11.783  17.161  0.00  0.00    +0.000 C 
ATOM     27  C   UNL     1      -2.828  11.341  16.022  0.00  0.00    +0.000 C 
BRANCH  22  29
ATOM     28  N   UNL     1      -5.580  10.760  18.414  0.00  0.00    +0.000 N 
ATOM     29  C   UNL     1      -4.990  11.377  17.328  0.00  0.00    +0.000 C 
ATOM     30  O   UNL     1      -5.243  12.533  17.001  0.00  0.00    +0.000 OA
ATOM     31  H   UNL     1      -5.365   9.787  18.598  0.00  0.00    +0.000 HD
BRANCH  28  33
ATOM     32  C   UNL     1      -7.486  12.337  18.592  0.00  0.00    +0.000 C 
ATOM     33  C   UNL     1      -6.471  11.467  19.352  0.00  0.00    +0.000 C 
ATOM     34  C   UNL     1      -5.647  12.331  20.323  0.00  0.00    +0.000 C 
ATOM     35  C   UNL     1      -7.261  10.436  20.178  0.00  0.00    +0.000 C 
ENDBRANCH  28  33
ENDBRANCH  22  29
ENDBRANCH  21  25
ENDBRANCH   1  21
TORSDOF 7
ENDMDL
MODEL 2
REMARK VINA RESULT:      -8.0      2.062      2.515
REMARK  Name = 
REMARK  10 active torsions:
REMARK  status: ('A' for Active; 'I' for Inactive)
REMARK    1  A    between atoms: C_1  and  C_2
REMARK    2  A    between atoms: C_2  and  C_3
REMARK    3  A    between atoms: C_2  and  C_4
REMARK    4  A    between atoms: C_2  and  N_5
REMARK    5  A    between atoms: C_6  and  C_8
REMARK    6  A    between atoms: N_11  and  C_12
REMARK    7  A    between atoms: C_12  and  C_13
REMARK    8  A    between atoms: C_17  and  N_18
REMARK    9  A    between atoms: C_19  and  C_21
REMARK   10  A    between atoms: C_25  and  C_26
REMARK                            x       y       z     vdW  Elec       q    Type
REMARK                         _______ _______ _______ _____ _____    ______ ____
ROOT
ATOM      1  C   UNL     1       0.176  10.371  19.977  0.00  0.00    +0.000 A 
ATOM      2  N   UNL     1       0.081  10.515  21.312  0.00  0.00    +0.000 NA
ATOM      3  C   UNL     1       0.720   9.593  22.052  0.00  0.00    +0.000 A 
ATOM      4  C   UNL     1       1.437   8.541  21.517  0.00  0.00    +0.000 A 
ATOM      5  C   UNL     1       1.478   8.478  20.144  0.00  0.00    +0.000 A 
ATOM      6  N   UNL     1       0.859   9.380  19.379  0.00  0.00    +0.000 NA
ENDROOT
BRANCH   5   7
ATOM      7  N   UNL     1       2.184   7.430  19.526  0.00  0.00    +0.000 N 
ATOM      8  C   UNL     1       2.686   7.500  18.234  0.00  0.00    +0.000 C 
ATOM      9  O   UNL     1       2.601   8.436  17.448  0.00  0.00    +0.000 OA
ATOM     10  H   UNL     1       2.351   6.574  20.035  0.00  0.00    +0.000 HD
BRANCH   8  11
ATOM     11  C   UNL     1       3.424   6.274  17.794  0.00  0.00    +0.000 A 
ATOM     12  C   UNL     1       4.625   6.422  17.109  0.00  0.00    +0.000 A 
ATOM     13  C   UNL     1       5.337   5.281  16.764  0.00  0.00    +0.000 A 
ATOM     14  C   UNL     1       4.828   4.033  17.112  0.00  0.00    +0.000 A 
ATOM     15  C   UNL     1       3.605   3.953  17.791  0.00  0.00    +0.000 A 
ATOM     16  N   UNL     1       2.888   5.069  18.133  0.00  0.00    +0.000 NA
BRANCH  15  17
ATOM     17  C   UNL     1       3.059   2.586  18.189  0.00  0.00    +0.000 C 
ATOM     18  F   UNL     1       3.064   2.369  19.538  0.00  0.00    +0.000 F 
ATOM     19  F   UNL     1       1.769   2.402  17.793  0.00  0.00    +0.000 F 
ATOM     20  F   UNL     1       3.770   1.556  17.649  0.00  0.00    +0.000 F 
ENDBRANCH  15  17
ENDBRANCH   8  11
ENDBRANCH   5   7
BRANCH   1  21
ATOM     21  C   UNL     1      -0.545  11.348  19.063  0.00  0.00    +0.000 C 
BRANCH  21  25
ATOM     22  C   UNL     1      -3.951  10.479  16.568  0.00  0.00    +0.000 C 
ATOM     23  C   UNL     1      -3.366   9.375  17.446  0.00  0.00    +0.000 C 
ATOM     24  C   UNL     1      -2.468   9.956  18.542  0.00  0.00    +0.000 C 
ATOM     25  N   UNL     1      -1.364  10.745  17.970  0.00  0.00    +0.000 NA
ATOM     26  C   UNL     1      -1.867  11.834  17.114  0.00  0.00    +0.000 C 
ATOM     27  C   UNL     1      -2.794  11.319  16.006  0.00  0.00    +0.000 C 
BRANCH  22  29
ATOM     28  N   UNL     1      -5.555  10.755  18.415  0.00  0.00    +0.000 N 
ATOM     29  C   UNL     1      -4.942  11.359  17.333  0.00  0.00    +0.000 C 
ATOM     30  O   UNL     1      -5.187  12.512  16.990  0.00  0.00    +0.000 OA
ATOM     31  H   UNL     1      -5.346   9.783  18.612  0.00  0.00    +0.000 HD
BRANCH  28  33
ATOM     32  C   UNL     1      -5.680  12.455  20.216  0.00  0.00    +0.000 C 
ATOM     33  C   UNL     1      -6.462  11.472  19.328  0.00  0.00    +0.000 C 
ATOM     34  C   UNL     1      -7.246  10.473  20.197  0.00  0.00    +0.000 C 
ATOM     35  C   UNL     1      -7.474  12.288  18.503  0.00  0.00    +0.000 C 
ENDBRANCH  28  33
ENDBRANCH  22  29
ENDBRANCH  21  25
ENDBRANCH   1  21
TORSDOF 7
ENDMDL
MODEL 3
REMARK VINA RESULT:      -8.0      8.634      9.960
REMARK  Name = 
REMARK  10 active torsions:
REMARK  status: ('A' for Active; 'I' for Inactive)
REMARK    1  A    between atoms: C_1  and  C_2
REMARK    2  A    between atoms: C_2  and  C_3
REMARK    3  A    between atoms: C_2  and  C_4
REMARK    4  A    between atoms: C_2  and  N_5
REMARK    5  A    between atoms: C_6  and  C_8
REMARK    6  A    between atoms: N_11  and  C_12
REMARK    7  A    between atoms: C_12  and  C_13
REMARK    8  A    between atoms: C_17  and  N_18
REMARK    9  A    between atoms: C_19  and  C_21
REMARK   10  A    between atoms: C_25  and  C_26
REMARK                            x       y       z     vdW  Elec       q    Type
REMARK                         _______ _______ _______ _____ _____    ______ ____
ROOT
ATOM      1  C   UNL     1       9.501  12.020  20.928  0.00  0.00    +0.000 A 
ATOM      2  N   UNL     1      10.126  12.855  20.077  0.00  0.00    +0.000 NA
ATOM      3  C   UNL     1      10.369  12.372  18.847  0.00  0.00    +0.000 A 
ATOM      4  C   UNL     1      10.022  11.099  18.440  0.00  0.00    +0.000 A 
ATOM      5  C   UNL     1       9.386  10.319  19.378  0.00  0.00    +0.000 A 
ATOM      6  N   UNL     1       9.125  10.770  20.607  0.00  0.00    +0.000 NA
ENDROOT
BRANCH   5   7
ATOM      7  N   UNL     1       9.008   9.008  19.038  0.00  0.00    +0.000 N 
ATOM      8  C   UNL     1       8.070   8.709  18.060  0.00  0.00    +0.000 C 
ATOM      9  O   UNL     1       7.439   9.496  17.364  0.00  0.00    +0.000 OA
ATOM     10  H   UNL     1       9.435   8.228  19.515  0.00  0.00    +0.000 HD
BRANCH   8  11
ATOM     11  C   UNL     1       7.843   7.245  17.852  0.00  0.00    +0.000 A 
ATOM     12  C   UNL     1       8.025   6.377  18.923  0.00  0.00    +0.000 A 
ATOM     13  C   UNL     1       7.748   5.029  18.740  0.00  0.00    +0.000 A 
ATOM     14  C   UNL     1       7.299   4.592  17.498  0.00  0.00    +0.000 A 
ATOM     15  C   UNL     1       7.148   5.516  16.456  0.00  0.00    +0.000 A 
ATOM     16  N   UNL     1       7.424   6.848  16.619  0.00  0.00    +0.000 NA
BRANCH  15  17
ATOM     17  C   UNL     1       6.637   5.038  15.101  0.00  0.00    +0.000 C 
ATOM     18  F   UNL     1       6.341   3.705  15.070  0.00  0.00    +0.000 F 
ATOM     19  F   UNL     1       5.496   5.676  14.717  0.00  0.00    +0.000 F 
ATOM     20  F   UNL     1       7.536   5.237  14.097  0.00  0.00    +0.000 F 
ENDBRANCH  15  17
ENDBRANCH   8  11
ENDBRANCH   5   7
BRANCH   1  21
ATOM     21  C   UNL     1       9.219  12.471  22.352  0.00  0.00    +0.000 C 
BRANCH  21  25
ATOM     22  C   UNL     1       6.006  14.629  24.249  0.00  0.00    +0.000 C 
ATOM     23  C   UNL     1       5.685  13.642  23.128  0.00  0.00    +0.000 C 
ATOM     24  C   UNL     1       6.856  12.688  22.878  0.00  0.00    +0.000 C 
ATOM     25  N   UNL     1       8.083  13.423  22.528  0.00  0.00    +0.000 NA
ATOM     26  C   UNL     1       8.449  14.391  23.577  0.00  0.00    +0.000 C 
ATOM     27  C   UNL     1       7.307  15.364  23.893  0.00  0.00    +0.000 C 
BRANCH  22  29
ATOM     28  N   UNL     1       5.389  12.776  25.747  0.00  0.00    +0.000 N 
ATOM     29  C   UNL     1       6.125  13.937  25.609  0.00  0.00    +0.000 C 
ATOM     30  O   UNL     1       6.812  14.401  26.515  0.00  0.00    +0.000 OA
ATOM     31  H   UNL     1       4.803  12.477  24.977  0.00  0.00    +0.000 HD
BRANCH  28  33
ATOM     32  C   UNL     1       4.841  12.637  28.162  0.00  0.00    +0.000 C 
ATOM     33  C   UNL     1       5.454  11.922  26.946  0.00  0.00    +0.000 C 
ATOM     34  C   UNL     1       6.911  11.523  27.240  0.00  0.00    +0.000 C 
ATOM     35  C   UNL     1       4.644  10.636  26.700  0.00  0.00    +0.000 C 
ENDBRANCH  28  33
ENDBRANCH  22  29
ENDBRANCH  21  25
ENDBRANCH   1  21
TORSDOF 7
ENDMDL
MODEL 4
REMARK VINA RESULT:      -7.9      0.963      1.365
REMARK  Name = 
REMARK  10 active torsions:
REMARK  status: ('A' for Active; 'I' for Inactive)
REMARK    1  A    between atoms: C_1  and  C_2
REMARK    2  A    between atoms: C_2  and  C_3
REMARK    3  A    between atoms: C_2  and  C_4
REMARK    4  A    between atoms: C_2  and  N_5
REMARK    5  A    between atoms: C_6  and  C_8
REMARK    6  A    between atoms: N_11  and  C_12
REMARK    7  A    between atoms: C_12  and  C_13
REMARK    8  A    between atoms: C_17  and  N_18
REMARK    9  A    between atoms: C_19  and  C_21
REMARK   10  A    between atoms: C_25  and  C_26
REMARK                            x       y       z     vdW  Elec       q    Type
REMARK                         _______ _______ _______ _____ _____    ______ ____
ROOT
ATOM      1  C   UNL     1       0.210  10.208  20.179  0.00  0.00    +0.000 A 
ATOM      2  N   UNL     1       0.010  10.127  21.508  0.00  0.00    +0.000 NA
ATOM      3  C   UNL     1       0.665   9.142  22.145  0.00  0.00    +0.000 A 
ATOM      4  C   UNL     1       1.497   8.239  21.514  0.00  0.00    +0.000 A 
ATOM      5  C   UNL     1       1.640   8.401  20.155  0.00  0.00    +0.000 A 
ATOM      6  N   UNL     1       1.009   9.372  19.492  0.00  0.00    +0.000 NA
ENDROOT
BRANCH   5   7
ATOM      7  N   UNL     1       2.467   7.515  19.442  0.00  0.00    +0.000 N 
ATOM      8  C   UNL     1       2.450   6.138  19.619  0.00  0.00    +0.000 C 
ATOM      9  O   UNL     1       1.750   5.492  20.390  0.00  0.00    +0.000 OA
ATOM     10  H   UNL     1       3.112   7.879  18.756  0.00  0.00    +0.000 HD
BRANCH   8  11
ATOM     11  C   UNL     1       3.400   5.393  18.735  0.00  0.00    +0.000 A 
ATOM     12  C   UNL     1       2.892   4.457  17.840  0.00  0.00    +0.000 A 
ATOM     13  C   UNL     1       3.773   3.819  16.977  0.00  0.00    +0.000 A 
ATOM     14  C   UNL     1       5.127   4.135  17.034  0.00  0.00    +0.000 A 
ATOM     15  C   UNL     1       5.575   5.079  17.967  0.00  0.00    +0.000 A 
ATOM     16  N   UNL     1       4.720   5.711  18.830  0.00  0.00    +0.000 NA
BRANCH  15  17
ATOM     17  C   UNL     1       7.056   5.438  18.015  0.00  0.00    +0.000 C 
ATOM     18  F   UNL     1       7.425   6.081  19.162  0.00  0.00    +0.000 F 
ATOM     19  F   UNL     1       7.864   4.343  17.933  0.00  0.00    +0.000 F 
ATOM     20  F   UNL     1       7.434   6.260  16.995  0.00  0.00    +0.000 F 
ENDBRANCH  15  17
ENDBRANCH   8  11
ENDBRANCH   5   7
BRANCH   1  21
ATOM     21  C   UNL     1      -0.518  11.270  19.372  0.00  0.00    +0.000 C 
BRANCH  21  25
ATOM     22  C   UNL     1      -3.845  10.548  16.729  0.00  0.00    +0.000 C 
ATOM     23  C   UNL     1      -3.179   9.367  17.432  0.00  0.00    +0.000 C 
ATOM     24  C   UNL     1      -2.328   9.835  18.616  0.00  0.00    +0.000 C 
ATOM     25  N   UNL     1      -1.287  10.785  18.189  0.00  0.00    +0.000 NA
ATOM     26  C   UNL     1      -1.872  11.953  17.506  0.00  0.00    +0.000 C 
ATOM     27  C   UNL     1      -2.756  11.550  16.320  0.00  0.00    +0.000 C 
BRANCH  22  29
ATOM     28  N   UNL     1      -5.253  12.503  17.235  0.00  0.00    +0.000 N 
ATOM     29  C   UNL     1      -4.902  11.220  17.609  0.00  0.00    +0.000 C 
ATOM     30  O   UNL     1      -5.381  10.659  18.591  0.00  0.00    +0.000 OA
ATOM     31  H   UNL     1      -4.781  12.925  16.444  0.00  0.00    +0.000 HD
BRANCH  28  33
ATOM     32  C   UNL     1      -5.809  13.902  19.205  0.00  0.00    +0.000 C 
ATOM     33  C   UNL     1      -6.321  13.269  17.901  0.00  0.00    +0.000 C 
ATOM     34  C   UNL     1      -7.532  12.363  18.186  0.00  0.00    +0.000 C 
ATOM     35  C   UNL     1      -6.782  14.410  16.975  0.00  0.00    +0.000 C 
ENDBRANCH  28  33
ENDBRANCH  22  29
ENDBRANCH  21  25
ENDBRANCH   1  21
TORSDOF 7
ENDMDL
MODEL 5
REMARK VINA RESULT:      -7.8      2.764      3.792
REMARK  Name = 
REMARK  10 active torsions:
REMARK  status: ('A' for Active; 'I' for Inactive)
REMARK    1  A    between atoms: C_1  and  C_2
REMARK    2  A    between atoms: C_2  and  C_3
REMARK    3  A    between atoms: C_2  and  C_4
REMARK    4  A    between atoms: C_2  and  N_5
REMARK    5  A    between atoms: C_6  and  C_8
REMARK    6  A    between atoms: N_11  and  C_12
REMARK    7  A    between atoms: C_12  and  C_13
REMARK    8  A    between atoms: C_17  and  N_18
REMARK    9  A    between atoms: C_19  and  C_21
REMARK   10  A    between atoms: C_25  and  C_26
REMARK                            x       y       z     vdW  Elec       q    Type
REMARK                         _______ _______ _______ _____ _____    ______ ____
ROOT
ATOM      1  C   UNL     1      -0.036  11.220  19.266  0.00  0.00    +0.000 A 
ATOM      2  N   UNL     1       0.672  12.342  19.041  0.00  0.00    +0.000 NA
ATOM      3  C   UNL     1       1.868  12.177  18.450  0.00  0.00    +0.000 A 
ATOM      4  C   UNL     1       2.382  10.948  18.085  0.00  0.00    +0.000 A 
ATOM      5  C   UNL     1       1.585   9.859  18.353  0.00  0.00    +0.000 A 
ATOM      6  N   UNL     1       0.390   9.988  18.934  0.00  0.00    +0.000 NA
ENDROOT
BRANCH   5   7
ATOM      7  N   UNL     1       2.044   8.574  18.016  0.00  0.00    +0.000 N 
ATOM      8  C   UNL     1       2.294   7.578  18.950  0.00  0.00    +0.000 C 
ATOM      9  O   UNL     1       2.169   7.646  20.167  0.00  0.00    +0.000 OA
ATOM     10  H   UNL     1       2.201   8.340  17.046  0.00  0.00    +0.000 HD
BRANCH   8  11
ATOM     11  C   UNL     1       2.754   6.282  18.359  0.00  0.00    +0.000 A 
ATOM     12  C   UNL     1       2.034   5.125  18.635  0.00  0.00    +0.000 A 
ATOM     13  C   UNL     1       2.427   3.939  18.029  0.00  0.00    +0.000 A 
ATOM     14  C   UNL     1       3.521   3.946  17.170  0.00  0.00    +0.000 A 
ATOM     15  C   UNL     1       4.211   5.145  16.944  0.00  0.00    +0.000 A 
ATOM     16  N   UNL     1       3.840   6.321  17.539  0.00  0.00    +0.000 NA
BRANCH  15  17
ATOM     17  C   UNL     1       5.398   5.155  15.987  0.00  0.00    +0.000 C 
ATOM     18  F   UNL     1       6.607   5.228  16.619  0.00  0.00    +0.000 F 
ATOM     19  F   UNL     1       5.457   4.035  15.213  0.00  0.00    +0.000 F 
ATOM     20  F   UNL     1       5.371   6.208  15.123  0.00  0.00    +0.000 F 
ENDBRANCH  15  17
ENDBRANCH   8  11
ENDBRANCH   5   7
BRANCH   1  21
ATOM     21  C   UNL     1      -1.384  11.308  19.962  0.00  0.00    +0.000 C 
BRANCH  21  25
ATOM     22  C   UNL     1      -3.248  13.933  22.828  0.00  0.00    +0.000 C 
ATOM     23  C   UNL     1      -2.945  14.453  21.424  0.00  0.00    +0.000 C 
ATOM     24  C   UNL     1      -2.688  13.300  20.449  0.00  0.00    +0.000 C 
ATOM     25  N   UNL     1      -1.568  12.456  20.897  0.00  0.00    +0.000 NA
ATOM     26  C   UNL     1      -1.806  11.919  22.249  0.00  0.00    +0.000 C 
ATOM     27  C   UNL     1      -2.092  13.025  23.271  0.00  0.00    +0.000 C 
BRANCH  22  29
ATOM     28  N   UNL     1      -5.631  13.797  22.226  0.00  0.00    +0.000 N 
ATOM     29  C   UNL     1      -4.583  13.187  22.888  0.00  0.00    +0.000 C 
ATOM     30  O   UNL     1      -4.709  12.131  23.504  0.00  0.00    +0.000 OA
ATOM     31  H   UNL     1      -5.470  14.693  21.782  0.00  0.00    +0.000 HD
BRANCH  28  33
ATOM     32  C   UNL     1      -7.557  12.853  23.472  0.00  0.00    +0.000 C 
ATOM     33  C   UNL     1      -6.963  13.180  22.092  0.00  0.00    +0.000 C 
ATOM     34  C   UNL     1      -6.879  11.907  21.231  0.00  0.00    +0.000 C 
ATOM     35  C   UNL     1      -7.914  14.170  21.394  0.00  0.00    +0.000 C 
ENDBRANCH  28  33
ENDBRANCH  22  29
ENDBRANCH  21  25
ENDBRANCH   1  21
TORSDOF 7
ENDMDL
MODEL 6
REMARK VINA RESULT:      -7.8      8.661     10.489
REMARK  Name = 
REMARK  10 active torsions:
REMARK  status: ('A' for Active; 'I' for Inactive)
REMARK    1  A    between atoms: C_1  and  C_2
REMARK    2  A    between atoms: C_2  and  C_3
REMARK    3  A    between atoms: C_2  and  C_4
REMARK    4  A    between atoms: C_2  and  N_5
REMARK    5  A    between atoms: C_6  and  C_8
REMARK    6  A    between atoms: N_11  and  C_12
REMARK    7  A    between atoms: C_12  and  C_13
REMARK    8  A    between atoms: C_17  and  N_18
REMARK    9  A    between atoms: C_19  and  C_21
REMARK   10  A    between atoms: C_25  and  C_26
REMARK                            x       y       z     vdW  Elec       q    Type
REMARK                         _______ _______ _______ _____ _____    ______ ____
ROOT
ATOM      1  C   UNL     1       9.512  12.216  20.708  0.00  0.00    +0.000 A 
ATOM      2  N   UNL     1      10.092  13.033  19.810  0.00  0.00    +0.000 NA
ATOM      3  C   UNL     1      10.296  12.515  18.586  0.00  0.00    +0.000 A 
ATOM      4  C   UNL     1       9.953  11.226  18.231  0.00  0.00    +0.000 A 
ATOM      5  C   UNL     1       9.364  10.467  19.215  0.00  0.00    +0.000 A 
ATOM      6  N   UNL     1       9.142  10.951  20.439  0.00  0.00    +0.000 NA
ENDROOT
BRANCH   5   7
ATOM      7  N   UNL     1       8.993   9.141  18.929  0.00  0.00    +0.000 N 
ATOM      8  C   UNL     1       8.057   8.797  17.963  0.00  0.00    +0.000 C 
ATOM      9  O   UNL     1       7.423   9.551  17.235  0.00  0.00    +0.000 OA
ATOM     10  H   UNL     1       9.423   8.383  19.439  0.00  0.00    +0.000 HD
BRANCH   8  11
ATOM     11  C   UNL     1       7.838   7.324  17.816  0.00  0.00    +0.000 A 
ATOM     12  C   UNL     1       8.078   6.496  18.907  0.00  0.00    +0.000 A 
ATOM     13  C   UNL     1       7.808   5.140  18.783  0.00  0.00    +0.000 A 
ATOM     14  C   UNL     1       7.309   4.655  17.577  0.00  0.00    +0.000 A 
ATOM     15  C   UNL     1       7.101   5.541  16.512  0.00  0.00    +0.000 A 
ATOM     16  N   UNL     1       7.370   6.880  16.617  0.00  0.00    +0.000 NA
BRANCH  15  17
ATOM     17  C   UNL     1       6.536   5.012  15.199  0.00  0.00    +0.000 C 
ATOM     18  F   UNL     1       7.456   4.965  14.189  0.00  0.00    +0.000 F 
ATOM     19  F   UNL     1       6.051   3.743  15.311  0.00  0.00    +0.000 F 
ATOM     20  F   UNL     1       5.507   5.768  14.723  0.00  0.00    +0.000 F 
ENDBRANCH  15  17
ENDBRANCH   8  11
ENDBRANCH   5   7
BRANCH   1  21
ATOM     21  C   UNL     1       9.275  12.706  22.128  0.00  0.00    +0.000 C 
BRANCH  21  25
ATOM     22  C   UNL     1       5.930  12.618  24.844  0.00  0.00    +0.000 C 
ATOM     23  C   UNL     1       6.970  11.501  24.902  0.00  0.00    +0.000 C 
ATOM     24  C   UNL     1       8.261  11.908  24.187  0.00  0.00    +0.000 C 
ATOM     25  N   UNL     1       8.011  12.253  22.778  0.00  0.00    +0.000 NA
ATOM     26  C   UNL     1       7.016  13.333  22.657  0.00  0.00    +0.000 C 
ATOM     27  C   UNL     1       5.702  12.996  23.373  0.00  0.00    +0.000 C 
BRANCH  22  29
ATOM     28  N   UNL     1       7.151  13.571  26.757  0.00  0.00    +0.000 N 
ATOM     29  C   UNL     1       6.352  13.841  25.662  0.00  0.00    +0.000 C 
ATOM     30  O   UNL     1       5.984  14.976  25.371  0.00  0.00    +0.000 OA
ATOM     31  H   UNL     1       7.376  12.606  26.970  0.00  0.00    +0.000 HD
BRANCH  28  33
ATOM     32  C   UNL     1       8.627  14.018  28.700  0.00  0.00    +0.000 C 
ATOM     33  C   UNL     1       7.735  14.626  27.604  0.00  0.00    +0.000 C 
ATOM     34  C   UNL     1       6.623  15.484  28.234  0.00  0.00    +0.000 C 
ATOM     35  C   UNL     1       8.617  15.544  26.737  0.00  0.00    +0.000 C 
ENDBRANCH  28  33
ENDBRANCH  22  29
ENDBRANCH  21  25
ENDBRANCH   1  21
TORSDOF 7
ENDMDL
MODEL 7
REMARK VINA RESULT:      -7.7      5.504      7.760
REMARK  Name = 
REMARK  10 active torsions:
REMARK  status: ('A' for Active; 'I' for Inactive)
REMARK    1  A    between atoms: C_1  and  C_2
REMARK    2  A    between atoms: C_2  and  C_3
REMARK    3  A    between atoms: C_2  and  C_4
REMARK    4  A    between atoms: C_2  and  N_5
REMARK    5  A    between atoms: C_6  and  C_8
REMARK    6  A    between atoms: N_11  and  C_12
REMARK    7  A    between atoms: C_12  and  C_13
REMARK    8  A    between atoms: C_17  and  N_18
REMARK    9  A    between atoms: C_19  and  C_21
REMARK   10  A    between atoms: C_25  and  C_26
REMARK                            x       y       z     vdW  Elec       q    Type
REMARK                         _______ _______ _______ _____ _____    ______ ____
ROOT
ATOM      1  C   UNL     1       1.101  12.078  19.278  0.00  0.00    +0.000 A 
ATOM      2  N   UNL     1      -0.215  12.286  19.085  0.00  0.00    +0.000 NA
ATOM      3  C   UNL     1      -0.894  11.278  18.510  0.00  0.00    +0.000 A 
ATOM      4  C   UNL     1      -0.315  10.088  18.117  0.00  0.00    +0.000 A 
ATOM      5  C   UNL     1       1.034   9.967  18.357  0.00  0.00    +0.000 A 
ATOM      6  N   UNL     1       1.737  10.946  18.931  0.00  0.00    +0.000 NA
ENDROOT
BRANCH   5   7
ATOM      7  N   UNL     1       1.695   8.785  17.979  0.00  0.00    +0.000 N 
ATOM      8  C   UNL     1       2.102   7.811  18.880  0.00  0.00    +0.000 C 
ATOM      9  O   UNL     1       1.968   7.816  20.098  0.00  0.00    +0.000 OA
ATOM     10  H   UNL     1       1.888   8.613  17.003  0.00  0.00    +0.000 HD
BRANCH   8  11
ATOM     11  C   UNL     1       2.765   6.627  18.249  0.00  0.00    +0.000 A 
ATOM     12  C   UNL     1       3.938   6.818  17.528  0.00  0.00    +0.000 A 
ATOM     13  C   UNL     1       4.583   5.706  17.002  0.00  0.00    +0.000 A 
ATOM     14  C   UNL     1       4.038   4.444  17.214  0.00  0.00    +0.000 A 
ATOM     15  C   UNL     1       2.846   4.321  17.940  0.00  0.00    +0.000 A 
ATOM     16  N   UNL     1       2.194   5.408  18.458  0.00  0.00    +0.000 NA
BRANCH  15  17
ATOM     17  C   UNL     1       2.261   2.935  18.187  0.00  0.00    +0.000 C 
ATOM     18  F   UNL     1       2.407   2.085  17.128  0.00  0.00    +0.000 F 
ATOM     19  F   UNL     1       2.841   2.303  19.246  0.00  0.00    +0.000 F 
ATOM     20  F   UNL     1       0.925   2.964  18.452  0.00  0.00    +0.000 F 
ENDBRANCH  15  17
ENDBRANCH   8  11
ENDBRANCH   5   7
BRANCH   1  21
ATOM     21  C   UNL     1       1.953  13.177  19.891  0.00  0.00    +0.000 C 
BRANCH  21  25
ATOM     22  C   UNL     1       3.752  16.695  18.168  0.00  0.00    +0.000 C 
ATOM     23  C   UNL     1       2.605  16.853  19.164  0.00  0.00    +0.000 C 
ATOM     24  C   UNL     1       2.387  15.567  19.966  0.00  0.00    +0.000 C 
ATOM     25  N   UNL     1       2.098  14.425  19.084  0.00  0.00    +0.000 NA
ATOM     26  C   UNL     1       3.176  14.218  18.101  0.00  0.00    +0.000 C 
ATOM     27  C   UNL     1       3.460  15.479  17.277  0.00  0.00    +0.000 C 
BRANCH  22  29
ATOM     28  N   UNL     1       5.951  15.598  18.323  0.00  0.00    +0.000 N 
ATOM     29  C   UNL     1       5.105  16.546  18.868  0.00  0.00    +0.000 C 
ATOM     30  O   UNL     1       5.401  17.210  19.858  0.00  0.00    +0.000 OA
ATOM     31  H   UNL     1       5.624  15.049  17.537  0.00  0.00    +0.000 HD
BRANCH  28  33
ATOM     32  C   UNL     1       7.341  15.018  20.293  0.00  0.00    +0.000 C 
ATOM     33  C   UNL     1       7.328  15.383  18.799  0.00  0.00    +0.000 C 
ATOM     34  C   UNL     1       8.184  16.637  18.548  0.00  0.00    +0.000 C 
ATOM     35  C   UNL     1       7.957  14.210  18.025  0.00  0.00    +0.000 C 
ENDBRANCH  28  33
ENDBRANCH  22  29
ENDBRANCH  21  25
ENDBRANCH   1  21
TORSDOF 7
ENDMDL
MODEL 8
REMARK VINA RESULT:      -7.7      2.251      2.646
REMARK  Name = 
REMARK  10 active torsions:
REMARK  status: ('A' for Active; 'I' for Inactive)
REMARK    1  A    between atoms: C_1  and  C_2
REMARK    2  A    between atoms: C_2  and  C_3
REMARK    3  A    between atoms: C_2  and  C_4
REMARK    4  A    between atoms: C_2  and  N_5
REMARK    5  A    between atoms: C_6  and  C_8
REMARK    6  A    between atoms: N_11  and  C_12
REMARK    7  A    between atoms: C_12  and  C_13
REMARK    8  A    between atoms: C_17  and  N_18
REMARK    9  A    between atoms: C_19  and  C_21
REMARK   10  A    between atoms: C_25  and  C_26
REMARK                            x       y       z     vdW  Elec       q    Type
REMARK                         _______ _______ _______ _____ _____    ______ ____
ROOT
ATOM      1  C   UNL     1       0.332  10.358  20.002  0.00  0.00    +0.000 A 
ATOM      2  N   UNL     1       0.234  10.470  21.340  0.00  0.00    +0.000 NA
ATOM      3  C   UNL     1       0.831   9.505  22.059  0.00  0.00    +0.000 A 
ATOM      4  C   UNL     1       1.511   8.440  21.501  0.00  0.00    +0.000 A 
ATOM      5  C   UNL     1       1.559   8.411  20.127  0.00  0.00    +0.000 A 
ATOM      6  N   UNL     1       0.981   9.356  19.382  0.00  0.00    +0.000 NA
ENDROOT
BRANCH   5   7
ATOM      7  N   UNL     1       2.228   7.354  19.487  0.00  0.00    +0.000 N 
ATOM      8  C   UNL     1       2.738   7.436  18.198  0.00  0.00    +0.000 C 
ATOM      9  O   UNL     1       2.690   8.392  17.434  0.00  0.00    +0.000 OA
ATOM     10  H   UNL     1       2.362   6.480  19.975  0.00  0.00    +0.000 HD
BRANCH   8  11
ATOM     11  C   UNL     1       3.431   6.194  17.730  0.00  0.00    +0.000 A 
ATOM     12  C   UNL     1       4.572   6.317  16.945  0.00  0.00    +0.000 A 
ATOM     13  C   UNL     1       5.249   5.163  16.573  0.00  0.00    +0.000 A 
ATOM     14  C   UNL     1       4.765   3.928  16.994  0.00  0.00    +0.000 A 
ATOM     15  C   UNL     1       3.602   3.873  17.774  0.00  0.00    +0.000 A 
ATOM     16  N   UNL     1       2.921   5.002  18.144  0.00  0.00    +0.000 NA
BRANCH  15  17
ATOM     17  C   UNL     1       3.086   2.520  18.251  0.00  0.00    +0.000 C 
ATOM     18  F   UNL     1       1.740   2.359  18.078  0.00  0.00    +0.000 F 
ATOM     19  F   UNL     1       3.667   1.476  17.595  0.00  0.00    +0.000 F 
ATOM     20  F   UNL     1       3.313   2.305  19.577  0.00  0.00    +0.000 F 
ENDBRANCH  15  17
ENDBRANCH   8  11
ENDBRANCH   5   7
BRANCH   1  21
ATOM     21  C   UNL     1      -0.344  11.385  19.109  0.00  0.00    +0.000 C 
BRANCH  21  25
ATOM     22  C   UNL     1      -3.886  10.600  16.781  0.00  0.00    +0.000 C 
ATOM     23  C   UNL     1      -3.209   9.450  17.525  0.00  0.00    +0.000 C 
ATOM     24  C   UNL     1      -2.255   9.972  18.603  0.00  0.00    +0.000 C 
ATOM     25  N   UNL     1      -1.217  10.844  18.027  0.00  0.00    +0.000 NA
ATOM     26  C   UNL     1      -1.811  11.979  17.299  0.00  0.00    +0.000 C 
ATOM     27  C   UNL     1      -2.796  11.523  16.216  0.00  0.00    +0.000 C 
BRANCH  22  29
ATOM     28  N   UNL     1      -5.364  12.537  17.130  0.00  0.00    +0.000 N 
ATOM     29  C   UNL     1      -4.848  11.379  17.681  0.00  0.00    +0.000 C 
ATOM     30  O   UNL     1      -5.119  11.006  18.819  0.00  0.00    +0.000 OA
ATOM     31  H   UNL     1      -5.059  12.813  16.204  0.00  0.00    +0.000 HD
BRANCH  28  33
ATOM     32  C   UNL     1      -6.876  14.487  16.880  0.00  0.00    +0.000 C 
ATOM     33  C   UNL     1      -6.380  13.364  17.806  0.00  0.00    +0.000 C 
ATOM     34  C   UNL     1      -5.808  13.956  19.106  0.00  0.00    +0.000 C 
ATOM     35  C   UNL     1      -7.591  12.486  18.170  0.00  0.00    +0.000 C 
ENDBRANCH  28  33
ENDBRANCH  22  29
ENDBRANCH  21  25
ENDBRANCH   1  21
TORSDOF 7
ENDMDL
MODEL 9
REMARK VINA RESULT:      -7.7      1.976      2.370
REMARK  Name = 
REMARK  10 active torsions:
REMARK  status: ('A' for Active; 'I' for Inactive)
REMARK    1  A    between atoms: C_1  and  C_2
REMARK    2  A    between atoms: C_2  and  C_3
REMARK    3  A    between atoms: C_2  and  C_4
REMARK    4  A    between atoms: C_2  and  N_5
REMARK    5  A    between atoms: C_6  and  C_8
REMARK    6  A    between atoms: N_11  and  C_12
REMARK    7  A    between atoms: C_12  and  C_13
REMARK    8  A    between atoms: C_17  and  N_18
REMARK    9  A    between atoms: C_19  and  C_21
REMARK   10  A    between atoms: C_25  and  C_26
REMARK                            x       y       z     vdW  Elec       q    Type
REMARK                         _______ _______ _______ _____ _____    ______ ____
ROOT
ATOM      1  C   UNL     1       0.082  10.464  19.919  0.00  0.00    +0.000 A 
ATOM      2  N   UNL     1      -0.128  10.591  21.242  0.00  0.00    +0.000 NA
ATOM      3  C   UNL     1       0.503   9.703  22.029  0.00  0.00    +0.000 A 
ATOM      4  C   UNL     1       1.322   8.699  21.551  0.00  0.00    +0.000 A 
ATOM      5  C   UNL     1       1.477   8.649  20.185  0.00  0.00    +0.000 A 
ATOM      6  N   UNL     1       0.869   9.518  19.375  0.00  0.00    +0.000 NA
ENDROOT
BRANCH   5   7
ATOM      7  N   UNL     1       2.291   7.649  19.624  0.00  0.00    +0.000 N 
ATOM      8  C   UNL     1       2.184   6.303  19.944  0.00  0.00    +0.000 C 
ATOM      9  O   UNL     1       1.406   5.781  20.732  0.00  0.00    +0.000 OA
ATOM     10  H   UNL     1       2.995   7.902  18.945  0.00  0.00    +0.000 HD
BRANCH   8  11
ATOM     11  C   UNL     1       3.139   5.417  19.205  0.00  0.00    +0.000 A 
ATOM     12  C   UNL     1       4.191   5.998  18.506  0.00  0.00    +0.000 A 
ATOM     13  C   UNL     1       5.111   5.167  17.881  0.00  0.00    +0.000 A 
ATOM     14  C   UNL     1       4.951   3.788  17.973  0.00  0.00    +0.000 A 
ATOM     15  C   UNL     1       3.862   3.266  18.683  0.00  0.00    +0.000 A 
ATOM     16  N   UNL     1       2.942   4.073  19.299  0.00  0.00    +0.000 NA
BRANCH  15  17
ATOM     17  C   UNL     1       3.700   1.755  18.799  0.00  0.00    +0.000 C 
ATOM     18  F   UNL     1       3.862   1.097  17.613  0.00  0.00    +0.000 F 
ATOM     19  F   UNL     1       4.601   1.196  19.654  0.00  0.00    +0.000 F 
ATOM     20  F   UNL     1       2.469   1.389  19.257  0.00  0.00    +0.000 F 
ENDBRANCH  15  17
ENDBRANCH   8  11
ENDBRANCH   5   7
BRANCH   1  21
ATOM     21  C   UNL     1      -0.620  11.403  18.951  0.00  0.00    +0.000 C 
BRANCH  21  25
ATOM     22  C   UNL     1      -4.078  10.461  16.557  0.00  0.00    +0.000 C 
ATOM     23  C   UNL     1      -3.495   9.394  17.481  0.00  0.00    +0.000 C 
ATOM     24  C   UNL     1      -2.570  10.015  18.532  0.00  0.00    +0.000 C 
ATOM     25  N   UNL     1      -1.465  10.758  17.904  0.00  0.00    +0.000 NA
ATOM     26  C   UNL     1      -1.966  11.809  17.001  0.00  0.00    +0.000 C 
ATOM     27  C   UNL     1      -2.918  11.254  15.936  0.00  0.00    +0.000 C 
BRANCH  22  29
ATOM     28  N   UNL     1      -5.609  10.872  18.440  0.00  0.00    +0.000 N 
ATOM     29  C   UNL     1      -5.044  11.394  17.292  0.00  0.00    +0.000 C 
ATOM     30  O   UNL     1      -5.308  12.517  16.872  0.00  0.00    +0.000 OA
ATOM     31  H   UNL     1      -5.387   9.919  18.702  0.00  0.00    +0.000 HD
BRANCH  28  33
ATOM     32  C   UNL     1      -7.534  12.434  18.522  0.00  0.00    +0.000 C 
ATOM     33  C   UNL     1      -6.484  11.654  19.331  0.00  0.00    +0.000 C 
ATOM     34  C   UNL     1      -5.648  12.618  20.191  0.00  0.00    +0.000 C 
ATOM     35  C   UNL     1      -7.236  10.698  20.275  0.00  0.00    +0.000 C 
ENDBRANCH  28  33
ENDBRANCH  22  29
ENDBRANCH  21  25
ENDBRANCH   1  21
TORSDOF 7
ENDMDL
