MODEL 1
REMARK VINA RESULT:      -7.9      0.000      0.000
REMARK  Name = 
REMARK  10 active torsions:
REMARK  status: ('A' for Active; 'I' for Inactive)
REMARK    1  A    between atoms: C_1  and  O_2
REMARK    2  A    between atoms: O_2  and  C_3
REMARK    3  A    between atoms: C_3  and  C_4
REMARK    4  A    between atoms: C_4  and  N_5
REMARK    5  A    between atoms: N_5  and  C_6
REMARK    6  A    between atoms: N_5  and  C_15
REMARK    7  A    between atoms: C_6  and  C_7
REMARK    8  A    between atoms: C_8  and  C_9
REMARK    9  A    between atoms: C_15  and  C_16
REMARK   10  A    between atoms: C_17  and  C_18
REMARK                            x       y       z     vdW  Elec       q    Type
REMARK                         _______ _______ _______ _____ _____    ______ ____
ROOT
ATOM      1  N   UNL     1       7.483   5.953  17.879  0.00  0.00    +0.000 NA
ENDROOT
BRANCH   1   2
ATOM      2  C   UNL     1       7.037   5.037  16.800  0.00  0.00    +0.000 C 
BRANCH   2   3
ATOM      3  C   UNL     1       6.255   5.698  15.653  0.00  0.00    +0.000 C 
BRANCH   3   5
ATOM      4  C   UNL     1       6.402   3.908  14.136  0.00  0.00    +0.000 C 
ATOM      5  O   UNL     1       6.777   5.257  14.394  0.00  0.00    +0.000 OA
ENDBRANCH   3   5
ENDBRANCH   2   3
ENDBRANCH   1   2
BRANCH   1   6
ATOM      6  C   UNL     1       7.345   7.360  17.491  0.00  0.00    +0.000 C 
BRANCH   6   7
ATOM      7  C   UNL     1       8.256   8.294  18.234  0.00  0.00    +0.000 C 
ATOM      8  C   UNL     1       8.374   9.603  17.962  0.00  0.00    +0.000 C 
BRANCH   8   9
ATOM      9  C   UNL     1       9.362  10.477  18.604  0.00  0.00    +0.000 A 
ATOM     10  C   UNL     1      10.295  11.197  17.844  0.00  0.00    +0.000 A 
ATOM     11  C   UNL     1      11.193  12.071  18.458  0.00  0.00    +0.000 A 
ATOM     12  C   UNL     1      11.161  12.243  19.838  0.00  0.00    +0.000 A 
ATOM     13  C   UNL     1      10.227  11.548  20.605  0.00  0.00    +0.000 A 
ATOM     14  C   UNL     1       9.326  10.673  19.990  0.00  0.00    +0.000 A 
ENDBRANCH   8   9
ENDBRANCH   6   7
ENDBRANCH   1   6
BRANCH   1  15
ATOM     15  C   UNL     1       6.783   5.636  19.144  0.00  0.00    +0.000 C 
BRANCH  15  16
ATOM     16  C   UNL     1       5.478   4.911  18.961  0.00  0.00    +0.000 C 
ATOM     17  C   UNL     1       4.315   5.300  19.500  0.00  0.00    +0.000 C 
BRANCH  17  18
ATOM     18  C   UNL     1       3.144   4.427  19.435  0.00  0.00    +0.000 A 
ATOM     19  C   UNL     1       2.017   4.744  20.202  0.00  0.00    +0.000 A 
ATOM     20  C   UNL     1       0.897   3.908  20.181  0.00  0.00    +0.000 A 
ATOM     21  C   UNL     1       0.905   2.755  19.402  0.00  0.00    +0.000 A 
ATOM     22  C   UNL     1       2.031   2.431  18.643  0.00  0.00    +0.000 A 
ATOM     23  C   UNL     1       3.152   3.263  18.661  0.00  0.00    +0.000 A 
ENDBRANCH  17  18
ENDBRANCH  15  16
ENDBRANCH   1  15
TORSDOF 9
ENDMDL
MODEL 2
REMARK VINA RESULT:      -7.8      1.370      8.551
REMARK  Name = 
REMARK  10 active torsions:
REMARK  status: ('A' for Active; 'I' for Inactive)
REMARK    1  A    between atoms: C_1  and  O_2
REMARK    2  A    between atoms: O_2  and  C_3
REMARK    3  A    between atoms: C_3  and  C_4
REMARK    4  A    between atoms: C_4  and  N_5
REMARK    5  A    between atoms: N_5  and  C_6
REMARK    6  A    between atoms: N_5  and  C_15
REMARK    7  A    between atoms: C_6  and  C_7
REMARK    8  A    between atoms: C_8  and  C_9
REMARK    9  A    between atoms: C_15  and  C_16
REMARK   10  A    between atoms: C_17  and  C_18
REMARK                            x       y       z     vdW  Elec       q    Type
REMARK                         _______ _______ _______ _____ _____    ______ ____
ROOT
ATOM      1  N   UNL     1       6.657   6.634  16.618  0.00  0.00    +0.000 NA
ENDROOT
BRANCH   1   2
ATOM      2  C   UNL     1       6.954   5.219  16.284  0.00  0.00    +0.000 C 
BRANCH   2   3
ATOM      3  C   UNL     1       6.860   4.860  14.792  0.00  0.00    +0.000 C 
BRANCH   3   5
ATOM      4  C   UNL     1       7.848   5.191  12.684  0.00  0.00    +0.000 C 
ATOM      5  O   UNL     1       7.922   5.497  14.073  0.00  0.00    +0.000 OA
ENDBRANCH   3   5
ENDBRANCH   2   3
ENDBRANCH   1   2
BRANCH   1   6
ATOM      6  C   UNL     1       5.217   6.869  16.766  0.00  0.00    +0.000 C 
BRANCH   6   7
ATOM      7  C   UNL     1       4.536   5.926  17.718  0.00  0.00    +0.000 C 
ATOM      8  C   UNL     1       3.221   5.659  17.698  0.00  0.00    +0.000 C 
BRANCH   8   9
ATOM      9  C   UNL     1       2.546   4.842  18.713  0.00  0.00    +0.000 A 
ATOM     10  C   UNL     1       2.629   5.165  20.075  0.00  0.00    +0.000 A 
ATOM     11  C   UNL     1       1.936   4.417  21.028  0.00  0.00    +0.000 A 
ATOM     12  C   UNL     1       1.144   3.346  20.628  0.00  0.00    +0.000 A 
ATOM     13  C   UNL     1       1.037   3.025  19.276  0.00  0.00    +0.000 A 
ATOM     14  C   UNL     1       1.730   3.774  18.320  0.00  0.00    +0.000 A 
ENDBRANCH   8   9
ENDBRANCH   6   7
ENDBRANCH   1   6
BRANCH   1  15
ATOM     15  C   UNL     1       7.431   7.054  17.808  0.00  0.00    +0.000 C 
BRANCH  15  16
ATOM     16  C   UNL     1       7.981   8.452  17.722  0.00  0.00    +0.000 C 
ATOM     17  C   UNL     1       8.753   9.019  18.659  0.00  0.00    +0.000 C 
BRANCH  17  18
ATOM     18  C   UNL     1       9.073  10.443  18.586  0.00  0.00    +0.000 A 
ATOM     19  C   UNL     1       8.329  11.263  17.729  0.00  0.00    +0.000 A 
ATOM     20  C   UNL     1       8.636  12.622  17.617  0.00  0.00    +0.000 A 
ATOM     21  C   UNL     1       9.687  13.160  18.354  0.00  0.00    +0.000 A 
ATOM     22  C   UNL     1      10.436  12.344  19.203  0.00  0.00    +0.000 A 
ATOM     23  C   UNL     1      10.133  10.985  19.317  0.00  0.00    +0.000 A 
ENDBRANCH  17  18
ENDBRANCH  15  16
ENDBRANCH   1  15
TORSDOF 9
ENDMDL
MODEL 3
REMARK VINA RESULT:      -7.6      0.986      1.119
REMARK  Name = 
REMARK  10 active torsions:
REMARK  status: ('A' for Active; 'I' for Inactive)
REMARK    1  A    between atoms: C_1  and  O_2
REMARK    2  A    between atoms: O_2  and  C_3
REMARK    3  A    between atoms: C_3  and  C_4
REMARK    4  A    between atoms: C_4  and  N_5
REMARK    5  A    between atoms: N_5  and  C_6
REMARK    6  A    between atoms: N_5  and  C_15
REMARK    7  A    between atoms: C_6  and  C_7
REMARK    8  A    between atoms: C_8  and  C_9
REMARK    9  A    between atoms: C_15  and  C_16
REMARK   10  A    between atoms: C_17  and  C_18
REMARK                            x       y       z     vdW  Elec       q    Type
REMARK                         _______ _______ _______ _____ _____    ______ ____
ROOT
ATOM      1  N   UNL     1       6.630   6.672  17.717  0.00  0.00    +0.000 NA
ENDROOT
BRANCH   1   2
ATOM      2  C   UNL     1       7.104   5.302  17.397  0.00  0.00    +0.000 C 
BRANCH   2   3
ATOM      3  C   UNL     1       7.245   4.987  15.899  0.00  0.00    +0.000 C 
BRANCH   3   5
ATOM      4  C   UNL     1       5.857   4.098  14.222  0.00  0.00    +0.000 C 
ATOM      5  O   UNL     1       6.358   3.920  15.543  0.00  0.00    +0.000 OA
ENDBRANCH   3   5
ENDBRANCH   2   3
ENDBRANCH   1   2
BRANCH   1   6
ATOM      6  C   UNL     1       7.458   7.699  17.078  0.00  0.00    +0.000 C 
BRANCH   6   7
ATOM      7  C   UNL     1       8.294   8.497  18.037  0.00  0.00    +0.000 C 
ATOM      8  C   UNL     1       8.526   9.814  17.915  0.00  0.00    +0.000 C 
BRANCH   8   9
ATOM      9  C   UNL     1       9.450  10.557  18.780  0.00  0.00    +0.000 A 
ATOM     10  C   UNL     1      10.619  11.133  18.264  0.00  0.00    +0.000 A 
ATOM     11  C   UNL     1      11.463  11.888  19.081  0.00  0.00    +0.000 A 
ATOM     12  C   UNL     1      11.140  12.082  20.420  0.00  0.00    +0.000 A 
ATOM     13  C   UNL     1       9.971  11.530  20.942  0.00  0.00    +0.000 A 
ATOM     14  C   UNL     1       9.125  10.775  20.124  0.00  0.00    +0.000 A 
ENDBRANCH   8   9
ENDBRANCH   6   7
ENDBRANCH   1   6
BRANCH   1  15
ATOM     15  C   UNL     1       5.193   6.808  17.389  0.00  0.00    +0.000 C 
BRANCH  15  16
ATOM     16  C   UNL     1       4.288   5.928  18.206  0.00  0.00    +0.000 C 
ATOM     17  C   UNL     1       3.515   4.959  17.697  0.00  0.00    +0.000 C 
BRANCH  17  18
ATOM     18  C   UNL     1       2.522   4.292  18.538  0.00  0.00    +0.000 A 
ATOM     19  C   UNL     1       2.280   4.787  19.825  0.00  0.00    +0.000 A 
ATOM     20  C   UNL     1       1.359   4.148  20.659  0.00  0.00    +0.000 A 
ATOM     21  C   UNL     1       0.686   3.015  20.213  0.00  0.00    +0.000 A 
ATOM     22  C   UNL     1       0.932   2.513  18.934  0.00  0.00    +0.000 A 
ATOM     23  C   UNL     1       1.852   3.148  18.097  0.00  0.00    +0.000 A 
ENDBRANCH  17  18
ENDBRANCH  15  16
ENDBRANCH   1  15
TORSDOF 9
ENDMDL
MODEL 4
REMARK VINA RESULT:      -7.6      1.027      1.490
REMARK  Name = 
REMARK  10 active torsions:
REMARK  status: ('A' for Active; 'I' for Inactive)
REMARK    1  A    between atoms: C_1  and  O_2
REMARK    2  A    between atoms: O_2  and  C_3
REMARK    3  A    between atoms: C_3  and  C_4
REMARK    4  A    between atoms: C_4  and  N_5
REMARK    5  A    between atoms: N_5  and  C_6
REMARK    6  A    between atoms: N_5  and  C_15
REMARK    7  A    between atoms: C_6  and  C_7
REMARK    8  A    between atoms: C_8  and  C_9
REMARK    9  A    between atoms: C_15  and  C_16
REMARK   10  A    between atoms: C_17  and  C_18
REMARK                            x       y       z     vdW  Elec       q    Type
REMARK                         _______ _______ _______ _____ _____    ______ ____
ROOT
ATOM      1  N   UNL     1       6.522   6.627  17.697  0.00  0.00    +0.000 NA
ENDROOT
BRANCH   1   2
ATOM      2  C   UNL     1       6.710   5.205  17.317  0.00  0.00    +0.000 C 
BRANCH   2   3
ATOM      3  C   UNL     1       7.006   4.954  15.829  0.00  0.00    +0.000 C 
BRANCH   3   5
ATOM      4  C   UNL     1       6.189   3.818  13.939  0.00  0.00    +0.000 C 
ATOM      5  O   UNL     1       6.232   3.843  15.362  0.00  0.00    +0.000 OA
ENDBRANCH   3   5
ENDBRANCH   2   3
ENDBRANCH   1   2
BRANCH   1   6
ATOM      6  C   UNL     1       7.522   7.496  17.067  0.00  0.00    +0.000 C 
BRANCH   6   7
ATOM      7  C   UNL     1       8.219   8.422  18.022  0.00  0.00    +0.000 C 
ATOM      8  C   UNL     1       8.482   9.712  17.761  0.00  0.00    +0.000 C 
BRANCH   8   9
ATOM      9  C   UNL     1       9.279  10.571  18.644  0.00  0.00    +0.000 A 
ATOM     10  C   UNL     1       9.106  10.537  20.036  0.00  0.00    +0.000 A 
ATOM     11  C   UNL     1       9.909  11.314  20.873  0.00  0.00    +0.000 A 
ATOM     12  C   UNL     1      10.900  12.125  20.327  0.00  0.00    +0.000 A 
ATOM     13  C   UNL     1      11.095  12.154  18.948  0.00  0.00    +0.000 A 
ATOM     14  C   UNL     1      10.292  11.375  18.109  0.00  0.00    +0.000 A 
ENDBRANCH   8   9
ENDBRANCH   6   7
ENDBRANCH   1   6
BRANCH   1  15
ATOM     15  C   UNL     1       5.134   7.055  17.417  0.00  0.00    +0.000 C 
BRANCH  15  16
ATOM     16  C   UNL     1       4.094   6.012  17.722  0.00  0.00    +0.000 C 
ATOM     17  C   UNL     1       3.133   6.149  18.646  0.00  0.00    +0.000 C 
BRANCH  17  18
ATOM     18  C   UNL     1       2.295   5.008  19.011  0.00  0.00    +0.000 A 
ATOM     19  C   UNL     1       1.895   4.859  20.344  0.00  0.00    +0.000 A 
ATOM     20  C   UNL     1       1.120   3.760  20.724  0.00  0.00    +0.000 A 
ATOM     21  C   UNL     1       0.751   2.809  19.778  0.00  0.00    +0.000 A 
ATOM     22  C   UNL     1       1.157   2.949  18.450  0.00  0.00    +0.000 A 
ATOM     23  C   UNL     1       1.931   4.046  18.065  0.00  0.00    +0.000 A 
ENDBRANCH  17  18
ENDBRANCH  15  16
ENDBRANCH   1  15
TORSDOF 9
ENDMDL
MODEL 5
REMARK VINA RESULT:      -7.6      0.822      1.002
REMARK  Name = 
REMARK  10 active torsions:
REMARK  status: ('A' for Active; 'I' for Inactive)
REMARK    1  A    between atoms: C_1  and  O_2
REMARK    2  A    between atoms: O_2  and  C_3
REMARK    3  A    between atoms: C_3  and  C_4
REMARK    4  A    between atoms: C_4  and  N_5
REMARK    5  A    between atoms: N_5  and  C_6
REMARK    6  A    between atoms: N_5  and  C_15
REMARK    7  A    between atoms: C_6  and  C_7
REMARK    8  A    between atoms: C_8  and  C_9
REMARK    9  A    between atoms: C_15  and  C_16
REMARK   10  A    between atoms: C_17  and  C_18
REMARK                            x       y       z     vdW  Elec       q    Type
REMARK                         _______ _______ _______ _____ _____    ______ ____
ROOT
ATOM      1  N   UNL     1       7.594   5.743  18.053  0.00  0.00    +0.000 NA
ENDROOT
BRANCH   1   2
ATOM      2  C   UNL     1       7.129   4.761  17.042  0.00  0.00    +0.000 C 
BRANCH   2   3
ATOM      3  C   UNL     1       6.742   5.353  15.677  0.00  0.00    +0.000 C 
BRANCH   3   5
ATOM      4  C   UNL     1       6.236   3.907  13.893  0.00  0.00    +0.000 C 
ATOM      5  O   UNL     1       5.733   4.541  15.065  0.00  0.00    +0.000 OA
ENDBRANCH   3   5
ENDBRANCH   2   3
ENDBRANCH   1   2
BRANCH   1   6
ATOM      6  C   UNL     1       7.423   7.124  17.591  0.00  0.00    +0.000 C 
BRANCH   6   7
ATOM      7  C   UNL     1       8.269   8.126  18.324  0.00  0.00    +0.000 C 
ATOM      8  C   UNL     1       8.352   9.424  17.993  0.00  0.00    +0.000 C 
BRANCH   8   9
ATOM      9  C   UNL     1       9.281  10.364  18.630  0.00  0.00    +0.000 A 
ATOM     10  C   UNL     1      10.148  11.157  17.865  0.00  0.00    +0.000 A 
ATOM     11  C   UNL     1      10.987  12.091  18.476  0.00  0.00    +0.000 A 
ATOM     12  C   UNL     1      10.960  12.248  19.858  0.00  0.00    +0.000 A 
ATOM     13  C   UNL     1      10.091  11.479  20.630  0.00  0.00    +0.000 A 
ATOM     14  C   UNL     1       9.249  10.545  20.018  0.00  0.00    +0.000 A 
ENDBRANCH   8   9
ENDBRANCH   6   7
ENDBRANCH   1   6
BRANCH   1  15
ATOM     15  C   UNL     1       6.937   5.490  19.355  0.00  0.00    +0.000 C 
BRANCH  15  16
ATOM     16  C   UNL     1       5.481   5.128  19.251  0.00  0.00    +0.000 C 
ATOM     17  C   UNL     1       4.991   3.899  19.458  0.00  0.00    +0.000 C 
BRANCH  17  18
ATOM     18  C   UNL     1       3.596   3.599  19.140  0.00  0.00    +0.000 A 
ATOM     19  C   UNL     1       2.993   4.245  18.054  0.00  0.00    +0.000 A 
ATOM     20  C   UNL     1       1.652   4.000  17.748  0.00  0.00    +0.000 A 
ATOM     21  C   UNL     1       0.912   3.117  18.528  0.00  0.00    +0.000 A 
ATOM     22  C   UNL     1       1.506   2.478  19.618  0.00  0.00    +0.000 A 
ATOM     23  C   UNL     1       2.847   2.720  19.927  0.00  0.00    +0.000 A 
ENDBRANCH  17  18
ENDBRANCH  15  16
ENDBRANCH   1  15
TORSDOF 9
ENDMDL
MODEL 6
REMARK VINA RESULT:      -7.5      0.714      1.508
REMARK  Name = 
REMARK  10 active torsions:
REMARK  status: ('A' for Active; 'I' for Inactive)
REMARK    1  A    between atoms: C_1  and  O_2
REMARK    2  A    between atoms: O_2  and  C_3
REMARK    3  A    between atoms: C_3  and  C_4
REMARK    4  A    between atoms: C_4  and  N_5
REMARK    5  A    between atoms: N_5  and  C_6
REMARK    6  A    between atoms: N_5  and  C_15
REMARK    7  A    between atoms: C_6  and  C_7
REMARK    8  A    between atoms: C_8  and  C_9
REMARK    9  A    between atoms: C_15  and  C_16
REMARK   10  A    between atoms: C_17  and  C_18
REMARK                            x       y       z     vdW  Elec       q    Type
REMARK                         _______ _______ _______ _____ _____    ______ ____
ROOT
ATOM      1  N   UNL     1       7.172   6.133  17.662  0.00  0.00    +0.000 NA
ENDROOT
BRANCH   1   2
ATOM      2  C   UNL     1       6.446   5.300  16.672  0.00  0.00    +0.000 C 
BRANCH   2   3
ATOM      3  C   UNL     1       7.334   4.522  15.687  0.00  0.00    +0.000 C 
BRANCH   3   5
ATOM      4  C   UNL     1       5.557   4.286  14.165  0.00  0.00    +0.000 C 
ATOM      5  O   UNL     1       6.535   3.599  14.939  0.00  0.00    +0.000 OA
ENDBRANCH   3   5
ENDBRANCH   2   3
ENDBRANCH   1   2
BRANCH   1   6
ATOM      6  C   UNL     1       7.161   7.553  17.292  0.00  0.00    +0.000 C 
BRANCH   6   7
ATOM      7  C   UNL     1       8.137   8.395  18.063  0.00  0.00    +0.000 C 
ATOM      8  C   UNL     1       8.240   9.728  17.939  0.00  0.00    +0.000 C 
BRANCH   8   9
ATOM      9  C   UNL     1       9.283  10.523  18.596  0.00  0.00    +0.000 A 
ATOM     10  C   UNL     1       9.287  10.706  19.986  0.00  0.00    +0.000 A 
ATOM     11  C   UNL     1      10.316  11.415  20.609  0.00  0.00    +0.000 A 
ATOM     12  C   UNL     1      11.357  11.939  19.849  0.00  0.00    +0.000 A 
ATOM     13  C   UNL     1      11.375  11.750  18.469  0.00  0.00    +0.000 A 
ATOM     14  C   UNL     1      10.346  11.038  17.844  0.00  0.00    +0.000 A 
ENDBRANCH   8   9
ENDBRANCH   6   7
ENDBRANCH   1   6
BRANCH   1  15
ATOM     15  C   UNL     1       6.644   5.892  19.023  0.00  0.00    +0.000 C 
BRANCH  15  16
ATOM     16  C   UNL     1       5.365   5.100  19.056  0.00  0.00    +0.000 C 
ATOM     17  C   UNL     1       4.163   5.617  19.344  0.00  0.00    +0.000 C 
BRANCH  17  18
ATOM     18  C   UNL     1       3.014   4.738  19.549  0.00  0.00    +0.000 A 
ATOM     19  C   UNL     1       2.385   4.171  18.434  0.00  0.00    +0.000 A 
ATOM     20  C   UNL     1       1.265   3.353  18.601  0.00  0.00    +0.000 A 
ATOM     21  C   UNL     1       0.769   3.106  19.878  0.00  0.00    +0.000 A 
ATOM     22  C   UNL     1       1.387   3.678  20.991  0.00  0.00    +0.000 A 
ATOM     23  C   UNL     1       2.507   4.496  20.829  0.00  0.00    +0.000 A 
ENDBRANCH  17  18
ENDBRANCH  15  16
ENDBRANCH   1  15
TORSDOF 9
ENDMDL
MODEL 7
REMARK VINA RESULT:      -7.3      1.208      8.622
REMARK  Name = 
REMARK  10 active torsions:
REMARK  status: ('A' for Active; 'I' for Inactive)
REMARK    1  A    between atoms: C_1  and  O_2
REMARK    2  A    between atoms: O_2  and  C_3
REMARK    3  A    between atoms: C_3  and  C_4
REMARK    4  A    between atoms: C_4  and  N_5
REMARK    5  A    between atoms: N_5  and  C_6
REMARK    6  A    between atoms: N_5  and  C_15
REMARK    7  A    between atoms: C_6  and  C_7
REMARK    8  A    between atoms: C_8  and  C_9
REMARK    9  A    between atoms: C_15  and  C_16
REMARK   10  A    between atoms: C_17  and  C_18
REMARK                            x       y       z     vdW  Elec       q    Type
REMARK                         _______ _______ _______ _____ _____    ______ ____
ROOT
ATOM      1  N   UNL     1       5.939   7.116  16.610  0.00  0.00    +0.000 NA
ENDROOT
BRANCH   1   2
ATOM      2  C   UNL     1       5.743   5.818  15.919  0.00  0.00    +0.000 C 
BRANCH   2   3
ATOM      3  C   UNL     1       6.773   4.728  16.259  0.00  0.00    +0.000 C 
BRANCH   3   5
ATOM      4  C   UNL     1       5.990   4.034  14.153  0.00  0.00    +0.000 C 
ATOM      5  O   UNL     1       6.623   3.623  15.360  0.00  0.00    +0.000 OA
ENDBRANCH   3   5
ENDBRANCH   2   3
ENDBRANCH   1   2
BRANCH   1   6
ATOM      6  C   UNL     1       4.774   7.482  17.423  0.00  0.00    +0.000 C 
BRANCH   6   7
ATOM      7  C   UNL     1       3.786   6.368  17.615  0.00  0.00    +0.000 C 
ATOM      8  C   UNL     1       3.540   5.777  18.795  0.00  0.00    +0.000 C 
BRANCH   8   9
ATOM      9  C   UNL     1       2.673   4.603  18.948  0.00  0.00    +0.000 A 
ATOM     10  C   UNL     1       1.691   4.554  19.948  0.00  0.00    +0.000 A 
ATOM     11  C   UNL     1       0.831   3.459  20.049  0.00  0.00    +0.000 A 
ATOM     12  C   UNL     1       0.937   2.407  19.144  0.00  0.00    +0.000 A 
ATOM     13  C   UNL     1       1.896   2.452  18.134  0.00  0.00    +0.000 A 
ATOM     14  C   UNL     1       2.757   3.549  18.031  0.00  0.00    +0.000 A 
ENDBRANCH   8   9
ENDBRANCH   6   7
ENDBRANCH   1   6
BRANCH   1  15
ATOM     15  C   UNL     1       7.198   7.100  17.388  0.00  0.00    +0.000 C 
BRANCH  15  16
ATOM     16  C   UNL     1       7.806   8.459  17.604  0.00  0.00    +0.000 C 
ATOM     17  C   UNL     1       8.641   8.763  18.607  0.00  0.00    +0.000 C 
BRANCH  17  18
ATOM     18  C   UNL     1       9.021  10.153  18.853  0.00  0.00    +0.000 A 
ATOM     19  C   UNL     1       9.526  10.507  20.110  0.00  0.00    +0.000 A 
ATOM     20  C   UNL     1       9.867  11.834  20.380  0.00  0.00    +0.000 A 
ATOM     21  C   UNL     1       9.698  12.809  19.401  0.00  0.00    +0.000 A 
ATOM     22  C   UNL     1       9.185  12.461  18.150  0.00  0.00    +0.000 A 
ATOM     23  C   UNL     1       8.843  11.135  17.875  0.00  0.00    +0.000 A 
ENDBRANCH  17  18
ENDBRANCH  15  16
ENDBRANCH   1  15
TORSDOF 9
ENDMDL
MODEL 8
REMARK VINA RESULT:      -7.2      1.319      8.546
REMARK  Name = 
REMARK  10 active torsions:
REMARK  status: ('A' for Active; 'I' for Inactive)
REMARK    1  A    between atoms: C_1  and  O_2
REMARK    2  A    between atoms: O_2  and  C_3
REMARK    3  A    between atoms: C_3  and  C_4
REMARK    4  A    between atoms: C_4  and  N_5
REMARK    5  A    between atoms: N_5  and  C_6
REMARK    6  A    between atoms: N_5  and  C_15
REMARK    7  A    between atoms: C_6  and  C_7
REMARK    8  A    between atoms: C_8  and  C_9
REMARK    9  A    between atoms: C_15  and  C_16
REMARK   10  A    between atoms: C_17  and  C_18
REMARK                            x       y       z     vdW  Elec       q    Type
REMARK                         _______ _______ _______ _____ _____    ______ ____
ROOT
ATOM      1  N   UNL     1       6.661   6.909  16.635  0.00  0.00    +0.000 NA
ENDROOT
BRANCH   1   2
ATOM      2  C   UNL     1       6.696   5.473  16.260  0.00  0.00    +0.000 C 
BRANCH   2   3
ATOM      3  C   UNL     1       7.065   5.182  14.797  0.00  0.00    +0.000 C 
BRANCH   3   5
ATOM      4  C   UNL     1       5.659   3.400  15.410  0.00  0.00    +0.000 C 
ATOM      5  O   UNL     1       6.525   3.915  14.403  0.00  0.00    +0.000 OA
ENDBRANCH   3   5
ENDBRANCH   2   3
ENDBRANCH   1   2
BRANCH   1   6
ATOM      6  C   UNL     1       5.298   7.362  16.929  0.00  0.00    +0.000 C 
BRANCH   6   7
ATOM      7  C   UNL     1       4.352   6.258  17.308  0.00  0.00    +0.000 C 
ATOM      8  C   UNL     1       3.473   6.337  18.319  0.00  0.00    +0.000 C 
BRANCH   8   9
ATOM      9  C   UNL     1       2.649   5.207  18.765  0.00  0.00    +0.000 A 
ATOM     10  C   UNL     1       1.944   5.258  19.976  0.00  0.00    +0.000 A 
ATOM     11  C   UNL     1       1.116   4.204  20.364  0.00  0.00    +0.000 A 
ATOM     12  C   UNL     1       0.976   3.092  19.540  0.00  0.00    +0.000 A 
ATOM     13  C   UNL     1       1.655   3.036  18.324  0.00  0.00    +0.000 A 
ATOM     14  C   UNL     1       2.484   4.092  17.934  0.00  0.00    +0.000 A 
ENDBRANCH   8   9
ENDBRANCH   6   7
ENDBRANCH   1   6
BRANCH   1  15
ATOM     15  C   UNL     1       7.604   7.173  17.744  0.00  0.00    +0.000 C 
BRANCH  15  16
ATOM     16  C   UNL     1       7.999   8.618  17.885  0.00  0.00    +0.000 C 
ATOM     17  C   UNL     1       8.912   9.071  18.755  0.00  0.00    +0.000 C 
BRANCH  17  18
ATOM     18  C   UNL     1       9.084  10.508  18.961  0.00  0.00    +0.000 A 
ATOM     19  C   UNL     1       8.919  11.374  17.873  0.00  0.00    +0.000 A 
ATOM     20  C   UNL     1       9.109  12.748  18.037  0.00  0.00    +0.000 A 
ATOM     21  C   UNL     1       9.470  13.257  19.281  0.00  0.00    +0.000 A 
ATOM     22  C   UNL     1       9.646  12.395  20.365  0.00  0.00    +0.000 A 
ATOM     23  C   UNL     1       9.457  11.021  20.206  0.00  0.00    +0.000 A 
ENDBRANCH  17  18
ENDBRANCH  15  16
ENDBRANCH   1  15
TORSDOF 9
ENDMDL
MODEL 9
REMARK VINA RESULT:      -7.2      4.059      7.048
REMARK  Name = 
REMARK  10 active torsions:
REMARK  status: ('A' for Active; 'I' for Inactive)
REMARK    1  A    between atoms: C_1  and  O_2
REMARK    2  A    between atoms: O_2  and  C_3
REMARK    3  A    between atoms: C_3  and  C_4
REMARK    4  A    between atoms: C_4  and  N_5
REMARK    5  A    between atoms: N_5  and  C_6
REMARK    6  A    between atoms: N_5  and  C_15
REMARK    7  A    between atoms: C_6  and  C_7
REMARK    8  A    between atoms: C_8  and  C_9
REMARK    9  A    between atoms: C_15  and  C_16
REMARK   10  A    between atoms: C_17  and  C_18
REMARK                            x       y       z     vdW  Elec       q    Type
REMARK                         _______ _______ _______ _____ _____    ______ ____
ROOT
ATOM      1  N   UNL     1       5.716   5.219  16.553  0.00  0.00    +0.000 NA
ENDROOT
BRANCH   1   2
ATOM      2  C   UNL     1       6.487   4.769  15.367  0.00  0.00    +0.000 C 
BRANCH   2   3
ATOM      3  C   UNL     1       5.651   4.156  14.231  0.00  0.00    +0.000 C 
BRANCH   3   5
ATOM      4  C   UNL     1       5.980   3.312  12.061  0.00  0.00    +0.000 C 
ATOM      5  O   UNL     1       6.491   3.357  13.390  0.00  0.00    +0.000 OA
ENDBRANCH   3   5
ENDBRANCH   2   3
ENDBRANCH   1   2
BRANCH   1   6
ATOM      6  C   UNL     1       6.315   4.743  17.804  0.00  0.00    +0.000 C 
BRANCH   6   7
ATOM      7  C   UNL     1       5.313   4.318  18.840  0.00  0.00    +0.000 C 
ATOM      8  C   UNL     1       4.119   3.778  18.553  0.00  0.00    +0.000 C 
BRANCH   8   9
ATOM      9  C   UNL     1       3.096   3.490  19.565  0.00  0.00    +0.000 A 
ATOM     10  C   UNL     1       1.764   3.887  19.382  0.00  0.00    +0.000 A 
ATOM     11  C   UNL     1       0.786   3.558  20.322  0.00  0.00    +0.000 A 
ATOM     12  C   UNL     1       1.129   2.819  21.450  0.00  0.00    +0.000 A 
ATOM     13  C   UNL     1       2.445   2.402  21.636  0.00  0.00    +0.000 A 
ATOM     14  C   UNL     1       3.425   2.730  20.694  0.00  0.00    +0.000 A 
ENDBRANCH   8   9
ENDBRANCH   6   7
ENDBRANCH   1   6
BRANCH   1  15
ATOM     15  C   UNL     1       5.541   6.688  16.525  0.00  0.00    +0.000 C 
BRANCH  15  16
ATOM     16  C   UNL     1       4.585   7.215  17.560  0.00  0.00    +0.000 C 
ATOM     17  C   UNL     1       3.251   7.132  17.468  0.00  0.00    +0.000 C 
BRANCH  17  18
ATOM     18  C   UNL     1       2.402   7.847  18.420  0.00  0.00    +0.000 A 
ATOM     19  C   UNL     1       1.755   9.018  18.008  0.00  0.00    +0.000 A 
ATOM     20  C   UNL     1       0.964   9.736  18.908  0.00  0.00    +0.000 A 
ATOM     21  C   UNL     1       0.823   9.290  20.219  0.00  0.00    +0.000 A 
ATOM     22  C   UNL     1       1.474   8.128  20.636  0.00  0.00    +0.000 A 
ATOM     23  C   UNL     1       2.267   7.407  19.740  0.00  0.00    +0.000 A 
ENDBRANCH  17  18
ENDBRANCH  15  16
ENDBRANCH   1  15
TORSDOF 9
ENDMDL
