MODEL 1
REMARK VINA RESULT:      -8.1      0.000      0.000
REMARK  Name = 
REMARK  7 active torsions:
REMARK  status: ('A' for Active; 'I' for Inactive)
REMARK    1  A    between atoms: C_1  and  O_2
REMARK    2  A    between atoms: O_2  and  C_3
REMARK    3  A    between atoms: C_6  and  S_7
REMARK    4  A    between atoms: S_7  and  N_10
REMARK    5  A    between atoms: C_14  and  C_15
REMARK    6  A    between atoms: N_17  and  C_18
REMARK    7  A    between atoms: C_25  and  C_26
REMARK                            x       y       z     vdW  Elec       q    Type
REMARK                         _______ _______ _______ _____ _____    ______ ____
ROOT
ATOM      1  C   UNL     1       2.418   7.535  18.860  0.00  0.00    +0.000 C 
ATOM      2  O   UNL     1       2.432   7.638  17.630  0.00  0.00    +0.000 OA
ATOM      3  N   UNL     1       1.776   8.487  19.646  0.00  0.00    +0.000 N 
ATOM      4  H   UNL     1       1.933   8.463  20.650  0.00  0.00    +0.000 HD
ENDROOT
BRANCH   3   5
ATOM      5  C   UNL     1       1.052   9.597  19.037  0.00  0.00    +0.000 C 
ATOM      6  C   UNL     1      -0.487   9.465  19.199  0.00  0.00    +0.000 C 
ATOM      7  C   UNL     1      -1.151  10.541  18.318  0.00  0.00    +0.000 C 
ATOM      8  C   UNL     1      -0.728  11.944  18.790  0.00  0.00    +0.000 C 
ATOM      9  C   UNL     1       0.804  12.065  18.677  0.00  0.00    +0.000 C 
ATOM     10  C   UNL     1       1.488  10.989  19.549  0.00  0.00    +0.000 C 
ATOM     11  C   UNL     1       1.051  11.211  21.004  0.00  0.00    +0.000 C 
ATOM     12  C   UNL     1      -0.484  11.083  21.161  0.00  0.00    +0.000 C 
ATOM     13  C   UNL     1      -1.155  12.148  20.260  0.00  0.00    +0.000 C 
ATOM     14  C   UNL     1      -0.927   9.691  20.659  0.00  0.00    +0.000 C 
BRANCH  12  15
ATOM     15  C   UNL     1      -0.843  11.266  22.647  0.00  0.00    +0.000 C 
ATOM     16  N   UNL     1      -0.995  10.139  23.394  0.00  0.00    +0.000 N 
ATOM     17  O   UNL     1      -0.965  12.362  23.187  0.00  0.00    +0.000 OA
ATOM     18  H   UNL     1      -1.079   9.213  23.003  0.00  0.00    +0.000 HD
ATOM     19  H   UNL     1      -1.253  10.277  24.363  0.00  0.00    +0.000 HD
ENDBRANCH  12  15
ENDBRANCH   3   5
BRANCH   1  24
ATOM     20  N   UNL     1       3.455   5.346  18.519  0.00  0.00    +0.000 NA
ATOM     21  C   UNL     1       2.275   4.534  18.129  0.00  0.00    +0.000 C 
ATOM     22  C   UNL     1       1.263   4.466  19.275  0.00  0.00    +0.000 C 
ATOM     23  S   UNL     1       1.911   5.440  20.647  0.00  0.00    +0.000 S 
ATOM     24  C   UNL     1       3.081   6.316  19.579  0.00  0.00    +0.000 C 
BRANCH  20  25
ATOM     25  S   UNL     1       4.927   4.553  18.764  0.00  0.00    +0.000 S 
ATOM     26  O   UNL     1       4.615   3.206  19.205  0.00  0.00    +0.000 OA
ATOM     27  O   UNL     1       5.780   5.411  19.551  0.00  0.00    +0.000 OA
BRANCH  25  31
ATOM     28  C   UNL     1       6.734   4.620  14.554  0.00  0.00    +0.000 A 
ATOM     29  C   UNL     1       5.439   4.135  14.761  0.00  0.00    +0.000 A 
ATOM     30  C   UNL     1       4.895   4.059  16.051  0.00  0.00    +0.000 A 
ATOM     31  C   UNL     1       5.670   4.449  17.146  0.00  0.00    +0.000 A 
ATOM     32  C   UNL     1       6.980   4.896  16.952  0.00  0.00    +0.000 A 
ATOM     33  C   UNL     1       7.510   4.981  15.657  0.00  0.00    +0.000 A 
BRANCH  28  35
ATOM     34  C   UNL     1       6.569   3.702  12.371  0.00  0.00    +0.000 C 
ATOM     35  O   UNL     1       7.152   4.662  13.251  0.00  0.00    +0.000 OA
ENDBRANCH  28  35
ENDBRANCH  25  31
ENDBRANCH  20  25
ENDBRANCH   1  24
TORSDOF 6
ENDMDL
MODEL 2
REMARK VINA RESULT:      -8.1      2.737      9.865
REMARK  Name = 
REMARK  7 active torsions:
REMARK  status: ('A' for Active; 'I' for Inactive)
REMARK    1  A    between atoms: C_1  and  O_2
REMARK    2  A    between atoms: O_2  and  C_3
REMARK    3  A    between atoms: C_6  and  S_7
REMARK    4  A    between atoms: S_7  and  N_10
REMARK    5  A    between atoms: C_14  and  C_15
REMARK    6  A    between atoms: N_17  and  C_18
REMARK    7  A    between atoms: C_25  and  C_26
REMARK                            x       y       z     vdW  Elec       q    Type
REMARK                         _______ _______ _______ _____ _____    ______ ____
ROOT
ATOM      1  C   UNL     1       1.524   8.145  20.109  0.00  0.00    +0.000 C 
ATOM      2  O   UNL     1       0.943   7.869  21.163  0.00  0.00    +0.000 OA
ATOM      3  N   UNL     1       2.054   7.141  19.306  0.00  0.00    +0.000 N 
ATOM      4  H   UNL     1       2.669   7.413  18.543  0.00  0.00    +0.000 HD
ENDROOT
BRANCH   3   5
ATOM      5  C   UNL     1       1.888   5.734  19.655  0.00  0.00    +0.000 C 
ATOM      6  C   UNL     1       1.648   4.836  18.412  0.00  0.00    +0.000 C 
ATOM      7  C   UNL     1       1.244   3.435  18.909  0.00  0.00    +0.000 C 
ATOM      8  C   UNL     1       2.382   2.822  19.744  0.00  0.00    +0.000 C 
ATOM      9  C   UNL     1       2.657   3.734  20.954  0.00  0.00    +0.000 C 
ATOM     10  C   UNL     1       3.059   5.146  20.475  0.00  0.00    +0.000 C 
ATOM     11  C   UNL     1       4.327   5.014  19.620  0.00  0.00    +0.000 C 
ATOM     12  C   UNL     1       4.086   4.113  18.384  0.00  0.00    +0.000 C 
ATOM     13  C   UNL     1       3.657   2.711  18.880  0.00  0.00    +0.000 C 
ATOM     14  C   UNL     1       2.922   4.699  17.554  0.00  0.00    +0.000 C 
BRANCH  12  15
ATOM     15  C   UNL     1       5.380   4.067  17.550  0.00  0.00    +0.000 C 
ATOM     16  N   UNL     1       6.559   4.145  18.224  0.00  0.00    +0.000 N 
ATOM     17  O   UNL     1       5.397   3.933  16.329  0.00  0.00    +0.000 OA
ATOM     18  H   UNL     1       6.636   4.421  19.192  0.00  0.00    +0.000 HD
ATOM     19  H   UNL     1       7.398   4.135  17.659  0.00  0.00    +0.000 HD
ENDBRANCH  12  15
ENDBRANCH   3   5
BRANCH   1  24
ATOM     20  N   UNL     1       0.365  10.293  19.943  0.00  0.00    +0.000 NA
ATOM     21  C   UNL     1      -0.654   9.983  18.909  0.00  0.00    +0.000 C 
ATOM     22  C   UNL     1       0.016   9.641  17.576  0.00  0.00    +0.000 C 
ATOM     23  S   UNL     1       1.801   9.724  17.814  0.00  0.00    +0.000 S 
ATOM     24  C   UNL     1       1.648   9.622  19.615  0.00  0.00    +0.000 C 
BRANCH  20  25
ATOM     25  S   UNL     1       0.510  11.891  20.472  0.00  0.00    +0.000 S 
ATOM     26  O   UNL     1       0.470  12.734  19.291  0.00  0.00    +0.000 OA
ATOM     27  O   UNL     1       1.615  11.966  21.398  0.00  0.00    +0.000 OA
BRANCH  25  31
ATOM     28  C   UNL     1      -3.408  12.371  22.799  0.00  0.00    +0.000 A 
ATOM     29  C   UNL     1      -3.270  12.927  21.523  0.00  0.00    +0.000 A 
ATOM     30  C   UNL     1      -2.059  12.833  20.823  0.00  0.00    +0.000 A 
ATOM     31  C   UNL     1      -0.968  12.199  21.423  0.00  0.00    +0.000 A 
ATOM     32  C   UNL     1      -1.085  11.678  22.715  0.00  0.00    +0.000 A 
ATOM     33  C   UNL     1      -2.304  11.765  23.400  0.00  0.00    +0.000 A 
BRANCH  28  35
ATOM     34  C   UNL     1      -4.692  12.368  24.796  0.00  0.00    +0.000 C 
ATOM     35  O   UNL     1      -4.641  12.511  23.377  0.00  0.00    +0.000 OA
ENDBRANCH  28  35
ENDBRANCH  25  31
ENDBRANCH  20  25
ENDBRANCH   1  24
TORSDOF 6
ENDMDL
MODEL 3
REMARK VINA RESULT:      -7.8      0.898      1.198
REMARK  Name = 
REMARK  7 active torsions:
REMARK  status: ('A' for Active; 'I' for Inactive)
REMARK    1  A    between atoms: C_1  and  O_2
REMARK    2  A    between atoms: O_2  and  C_3
REMARK    3  A    between atoms: C_6  and  S_7
REMARK    4  A    between atoms: S_7  and  N_10
REMARK    5  A    between atoms: C_14  and  C_15
REMARK    6  A    between atoms: N_17  and  C_18
REMARK    7  A    between atoms: C_25  and  C_26
REMARK                            x       y       z     vdW  Elec       q    Type
REMARK                         _______ _______ _______ _____ _____    ______ ____
ROOT
ATOM      1  C   UNL     1       2.534   7.246  18.786  0.00  0.00    +0.000 C 
ATOM      2  O   UNL     1       2.605   7.449  17.570  0.00  0.00    +0.000 OA
ATOM      3  N   UNL     1       1.864   8.137  19.617  0.00  0.00    +0.000 N 
ATOM      4  H   UNL     1       1.974   8.030  20.622  0.00  0.00    +0.000 HD
ENDROOT
BRANCH   3   5
ATOM      5  C   UNL     1       1.176   9.301  19.070  0.00  0.00    +0.000 C 
ATOM      6  C   UNL     1      -0.367   9.203  19.212  0.00  0.00    +0.000 C 
ATOM      7  C   UNL     1      -0.993  10.347  18.392  0.00  0.00    +0.000 C 
ATOM      8  C   UNL     1      -0.536  11.707  18.948  0.00  0.00    +0.000 C 
ATOM      9  C   UNL     1       1.000  11.792  18.854  0.00  0.00    +0.000 C 
ATOM     10  C   UNL     1       1.646  10.648  19.666  0.00  0.00    +0.000 C 
ATOM     11  C   UNL     1       1.202  10.796  21.128  0.00  0.00    +0.000 C 
ATOM     12  C   UNL     1      -0.338  10.702  21.266  0.00  0.00    +0.000 C 
ATOM     13  C   UNL     1      -0.971  11.836  20.424  0.00  0.00    +0.000 C 
ATOM     14  C   UNL     1      -0.815   9.355  20.679  0.00  0.00    +0.000 C 
BRANCH  12  15
ATOM     15  C   UNL     1      -0.705  10.807  22.757  0.00  0.00    +0.000 C 
ATOM     16  N   UNL     1      -1.751  11.612  23.086  0.00  0.00    +0.000 N 
ATOM     17  O   UNL     1      -0.129  10.184  23.645  0.00  0.00    +0.000 OA
ATOM     18  H   UNL     1      -2.167  12.280  22.454  0.00  0.00    +0.000 HD
ATOM     19  H   UNL     1      -1.965  11.687  24.072  0.00  0.00    +0.000 HD
ENDBRANCH  12  15
ENDBRANCH   3   5
BRANCH   1  24
ATOM     20  N   UNL     1       3.019   4.874  18.434  0.00  0.00    +0.000 NA
ATOM     21  C   UNL     1       1.652   4.297  18.490  0.00  0.00    +0.000 C 
ATOM     22  C   UNL     1       1.033   4.510  19.873  0.00  0.00    +0.000 C 
ATOM     23  S   UNL     1       2.221   5.416  20.882  0.00  0.00    +0.000 S 
ATOM     24  C   UNL     1       3.156   5.966  19.431  0.00  0.00    +0.000 C 
BRANCH  20  25
ATOM     25  S   UNL     1       4.333   3.815  18.351  0.00  0.00    +0.000 S 
ATOM     26  O   UNL     1       3.804   2.510  18.000  0.00  0.00    +0.000 OA
ATOM     27  O   UNL     1       5.138   3.994  19.535  0.00  0.00    +0.000 OA
BRANCH  25  31
ATOM     28  C   UNL     1       7.101   5.092  14.930  0.00  0.00    +0.000 A 
ATOM     29  C   UNL     1       7.107   5.788  16.142  0.00  0.00    +0.000 A 
ATOM     30  C   UNL     1       6.226   5.441  17.177  0.00  0.00    +0.000 A 
ATOM     31  C   UNL     1       5.313   4.402  16.981  0.00  0.00    +0.000 A 
ATOM     32  C   UNL     1       5.273   3.728  15.757  0.00  0.00    +0.000 A 
ATOM     33  C   UNL     1       6.166   4.074  14.734  0.00  0.00    +0.000 A 
BRANCH  28  35
ATOM     34  C   UNL     1       7.765   5.121  12.651  0.00  0.00    +0.000 C 
ATOM     35  O   UNL     1       8.015   5.510  14.001  0.00  0.00    +0.000 OA
ENDBRANCH  28  35
ENDBRANCH  25  31
ENDBRANCH  20  25
ENDBRANCH   1  24
TORSDOF 6
ENDMDL
MODEL 4
REMARK VINA RESULT:      -7.7      8.062     11.210
REMARK  Name = 
REMARK  7 active torsions:
REMARK  status: ('A' for Active; 'I' for Inactive)
REMARK    1  A    between atoms: C_1  and  O_2
REMARK    2  A    between atoms: O_2  and  C_3
REMARK    3  A    between atoms: C_6  and  S_7
REMARK    4  A    between atoms: S_7  and  N_10
REMARK    5  A    between atoms: C_14  and  C_15
REMARK    6  A    between atoms: N_17  and  C_18
REMARK    7  A    between atoms: C_25  and  C_26
REMARK                            x       y       z     vdW  Elec       q    Type
REMARK                         _______ _______ _______ _____ _____    ______ ____
ROOT
ATOM      1  C   UNL     1       8.023  11.894  22.503  0.00  0.00    +0.000 C 
ATOM      2  O   UNL     1       8.581  10.850  22.856  0.00  0.00    +0.000 OA
ATOM      3  N   UNL     1       8.427  12.562  21.352  0.00  0.00    +0.000 N 
ATOM      4  H   UNL     1       8.064  13.498  21.190  0.00  0.00    +0.000 HD
ENDROOT
BRANCH   3   5
ATOM      5  C   UNL     1       9.477  12.019  20.499  0.00  0.00    +0.000 C 
ATOM      6  C   UNL     1       9.030  11.878  19.019  0.00  0.00    +0.000 C 
ATOM      7  C   UNL     1      10.112  11.076  18.270  0.00  0.00    +0.000 C 
ATOM      8  C   UNL     1      11.451  11.834  18.307  0.00  0.00    +0.000 C 
ATOM      9  C   UNL     1      11.877  12.018  19.776  0.00  0.00    +0.000 C 
ATOM     10  C   UNL     1      10.801  12.816  20.545  0.00  0.00    +0.000 C 
ATOM     11  C   UNL     1      10.651  14.185  19.867  0.00  0.00    +0.000 C 
ATOM     12  C   UNL     1      10.210  14.041  18.390  0.00  0.00    +0.000 C 
ATOM     13  C   UNL     1      11.283  13.216  17.640  0.00  0.00    +0.000 C 
ATOM     14  C   UNL     1       8.883  13.252  18.335  0.00  0.00    +0.000 C 
BRANCH  12  15
ATOM     15  C   UNL     1      10.031  15.448  17.791  0.00  0.00    +0.000 C 
ATOM     16  N   UNL     1       8.790  15.784  17.348  0.00  0.00    +0.000 N 
ATOM     17  O   UNL     1      10.934  16.278  17.725  0.00  0.00    +0.000 OA
ATOM     18  H   UNL     1       8.044  15.119  17.210  0.00  0.00    +0.000 HD
ATOM     19  H   UNL     1       8.695  16.704  16.937  0.00  0.00    +0.000 HD
ENDBRANCH  12  15
ENDBRANCH   3   5
BRANCH   1  24
ATOM     20  N   UNL     1       7.210  13.851  23.726  0.00  0.00    +0.000 NA
ATOM     21  C   UNL     1       8.058  13.794  24.943  0.00  0.00    +0.000 C 
ATOM     22  C   UNL     1       7.773  12.518  25.740  0.00  0.00    +0.000 C 
ATOM     23  S   UNL     1       6.525  11.572  24.847  0.00  0.00    +0.000 S 
ATOM     24  C   UNL     1       6.819  12.480  23.309  0.00  0.00    +0.000 C 
BRANCH  20  25
ATOM     25  S   UNL     1       5.969  14.996  23.667  0.00  0.00    +0.000 S 
ATOM     26  O   UNL     1       6.557  16.277  24.011  0.00  0.00    +0.000 OA
ATOM     27  O   UNL     1       4.837  14.479  24.400  0.00  0.00    +0.000 OA
BRANCH  25  31
ATOM     28  C   UNL     1       4.807  14.810  19.238  0.00  0.00    +0.000 A 
ATOM     29  C   UNL     1       6.061  15.294  19.621  0.00  0.00    +0.000 A 
ATOM     30  C   UNL     1       6.409  15.407  20.975  0.00  0.00    +0.000 A 
ATOM     31  C   UNL     1       5.475  15.055  21.954  0.00  0.00    +0.000 A 
ATOM     32  C   UNL     1       4.204  14.610  21.580  0.00  0.00    +0.000 A 
ATOM     33  C   UNL     1       3.872  14.488  20.224  0.00  0.00    +0.000 A 
BRANCH  28  35
ATOM     34  C   UNL     1       3.657  15.665  17.346  0.00  0.00    +0.000 C 
ATOM     35  O   UNL     1       4.587  14.730  17.890  0.00  0.00    +0.000 OA
ENDBRANCH  28  35
ENDBRANCH  25  31
ENDBRANCH  20  25
ENDBRANCH   1  24
TORSDOF 6
ENDMDL
MODEL 5
REMARK VINA RESULT:      -7.6      3.072      9.436
REMARK  Name = 
REMARK  7 active torsions:
REMARK  status: ('A' for Active; 'I' for Inactive)
REMARK    1  A    between atoms: C_1  and  O_2
REMARK    2  A    between atoms: O_2  and  C_3
REMARK    3  A    between atoms: C_6  and  S_7
REMARK    4  A    between atoms: S_7  and  N_10
REMARK    5  A    between atoms: C_14  and  C_15
REMARK    6  A    between atoms: N_17  and  C_18
REMARK    7  A    between atoms: C_25  and  C_26
REMARK                            x       y       z     vdW  Elec       q    Type
REMARK                         _______ _______ _______ _____ _____    ______ ____
ROOT
ATOM      1  C   UNL     1       1.792   8.465  18.726  0.00  0.00    +0.000 C 
ATOM      2  O   UNL     1       1.576   8.633  17.522  0.00  0.00    +0.000 OA
ATOM      3  N   UNL     1       2.256   7.244  19.202  0.00  0.00    +0.000 N 
ATOM      4  H   UNL     1       2.256   7.090  20.207  0.00  0.00    +0.000 HD
ENDROOT
BRANCH   3   5
ATOM      5  C   UNL     1       2.558   6.148  18.287  0.00  0.00    +0.000 C 
ATOM      6  C   UNL     1       3.962   5.533  18.536  0.00  0.00    +0.000 C 
ATOM      7  C   UNL     1       4.272   4.570  17.374  0.00  0.00    +0.000 C 
ATOM      8  C   UNL     1       3.237   3.431  17.343  0.00  0.00    +0.000 C 
ATOM      9  C   UNL     1       1.835   4.039  17.143  0.00  0.00    +0.000 C 
ATOM     10  C   UNL     1       1.509   5.013  18.297  0.00  0.00    +0.000 C 
ATOM     11  C   UNL     1       1.555   4.222  19.612  0.00  0.00    +0.000 C 
ATOM     12  C   UNL     1       2.955   3.606  19.855  0.00  0.00    +0.000 C 
ATOM     13  C   UNL     1       3.279   2.656  18.677  0.00  0.00    +0.000 C 
ATOM     14  C   UNL     1       4.009   4.736  19.855  0.00  0.00    +0.000 C 
BRANCH  12  15
ATOM     15  C   UNL     1       2.941   2.874  21.209  0.00  0.00    +0.000 C 
ATOM     16  N   UNL     1       1.873   3.090  22.023  0.00  0.00    +0.000 N 
ATOM     17  O   UNL     1       3.819   2.094  21.569  0.00  0.00    +0.000 OA
ATOM     18  H   UNL     1       1.202   3.831  21.885  0.00  0.00    +0.000 HD
ATOM     19  H   UNL     1       1.890   2.619  22.918  0.00  0.00    +0.000 HD
ENDBRANCH  12  15
ENDBRANCH   3   5
BRANCH   1  24
ATOM     20  N   UNL     1       0.281   9.396  20.411  0.00  0.00    +0.000 NA
ATOM     21  C   UNL     1      -0.818   9.904  19.552  0.00  0.00    +0.000 C 
ATOM     22  C   UNL     1      -0.311  11.013  18.627  0.00  0.00    +0.000 C 
ATOM     23  S   UNL     1       1.450  11.236  18.938  0.00  0.00    +0.000 S 
ATOM     24  C   UNL     1       1.593   9.626  19.754  0.00  0.00    +0.000 C 
BRANCH  20  25
ATOM     25  S   UNL     1       0.238   9.752  22.062  0.00  0.00    +0.000 S 
ATOM     26  O   UNL     1       1.614   9.882  22.504  0.00  0.00    +0.000 OA
ATOM     27  O   UNL     1      -0.662   8.823  22.704  0.00  0.00    +0.000 OA
BRANCH  25  31
ATOM     28  C   UNL     1      -1.592  13.911  22.655  0.00  0.00    +0.000 A 
ATOM     29  C   UNL     1      -2.314  12.764  22.999  0.00  0.00    +0.000 A 
ATOM     30  C   UNL     1      -1.787  11.485  22.773  0.00  0.00    +0.000 A 
ATOM     31  C   UNL     1      -0.534  11.357  22.169  0.00  0.00    +0.000 A 
ATOM     32  C   UNL     1       0.177  12.497  21.783  0.00  0.00    +0.000 A 
ATOM     33  C   UNL     1      -0.353  13.771  22.027  0.00  0.00    +0.000 A 
BRANCH  28  35
ATOM     34  C   UNL     1      -3.606  15.166  22.699  0.00  0.00    +0.000 C 
ATOM     35  O   UNL     1      -2.201  15.103  22.937  0.00  0.00    +0.000 OA
ENDBRANCH  28  35
ENDBRANCH  25  31
ENDBRANCH  20  25
ENDBRANCH   1  24
TORSDOF 6
ENDMDL
MODEL 6
REMARK VINA RESULT:      -7.6      1.781      2.440
REMARK  Name = 
REMARK  7 active torsions:
REMARK  status: ('A' for Active; 'I' for Inactive)
REMARK    1  A    between atoms: C_1  and  O_2
REMARK    2  A    between atoms: O_2  and  C_3
REMARK    3  A    between atoms: C_6  and  S_7
REMARK    4  A    between atoms: S_7  and  N_10
REMARK    5  A    between atoms: C_14  and  C_15
REMARK    6  A    between atoms: N_17  and  C_18
REMARK    7  A    between atoms: C_25  and  C_26
REMARK                            x       y       z     vdW  Elec       q    Type
REMARK                         _______ _______ _______ _____ _____    ______ ____
ROOT
ATOM      1  C   UNL     1       2.318   7.428  18.672  0.00  0.00    +0.000 C 
ATOM      2  O   UNL     1       2.098   7.470  17.458  0.00  0.00    +0.000 OA
ATOM      3  N   UNL     1       1.883   8.450  19.509  0.00  0.00    +0.000 N 
ATOM      4  H   UNL     1       2.229   8.466  20.465  0.00  0.00    +0.000 HD
ENDROOT
BRANCH   3   5
ATOM      5  C   UNL     1       1.105   9.568  18.986  0.00  0.00    +0.000 C 
ATOM      6  C   UNL     1      -0.424   9.368  19.170  0.00  0.00    +0.000 C 
ATOM      7  C   UNL     1      -1.146  10.471  18.372  0.00  0.00    +0.000 C 
ATOM      8  C   UNL     1      -0.764  11.856  18.923  0.00  0.00    +0.000 C 
ATOM      9  C   UNL     1       0.759  12.042  18.787  0.00  0.00    +0.000 C 
ATOM     10  C   UNL     1       1.501  10.941  19.576  0.00  0.00    +0.000 C 
ATOM     11  C   UNL     1       1.089  11.055  21.050  0.00  0.00    +0.000 C 
ATOM     12  C   UNL     1      -0.437  10.860  21.229  0.00  0.00    +0.000 C 
ATOM     13  C   UNL     1      -1.166  11.952  20.411  0.00  0.00    +0.000 C 
ATOM     14  C   UNL     1      -0.840   9.485  20.650  0.00  0.00    +0.000 C 
BRANCH  12  15
ATOM     15  C   UNL     1      -0.769  10.936  22.731  0.00  0.00    +0.000 C 
ATOM     16  N   UNL     1      -0.730   9.774  23.437  0.00  0.00    +0.000 N 
ATOM     17  O   UNL     1      -1.031  11.983  23.316  0.00  0.00    +0.000 OA
ATOM     18  H   UNL     1      -0.690   8.859  23.013  0.00  0.00    +0.000 HD
ATOM     19  H   UNL     1      -0.972   9.838  24.417  0.00  0.00    +0.000 HD
ENDBRANCH  12  15
ENDBRANCH   3   5
BRANCH   1  24
ATOM     20  N   UNL     1       3.115   5.147  18.286  0.00  0.00    +0.000 NA
ATOM     21  C   UNL     1       1.830   4.406  18.236  0.00  0.00    +0.000 C 
ATOM     22  C   UNL     1       1.104   4.491  19.581  0.00  0.00    +0.000 C 
ATOM     23  S   UNL     1       2.106   5.499  20.690  0.00  0.00    +0.000 S 
ATOM     24  C   UNL     1       3.053   6.211  19.321  0.00  0.00    +0.000 C 
BRANCH  20  25
ATOM     25  S   UNL     1       4.553   4.261  18.260  0.00  0.00    +0.000 S 
ATOM     26  O   UNL     1       4.499   3.400  17.093  0.00  0.00    +0.000 OA
ATOM     27  O   UNL     1       4.773   3.711  19.576  0.00  0.00    +0.000 OA
BRANCH  25  31
ATOM     28  C   UNL     1       7.694   7.570  17.832  0.00  0.00    +0.000 A 
ATOM     29  C   UNL     1       6.584   7.533  16.982  0.00  0.00    +0.000 A 
ATOM     30  C   UNL     1       5.644   6.496  17.067  0.00  0.00    +0.000 A 
ATOM     31  C   UNL     1       5.837   5.471  17.998  0.00  0.00    +0.000 A 
ATOM     32  C   UNL     1       6.965   5.478  18.823  0.00  0.00    +0.000 A 
ATOM     33  C   UNL     1       7.891   6.526  18.739  0.00  0.00    +0.000 A 
BRANCH  28  35
ATOM     34  C   UNL     1       8.724   9.473  18.808  0.00  0.00    +0.000 C 
ATOM     35  O   UNL     1       8.533   8.638  17.667  0.00  0.00    +0.000 OA
ENDBRANCH  28  35
ENDBRANCH  25  31
ENDBRANCH  20  25
ENDBRANCH   1  24
TORSDOF 6
ENDMDL
MODEL 7
REMARK VINA RESULT:      -7.5      3.409      8.820
REMARK  Name = 
REMARK  7 active torsions:
REMARK  status: ('A' for Active; 'I' for Inactive)
REMARK    1  A    between atoms: C_1  and  O_2
REMARK    2  A    between atoms: O_2  and  C_3
REMARK    3  A    between atoms: C_6  and  S_7
REMARK    4  A    between atoms: S_7  and  N_10
REMARK    5  A    between atoms: C_14  and  C_15
REMARK    6  A    between atoms: N_17  and  C_18
REMARK    7  A    between atoms: C_25  and  C_26
REMARK                            x       y       z     vdW  Elec       q    Type
REMARK                         _______ _______ _______ _____ _____    ______ ____
ROOT
ATOM      1  C   UNL     1       1.515   9.098  18.570  0.00  0.00    +0.000 C 
ATOM      2  O   UNL     1       2.286   9.520  17.702  0.00  0.00    +0.000 OA
ATOM      3  N   UNL     1       1.699   7.839  19.132  0.00  0.00    +0.000 N 
ATOM      4  H   UNL     1       0.954   7.460  19.711  0.00  0.00    +0.000 HD
ENDROOT
BRANCH   3   5
ATOM      5  C   UNL     1       2.839   7.009  18.758  0.00  0.00    +0.000 C 
ATOM      6  C   UNL     1       3.337   6.118  19.928  0.00  0.00    +0.000 C 
ATOM      7  C   UNL     1       4.675   5.481  19.503  0.00  0.00    +0.000 C 
ATOM      8  C   UNL     1       4.466   4.592  18.265  0.00  0.00    +0.000 C 
ATOM      9  C   UNL     1       3.926   5.462  17.114  0.00  0.00    +0.000 C 
ATOM     10  C   UNL     1       2.587   6.114  17.523  0.00  0.00    +0.000 C 
ATOM     11  C   UNL     1       1.591   4.990  17.842  0.00  0.00    +0.000 C 
ATOM     12  C   UNL     1       2.093   4.101  19.006  0.00  0.00    +0.000 C 
ATOM     13  C   UNL     1       3.448   3.478  18.592  0.00  0.00    +0.000 C 
ATOM     14  C   UNL     1       2.339   4.987  20.247  0.00  0.00    +0.000 C 
BRANCH  12  15
ATOM     15  C   UNL     1       1.026   3.032  19.304  0.00  0.00    +0.000 C 
ATOM     16  N   UNL     1       0.569   2.946  20.582  0.00  0.00    +0.000 N 
ATOM     17  O   UNL     1       0.552   2.288  18.449  0.00  0.00    +0.000 OA
ATOM     18  H   UNL     1       1.015   3.393  21.369  0.00  0.00    +0.000 HD
ATOM     19  H   UNL     1      -0.116   2.224  20.765  0.00  0.00    +0.000 HD
ENDBRANCH  12  15
ENDBRANCH   3   5
BRANCH   1  24
ATOM     20  N   UNL     1       0.904  11.297  19.450  0.00  0.00    +0.000 NA
ATOM     21  C   UNL     1       1.530  11.245  20.795  0.00  0.00    +0.000 C 
ATOM     22  C   UNL     1       0.894  10.142  21.644  0.00  0.00    +0.000 C 
ATOM     23  S   UNL     1      -0.357   9.319  20.640  0.00  0.00    +0.000 S 
ATOM     24  C   UNL     1       0.333   9.972  19.098  0.00  0.00    +0.000 C 
BRANCH  20  25
ATOM     25  S   UNL     1      -0.077  12.620  19.073  0.00  0.00    +0.000 S 
ATOM     26  O   UNL     1      -0.778  12.989  20.290  0.00  0.00    +0.000 OA
ATOM     27  O   UNL     1      -0.804  12.318  17.863  0.00  0.00    +0.000 OA
BRANCH  25  31
ATOM     28  C   UNL     1       2.963  15.973  18.356  0.00  0.00    +0.000 A 
ATOM     29  C   UNL     1       1.659  16.274  18.761  0.00  0.00    +0.000 A 
ATOM     30  C   UNL     1       0.704  15.261  18.932  0.00  0.00    +0.000 A 
ATOM     31  C   UNL     1       1.056  13.936  18.666  0.00  0.00    +0.000 A 
ATOM     32  C   UNL     1       2.346  13.630  18.221  0.00  0.00    +0.000 A 
ATOM     33  C   UNL     1       3.296  14.648  18.067  0.00  0.00    +0.000 A 
BRANCH  28  35
ATOM     34  C   UNL     1       5.128  16.861  18.754  0.00  0.00    +0.000 C 
ATOM     35  O   UNL     1       3.810  17.041  18.238  0.00  0.00    +0.000 OA
ENDBRANCH  28  35
ENDBRANCH  25  31
ENDBRANCH  20  25
ENDBRANCH   1  24
TORSDOF 6
ENDMDL
MODEL 8
REMARK VINA RESULT:      -7.4      3.266      8.606
REMARK  Name = 
REMARK  7 active torsions:
REMARK  status: ('A' for Active; 'I' for Inactive)
REMARK    1  A    between atoms: C_1  and  O_2
REMARK    2  A    between atoms: O_2  and  C_3
REMARK    3  A    between atoms: C_6  and  S_7
REMARK    4  A    between atoms: S_7  and  N_10
REMARK    5  A    between atoms: C_14  and  C_15
REMARK    6  A    between atoms: N_17  and  C_18
REMARK    7  A    between atoms: C_25  and  C_26
REMARK                            x       y       z     vdW  Elec       q    Type
REMARK                         _______ _______ _______ _____ _____    ______ ____
ROOT
ATOM      1  C   UNL     1       1.309   8.661  19.314  0.00  0.00    +0.000 C 
ATOM      2  O   UNL     1       1.935   9.269  18.440  0.00  0.00    +0.000 OA
ATOM      3  N   UNL     1       1.695   7.384  19.706  0.00  0.00    +0.000 N 
ATOM      4  H   UNL     1       1.060   6.853  20.297  0.00  0.00    +0.000 HD
ENDROOT
BRANCH   3   5
ATOM      5  C   UNL     1       2.881   6.752  19.140  0.00  0.00    +0.000 C 
ATOM      6  C   UNL     1       3.483   5.668  20.076  0.00  0.00    +0.000 C 
ATOM      7  C   UNL     1       4.850   5.251  19.501  0.00  0.00    +0.000 C 
ATOM      8  C   UNL     1       4.670   4.641  18.100  0.00  0.00    +0.000 C 
ATOM      9  C   UNL     1       4.029   5.697  17.178  0.00  0.00    +0.000 C 
ATOM     10  C   UNL     1       2.659   6.133  17.741  0.00  0.00    +0.000 C 
ATOM     11  C   UNL     1       1.761   4.890  17.818  0.00  0.00    +0.000 C 
ATOM     12  C   UNL     1       2.366   3.809  18.748  0.00  0.00    +0.000 C 
ATOM     13  C   UNL     1       3.750   3.404  18.186  0.00  0.00    +0.000 C 
ATOM     14  C   UNL     1       2.584   4.418  20.151  0.00  0.00    +0.000 C 
BRANCH  12  15
ATOM     15  C   UNL     1       1.392   2.619  18.816  0.00  0.00    +0.000 C 
ATOM     16  N   UNL     1       1.919   1.374  18.665  0.00  0.00    +0.000 N 
ATOM     17  O   UNL     1       0.189   2.737  19.029  0.00  0.00    +0.000 OA
ATOM     18  H   UNL     1       2.852   1.196  18.324  0.00  0.00    +0.000 HD
ATOM     19  H   UNL     1       1.263   0.604  18.690  0.00  0.00    +0.000 HD
ENDBRANCH  12  15
ENDBRANCH   3   5
BRANCH   1  24
ATOM     20  N   UNL     1       0.496  10.700  20.395  0.00  0.00    +0.000 NA
ATOM     21  C   UNL     1       1.300  10.695  21.643  0.00  0.00    +0.000 C 
ATOM     22  C   UNL     1       0.960   9.473  22.499  0.00  0.00    +0.000 C 
ATOM     23  S   UNL     1      -0.276   8.501  21.616  0.00  0.00    +0.000 S 
ATOM     24  C   UNL     1       0.091   9.316  20.041  0.00  0.00    +0.000 C 
BRANCH  20  25
ATOM     25  S   UNL     1      -0.717  11.864  20.227  0.00  0.00    +0.000 S 
ATOM     26  O   UNL     1      -0.074  13.086  19.781  0.00  0.00    +0.000 OA
ATOM     27  O   UNL     1      -1.531  11.848  21.420  0.00  0.00    +0.000 OA
BRANCH  25  31
ATOM     28  C   UNL     1      -3.266  10.606  16.633  0.00  0.00    +0.000 A 
ATOM     29  C   UNL     1      -3.821  11.379  17.658  0.00  0.00    +0.000 A 
ATOM     30  C   UNL     1      -3.067  11.725  18.789  0.00  0.00    +0.000 A 
ATOM     31  C   UNL     1      -1.752  11.266  18.903  0.00  0.00    +0.000 A 
ATOM     32  C   UNL     1      -1.204  10.458  17.903  0.00  0.00    +0.000 A 
ATOM     33  C   UNL     1      -1.961  10.129  16.771  0.00  0.00    +0.000 A 
BRANCH  28  35
ATOM     34  C   UNL     1      -3.458  10.165  14.309  0.00  0.00    +0.000 C 
ATOM     35  O   UNL     1      -4.092  10.345  15.574  0.00  0.00    +0.000 OA
ENDBRANCH  28  35
ENDBRANCH  25  31
ENDBRANCH  20  25
ENDBRANCH   1  24
TORSDOF 6
ENDMDL
MODEL 9
REMARK VINA RESULT:      -7.3      2.773      9.837
REMARK  Name = 
REMARK  7 active torsions:
REMARK  status: ('A' for Active; 'I' for Inactive)
REMARK    1  A    between atoms: C_1  and  O_2
REMARK    2  A    between atoms: O_2  and  C_3
REMARK    3  A    between atoms: C_6  and  S_7
REMARK    4  A    between atoms: S_7  and  N_10
REMARK    5  A    between atoms: C_14  and  C_15
REMARK    6  A    between atoms: N_17  and  C_18
REMARK    7  A    between atoms: C_25  and  C_26
REMARK                            x       y       z     vdW  Elec       q    Type
REMARK                         _______ _______ _______ _____ _____    ______ ____
ROOT
ATOM      1  C   UNL     1       1.393   7.958  20.377  0.00  0.00    +0.000 C 
ATOM      2  O   UNL     1       0.676   7.348  21.177  0.00  0.00    +0.000 OA
ATOM      3  N   UNL     1       2.162   7.269  19.445  0.00  0.00    +0.000 N 
ATOM      4  H   UNL     1       2.863   7.791  18.924  0.00  0.00    +0.000 HD
ENDROOT
BRANCH   3   5
ATOM      5  C   UNL     1       2.100   5.816  19.347  0.00  0.00    +0.000 C 
ATOM      6  C   UNL     1       2.179   5.313  17.880  0.00  0.00    +0.000 C 
ATOM      7  C   UNL     1       1.857   3.806  17.877  0.00  0.00    +0.000 C 
ATOM      8  C   UNL     1       2.899   3.041  18.713  0.00  0.00    +0.000 C 
ATOM      9  C   UNL     1       2.858   3.570  20.160  0.00  0.00    +0.000 C 
ATOM     10  C   UNL     1       3.173   5.081  20.184  0.00  0.00    +0.000 C 
ATOM     11  C   UNL     1       4.575   5.282  19.592  0.00  0.00    +0.000 C 
ATOM     12  C   UNL     1       4.652   4.775  18.131  0.00  0.00    +0.000 C 
ATOM     13  C   UNL     1       4.306   3.267  18.120  0.00  0.00    +0.000 C 
ATOM     14  C   UNL     1       3.588   5.511  17.286  0.00  0.00    +0.000 C 
BRANCH  12  15
ATOM     15  C   UNL     1       6.065   5.054  17.588  0.00  0.00    +0.000 C 
ATOM     16  N   UNL     1       7.092   4.343  18.128  0.00  0.00    +0.000 N 
ATOM     17  O   UNL     1       6.302   5.852  16.684  0.00  0.00    +0.000 OA
ATOM     18  H   UNL     1       7.015   3.800  18.974  0.00  0.00    +0.000 HD
ATOM     19  H   UNL     1       8.016   4.554  17.775  0.00  0.00    +0.000 HD
ENDBRANCH  12  15
ENDBRANCH   3   5
BRANCH   1  24
ATOM     20  N   UNL     1       0.081   9.989  20.754  0.00  0.00    +0.000 NA
ATOM     21  C   UNL     1      -0.844   9.944  19.594  0.00  0.00    +0.000 C 
ATOM     22  C   UNL     1      -0.067  10.054  18.279  0.00  0.00    +0.000 C 
ATOM     23  S   UNL     1       1.688  10.163  18.678  0.00  0.00    +0.000 S 
ATOM     24  C   UNL     1       1.431   9.520  20.351  0.00  0.00    +0.000 C 
BRANCH  20  25
ATOM     25  S   UNL     1       0.067  11.362  21.738  0.00  0.00    +0.000 S 
ATOM     26  O   UNL     1       1.047  12.284  21.195  0.00  0.00    +0.000 OA
ATOM     27  O   UNL     1       0.135  10.934  23.116  0.00  0.00    +0.000 OA
BRANCH  25  31
ATOM     28  C   UNL     1      -4.211  12.870  21.088  0.00  0.00    +0.000 A 
ATOM     29  C   UNL     1      -3.291  12.875  20.035  0.00  0.00    +0.000 A 
ATOM     30  C   UNL     1      -1.964  12.467  20.234  0.00  0.00    +0.000 A 
ATOM     31  C   UNL     1      -1.552  12.076  21.511  0.00  0.00    +0.000 A 
ATOM     32  C   UNL     1      -2.454  12.108  22.578  0.00  0.00    +0.000 A 
ATOM     33  C   UNL     1      -3.781  12.505  22.365  0.00  0.00    +0.000 A 
BRANCH  28  35
ATOM     34  C   UNL     1      -6.543  12.590  21.429  0.00  0.00    +0.000 C 
ATOM     35  O   UNL     1      -5.479  13.275  20.770  0.00  0.00    +0.000 OA
ENDBRANCH  28  35
ENDBRANCH  25  31
ENDBRANCH  20  25
ENDBRANCH   1  24
TORSDOF 6
ENDMDL
