MODEL 1
REMARK VINA RESULT:      -8.1      0.000      0.000
REMARK  Name = 
REMARK  7 active torsions:
REMARK  status: ('A' for Active; 'I' for Inactive)
REMARK    1  A    between atoms: C_1  and  C_2
REMARK    2  A    between atoms: C_8  and  N_9
REMARK    3  A    between atoms: C_10  and  C_12
REMARK    4  A    between atoms: C_12  and  N_13
REMARK    5  A    between atoms: C_14  and  C_15
REMARK    6  A    between atoms: C_17  and  C_18
REMARK    7  A    between atoms: C_19  and  C_20
REMARK                            x       y       z     vdW  Elec       q    Type
REMARK                         _______ _______ _______ _____ _____    ______ ____
ROOT
ATOM      1  N   UNL     1       2.554   6.607  20.169  0.00  0.00    +0.000 N 
ATOM      2  C   UNL     1       2.151   5.276  20.355  0.00  0.00    +0.000 C 
ATOM      3  O   UNL     1       0.994   4.917  20.568  0.00  0.00    +0.000 OA
ATOM      4  H   UNL     1       3.519   6.775  19.903  0.00  0.00    +0.000 HD
ENDROOT
BRANCH   1  12
ATOM      5  C   UNL     1       2.293   8.539  17.880  0.00  0.00    +0.000 C 
ATOM      6  C   UNL     1       1.565   8.665  19.193  0.00  0.00    +0.000 A 
ATOM      7  C   UNL     1       0.687   9.772  19.323  0.00  0.00    +0.000 A 
ATOM      8  C   UNL     1      -0.035   9.987  20.494  0.00  0.00    +0.000 A 
ATOM      9  C   UNL     1       0.138   9.117  21.552  0.00  0.00    +0.000 A 
ATOM     10  F   UNL     1      -0.533   9.325  22.692  0.00  0.00    +0.000 F 
ATOM     11  C   UNL     1       0.992   8.030  21.452  0.00  0.00    +0.000 A 
ATOM     12  C   UNL     1       1.707   7.757  20.273  0.00  0.00    +0.000 A 
ENDBRANCH   1  12
BRANCH   2  13
ATOM     13  C   UNL     1       3.252   4.208  20.178  0.00  0.00    +0.000 C 
BRANCH  13  14
ATOM     14  N   UNL     1       3.862   4.183  18.830  0.00  0.00    +0.000 N 
ATOM     15  C   UNL     1       3.382   3.370  17.792  0.00  0.00    +0.000 A 
ATOM     16  C   UNL     1       2.266   2.380  17.993  0.00  0.00    +0.000 C 
ATOM     17  C   UNL     1       3.931   3.442  16.567  0.00  0.00    +0.000 A 
ATOM     18  C   UNL     1       5.019   4.328  16.271  0.00  0.00    +0.000 A 
ATOM     19  C   UNL     1       5.550   4.341  14.857  0.00  0.00    +0.000 C 
ATOM     20  C   UNL     1       5.535   5.084  17.258  0.00  0.00    +0.000 A 
ATOM     21  C   UNL     1       4.969   5.038  18.638  0.00  0.00    +0.000 A 
ATOM     22  O   UNL     1       5.439   5.732  19.537  0.00  0.00    +0.000 OA
BRANCH  20  23
ATOM     23  C   UNL     1       6.733   5.954  16.918  0.00  0.00    +0.000 C 
ATOM     24  N   UNL     1       7.728   6.677  16.635  0.00  0.00    +0.000 NA
ENDBRANCH  20  23
ENDBRANCH  13  14
ENDBRANCH   2  13
TORSDOF 4
ENDMDL
MODEL 2
REMARK VINA RESULT:      -7.2      3.973      7.542
REMARK  Name = 
REMARK  7 active torsions:
REMARK  status: ('A' for Active; 'I' for Inactive)
REMARK    1  A    between atoms: C_1  and  C_2
REMARK    2  A    between atoms: C_8  and  N_9
REMARK    3  A    between atoms: C_10  and  C_12
REMARK    4  A    between atoms: C_12  and  N_13
REMARK    5  A    between atoms: C_14  and  C_15
REMARK    6  A    between atoms: C_17  and  C_18
REMARK    7  A    between atoms: C_19  and  C_20
REMARK                            x       y       z     vdW  Elec       q    Type
REMARK                         _______ _______ _______ _____ _____    ______ ____
ROOT
ATOM      1  N   UNL     1       6.337   5.137  15.369  0.00  0.00    +0.000 N 
ATOM      2  C   UNL     1       5.669   6.305  15.764  0.00  0.00    +0.000 C 
ATOM      3  O   UNL     1       4.990   7.012  15.020  0.00  0.00    +0.000 OA
ATOM      4  H   UNL     1       6.786   4.581  16.090  0.00  0.00    +0.000 HD
ENDROOT
BRANCH   1  12
ATOM      5  C   UNL     1       8.652   5.809  13.570  0.00  0.00    +0.000 C 
ATOM      6  C   UNL     1       7.497   4.923  13.183  0.00  0.00    +0.000 A 
ATOM      7  C   UNL     1       7.540   4.365  11.879  0.00  0.00    +0.000 A 
ATOM      8  C   UNL     1       6.524   3.533  11.415  0.00  0.00    +0.000 A 
ATOM      9  C   UNL     1       5.445   3.278  12.237  0.00  0.00    +0.000 A 
ATOM     10  F   UNL     1       4.451   2.498  11.796  0.00  0.00    +0.000 F 
ATOM     11  C   UNL     1       5.377   3.813  13.515  0.00  0.00    +0.000 A 
ATOM     12  C   UNL     1       6.401   4.625  14.032  0.00  0.00    +0.000 A 
ENDBRANCH   1  12
BRANCH   2  13
ATOM     13  C   UNL     1       5.737   6.642  17.270  0.00  0.00    +0.000 C 
BRANCH  13  14
ATOM     14  N   UNL     1       4.774   5.889  18.104  0.00  0.00    +0.000 N 
ATOM     15  C   UNL     1       3.464   6.334  18.344  0.00  0.00    +0.000 A 
ATOM     16  C   UNL     1       2.962   7.664  17.853  0.00  0.00    +0.000 C 
ATOM     17  C   UNL     1       2.610   5.572  19.051  0.00  0.00    +0.000 A 
ATOM     18  C   UNL     1       2.992   4.300  19.591  0.00  0.00    +0.000 A 
ATOM     19  C   UNL     1       1.950   3.520  20.355  0.00  0.00    +0.000 C 
ATOM     20  C   UNL     1       4.256   3.870  19.421  0.00  0.00    +0.000 A 
ATOM     21  C   UNL     1       5.248   4.677  18.652  0.00  0.00    +0.000 A 
ATOM     22  O   UNL     1       6.400   4.281  18.495  0.00  0.00    +0.000 OA
BRANCH  20  23
ATOM     23  C   UNL     1       4.638   2.551  20.073  0.00  0.00    +0.000 C 
ATOM     24  N   UNL     1       4.955   1.456  20.613  0.00  0.00    +0.000 NA
ENDBRANCH  20  23
ENDBRANCH  13  14
ENDBRANCH   2  13
TORSDOF 4
ENDMDL
MODEL 3
REMARK VINA RESULT:      -7.0      3.709      8.359
REMARK  Name = 
REMARK  7 active torsions:
REMARK  status: ('A' for Active; 'I' for Inactive)
REMARK    1  A    between atoms: C_1  and  C_2
REMARK    2  A    between atoms: C_8  and  N_9
REMARK    3  A    between atoms: C_10  and  C_12
REMARK    4  A    between atoms: C_12  and  N_13
REMARK    5  A    between atoms: C_14  and  C_15
REMARK    6  A    between atoms: C_17  and  C_18
REMARK    7  A    between atoms: C_19  and  C_20
REMARK                            x       y       z     vdW  Elec       q    Type
REMARK                         _______ _______ _______ _____ _____    ______ ____
ROOT
ATOM      1  N   UNL     1       2.047   7.674  20.701  0.00  0.00    +0.000 N 
ATOM      2  C   UNL     1       0.939   8.387  21.180  0.00  0.00    +0.000 C 
ATOM      3  O   UNL     1      -0.220   7.972  21.173  0.00  0.00    +0.000 OA
ATOM      4  H   UNL     1       2.967   8.077  20.848  0.00  0.00    +0.000 HD
ENDROOT
BRANCH   1  12
ATOM      5  C   UNL     1       2.991   7.334  17.866  0.00  0.00    +0.000 C 
ATOM      6  C   UNL     1       2.460   6.220  18.730  0.00  0.00    +0.000 A 
ATOM      7  C   UNL     1       2.433   4.927  18.147  0.00  0.00    +0.000 A 
ATOM      8  C   UNL     1       1.960   3.825  18.854  0.00  0.00    +0.000 A 
ATOM      9  C   UNL     1       1.483   4.011  20.136  0.00  0.00    +0.000 A 
ATOM     10  F   UNL     1       1.005   2.964  20.819  0.00  0.00    +0.000 F 
ATOM     11  C   UNL     1       1.496   5.265  20.729  0.00  0.00    +0.000 A 
ATOM     12  C   UNL     1       2.002   6.393  20.061  0.00  0.00    +0.000 A 
ENDBRANCH   1  12
BRANCH   2  13
ATOM     13  C   UNL     1       1.248   9.748  21.844  0.00  0.00    +0.000 C 
BRANCH  13  14
ATOM     14  N   UNL     1       0.209  10.779  21.625  0.00  0.00    +0.000 N 
ATOM     15  C   UNL     1       0.180  11.600  20.486  0.00  0.00    +0.000 A 
ATOM     16  C   UNL     1       1.261  11.566  19.440  0.00  0.00    +0.000 C 
ATOM     17  C   UNL     1      -0.829  12.470  20.307  0.00  0.00    +0.000 A 
ATOM     18  C   UNL     1      -1.896  12.607  21.255  0.00  0.00    +0.000 A 
ATOM     19  C   UNL     1      -2.987  13.604  20.946  0.00  0.00    +0.000 C 
ATOM     20  C   UNL     1      -1.869  11.870  22.381  0.00  0.00    +0.000 A 
ATOM     21  C   UNL     1      -0.769  10.893  22.635  0.00  0.00    +0.000 A 
ATOM     22  O   UNL     1      -0.749  10.218  23.662  0.00  0.00    +0.000 OA
BRANCH  20  23
ATOM     23  C   UNL     1      -2.980  12.099  23.392  0.00  0.00    +0.000 C 
ATOM     24  N   UNL     1      -3.903  12.289  24.231  0.00  0.00    +0.000 NA
ENDBRANCH  20  23
ENDBRANCH  13  14
ENDBRANCH   2  13
TORSDOF 4
ENDMDL
MODEL 4
REMARK VINA RESULT:      -6.4      4.084      7.646
REMARK  Name = 
REMARK  7 active torsions:
REMARK  status: ('A' for Active; 'I' for Inactive)
REMARK    1  A    between atoms: C_1  and  C_2
REMARK    2  A    between atoms: C_8  and  N_9
REMARK    3  A    between atoms: C_10  and  C_12
REMARK    4  A    between atoms: C_12  and  N_13
REMARK    5  A    between atoms: C_14  and  C_15
REMARK    6  A    between atoms: C_17  and  C_18
REMARK    7  A    between atoms: C_19  and  C_20
REMARK                            x       y       z     vdW  Elec       q    Type
REMARK                         _______ _______ _______ _____ _____    ______ ____
ROOT
ATOM      1  N   UNL     1       6.005   5.484  15.130  0.00  0.00    +0.000 N 
ATOM      2  C   UNL     1       6.637   5.210  16.352  0.00  0.00    +0.000 C 
ATOM      3  O   UNL     1       7.528   4.377  16.510  0.00  0.00    +0.000 OA
ATOM      4  H   UNL     1       5.352   6.261  15.100  0.00  0.00    +0.000 HD
ENDROOT
BRANCH   1  12
ATOM      5  C   UNL     1       8.524   5.950  13.554  0.00  0.00    +0.000 C 
ATOM      6  C   UNL     1       7.430   4.994  13.155  0.00  0.00    +0.000 A 
ATOM      7  C   UNL     1       7.638   4.261  11.958  0.00  0.00    +0.000 A 
ATOM      8  C   UNL     1       6.691   3.351  11.494  0.00  0.00    +0.000 A 
ATOM      9  C   UNL     1       5.519   3.190  12.205  0.00  0.00    +0.000 A 
ATOM     10  F   UNL     1       4.591   2.335  11.758  0.00  0.00    +0.000 F 
ATOM     11  C   UNL     1       5.289   3.896  13.377  0.00  0.00    +0.000 A 
ATOM     12  C   UNL     1       6.238   4.793  13.897  0.00  0.00    +0.000 A 
ENDBRANCH   1  12
BRANCH   2  13
ATOM     13  C   UNL     1       6.222   6.105  17.540  0.00  0.00    +0.000 C 
BRANCH  13  14
ATOM     14  N   UNL     1       4.931   5.730  18.160  0.00  0.00    +0.000 N 
ATOM     15  C   UNL     1       3.730   6.401  17.880  0.00  0.00    +0.000 A 
ATOM     16  C   UNL     1       3.673   7.620  17.001  0.00  0.00    +0.000 C 
ATOM     17  C   UNL     1       2.575   5.970  18.418  0.00  0.00    +0.000 A 
ATOM     18  C   UNL     1       2.517   4.836  19.293  0.00  0.00    +0.000 A 
ATOM     19  C   UNL     1       1.166   4.429  19.828  0.00  0.00    +0.000 C 
ATOM     20  C   UNL     1       3.660   4.204  19.620  0.00  0.00    +0.000 A 
ATOM     21  C   UNL     1       4.971   4.643  19.059  0.00  0.00    +0.000 A 
ATOM     22  O   UNL     1       6.012   4.062  19.356  0.00  0.00    +0.000 OA
BRANCH  20  23
ATOM     23  C   UNL     1       3.562   3.053  20.608  0.00  0.00    +0.000 C 
ATOM     24  N   UNL     1       3.481   2.098  21.428  0.00  0.00    +0.000 NA
ENDBRANCH  20  23
ENDBRANCH  13  14
ENDBRANCH   2  13
TORSDOF 4
ENDMDL
MODEL 5
REMARK VINA RESULT:      -6.4      4.621      6.438
REMARK  Name = 
REMARK  7 active torsions:
REMARK  status: ('A' for Active; 'I' for Inactive)
REMARK    1  A    between atoms: C_1  and  C_2
REMARK    2  A    between atoms: C_8  and  N_9
REMARK    3  A    between atoms: C_10  and  C_12
REMARK    4  A    between atoms: C_12  and  N_13
REMARK    5  A    between atoms: C_14  and  C_15
REMARK    6  A    between atoms: C_17  and  C_18
REMARK    7  A    between atoms: C_19  and  C_20
REMARK                            x       y       z     vdW  Elec       q    Type
REMARK                         _______ _______ _______ _____ _____    ______ ____
ROOT
ATOM      1  N   UNL     1       1.258  12.601  18.362  0.00  0.00    +0.000 N 
ATOM      2  C   UNL     1       1.063  11.790  19.489  0.00  0.00    +0.000 C 
ATOM      3  O   UNL     1       1.420  12.077  20.631  0.00  0.00    +0.000 OA
ATOM      4  H   UNL     1       0.834  12.306  17.488  0.00  0.00    +0.000 HD
ENDROOT
BRANCH   1  12
ATOM      5  C   UNL     1      -0.150  15.183  18.994  0.00  0.00    +0.000 C 
ATOM      6  C   UNL     1       1.314  15.067  18.656  0.00  0.00    +0.000 A 
ATOM      7  C   UNL     1       2.060  16.274  18.662  0.00  0.00    +0.000 A 
ATOM      8  C   UNL     1       3.420  16.284  18.362  0.00  0.00    +0.000 A 
ATOM      9  C   UNL     1       4.035  15.096  18.024  0.00  0.00    +0.000 A 
ATOM     10  F   UNL     1       5.337  15.095  17.712  0.00  0.00    +0.000 F 
ATOM     11  C   UNL     1       3.329  13.903  18.008  0.00  0.00    +0.000 A 
ATOM     12  C   UNL     1       1.965  13.847  18.343  0.00  0.00    +0.000 A 
ENDBRANCH   1  12
BRANCH   2  13
ATOM     13  C   UNL     1       0.254  10.495  19.255  0.00  0.00    +0.000 C 
BRANCH  13  14
ATOM     14  N   UNL     1       1.025   9.251  19.474  0.00  0.00    +0.000 N 
ATOM     15  C   UNL     1       0.894   8.469  20.632  0.00  0.00    +0.000 A 
ATOM     16  C   UNL     1       0.031   8.884  21.792  0.00  0.00    +0.000 C 
ATOM     17  C   UNL     1       1.568   7.310  20.745  0.00  0.00    +0.000 A 
ATOM     18  C   UNL     1       2.441   6.833  19.713  0.00  0.00    +0.000 A 
ATOM     19  C   UNL     1       3.136   5.511  19.936  0.00  0.00    +0.000 C 
ATOM     20  C   UNL     1       2.626   7.585  18.612  0.00  0.00    +0.000 A 
ATOM     21  C   UNL     1       1.911   8.883  18.438  0.00  0.00    +0.000 A 
ATOM     22  O   UNL     1       2.078   9.567  17.431  0.00  0.00    +0.000 OA
BRANCH  20  23
ATOM     23  C   UNL     1       3.616   7.077  17.578  0.00  0.00    +0.000 C 
ATOM     24  N   UNL     1       4.439   6.655  16.719  0.00  0.00    +0.000 NA
ENDBRANCH  20  23
ENDBRANCH  13  14
ENDBRANCH   2  13
TORSDOF 4
ENDMDL
MODEL 6
REMARK VINA RESULT:      -6.3      1.871      2.589
REMARK  Name = 
REMARK  7 active torsions:
REMARK  status: ('A' for Active; 'I' for Inactive)
REMARK    1  A    between atoms: C_1  and  C_2
REMARK    2  A    between atoms: C_8  and  N_9
REMARK    3  A    between atoms: C_10  and  C_12
REMARK    4  A    between atoms: C_12  and  N_13
REMARK    5  A    between atoms: C_14  and  C_15
REMARK    6  A    between atoms: C_17  and  C_18
REMARK    7  A    between atoms: C_19  and  C_20
REMARK                            x       y       z     vdW  Elec       q    Type
REMARK                         _______ _______ _______ _____ _____    ______ ____
ROOT
ATOM      1  N   UNL     1       3.152   6.323  19.614  0.00  0.00    +0.000 N 
ATOM      2  C   UNL     1       2.857   5.055  19.093  0.00  0.00    +0.000 C 
ATOM      3  O   UNL     1       1.754   4.709  18.671  0.00  0.00    +0.000 OA
ATOM      4  H   UNL     1       4.121   6.526  19.841  0.00  0.00    +0.000 HD
ENDROOT
BRANCH   1  12
ATOM      5  C   UNL     1       2.717   8.407  17.490  0.00  0.00    +0.000 C 
ATOM      6  C   UNL     1       1.987   8.363  18.807  0.00  0.00    +0.000 A 
ATOM      7  C   UNL     1       1.018   9.376  19.025  0.00  0.00    +0.000 A 
ATOM      8  C   UNL     1       0.285   9.432  20.208  0.00  0.00    +0.000 A 
ATOM      9  C   UNL     1       0.537   8.497  21.191  0.00  0.00    +0.000 A 
ATOM     10  F   UNL     1      -0.145   8.553  22.342  0.00  0.00    +0.000 F 
ATOM     11  C   UNL     1       1.480   7.498  21.005  0.00  0.00    +0.000 A 
ATOM     12  C   UNL     1       2.211   7.385  19.809  0.00  0.00    +0.000 A 
ENDBRANCH   1  12
BRANCH   2  13
ATOM     13  C   UNL     1       4.050   4.082  18.970  0.00  0.00    +0.000 C 
BRANCH  13  14
ATOM     14  N   UNL     1       4.990   4.412  17.875  0.00  0.00    +0.000 N 
ATOM     15  C   UNL     1       6.229   5.033  18.099  0.00  0.00    +0.000 A 
ATOM     16  C   UNL     1       6.662   5.504  19.460  0.00  0.00    +0.000 C 
ATOM     17  C   UNL     1       7.074   5.244  17.073  0.00  0.00    +0.000 A 
ATOM     18  C   UNL     1       6.751   4.862  15.729  0.00  0.00    +0.000 A 
ATOM     19  C   UNL     1       7.779   5.131  14.657  0.00  0.00    +0.000 C 
ATOM     20  C   UNL     1       5.550   4.311  15.476  0.00  0.00    +0.000 A 
ATOM     21  C   UNL     1       4.571   4.062  16.574  0.00  0.00    +0.000 A 
ATOM     22  O   UNL     1       3.476   3.555  16.342  0.00  0.00    +0.000 OA
BRANCH  20  23
ATOM     23  C   UNL     1       5.220   3.990  14.028  0.00  0.00    +0.000 C 
ATOM     24  N   UNL     1       4.947   3.723  12.825  0.00  0.00    +0.000 NA
ENDBRANCH  20  23
ENDBRANCH  13  14
ENDBRANCH   2  13
TORSDOF 4
ENDMDL
MODEL 7
REMARK VINA RESULT:      -6.3      1.875      2.455
REMARK  Name = 
REMARK  7 active torsions:
REMARK  status: ('A' for Active; 'I' for Inactive)
REMARK    1  A    between atoms: C_1  and  C_2
REMARK    2  A    between atoms: C_8  and  N_9
REMARK    3  A    between atoms: C_10  and  C_12
REMARK    4  A    between atoms: C_12  and  N_13
REMARK    5  A    between atoms: C_14  and  C_15
REMARK    6  A    between atoms: C_17  and  C_18
REMARK    7  A    between atoms: C_19  and  C_20
REMARK                            x       y       z     vdW  Elec       q    Type
REMARK                         _______ _______ _______ _____ _____    ______ ____
ROOT
ATOM      1  N   UNL     1       1.397   7.717  20.562  0.00  0.00    +0.000 N 
ATOM      2  C   UNL     1       2.303   7.171  19.641  0.00  0.00    +0.000 C 
ATOM      3  O   UNL     1       2.782   7.779  18.684  0.00  0.00    +0.000 OA
ATOM      4  H   UNL     1       1.145   7.153  21.368  0.00  0.00    +0.000 HD
ENDROOT
BRANCH   1  12
ATOM      5  C   UNL     1       0.862   9.295  23.066  0.00  0.00    +0.000 C 
ATOM      6  C   UNL     1       0.586   9.787  21.669  0.00  0.00    +0.000 A 
ATOM      7  C   UNL     1       0.056  11.098  21.556  0.00  0.00    +0.000 A 
ATOM      8  C   UNL     1      -0.238  11.654  20.314  0.00  0.00    +0.000 A 
ATOM      9  C   UNL     1      -0.034  10.894  19.180  0.00  0.00    +0.000 A 
ATOM     10  F   UNL     1      -0.333  11.408  17.981  0.00  0.00    +0.000 F 
ATOM     11  C   UNL     1       0.481   9.609  19.262  0.00  0.00    +0.000 A 
ATOM     12  C   UNL     1       0.827   9.029  20.495  0.00  0.00    +0.000 A 
ENDBRANCH   1  12
BRANCH   2  13
ATOM     13  C   UNL     1       2.783   5.734  19.939  0.00  0.00    +0.000 C 
BRANCH  13  14
ATOM     14  N   UNL     1       3.503   5.091  18.816  0.00  0.00    +0.000 N 
ATOM     15  C   UNL     1       2.843   4.530  17.712  0.00  0.00    +0.000 A 
ATOM     16  C   UNL     1       1.343   4.449  17.623  0.00  0.00    +0.000 C 
ATOM     17  C   UNL     1       3.551   4.023  16.687  0.00  0.00    +0.000 A 
ATOM     18  C   UNL     1       4.985   4.021  16.680  0.00  0.00    +0.000 A 
ATOM     19  C   UNL     1       5.681   3.441  15.472  0.00  0.00    +0.000 C 
ATOM     20  C   UNL     1       5.646   4.505  17.748  0.00  0.00    +0.000 A 
ATOM     21  C   UNL     1       4.911   5.073  18.915  0.00  0.00    +0.000 A 
ATOM     22  O   UNL     1       5.516   5.519  19.887  0.00  0.00    +0.000 OA
BRANCH  20  23
ATOM     23  C   UNL     1       7.163   4.417  17.729  0.00  0.00    +0.000 C 
ATOM     24  N   UNL     1       8.422   4.343  17.713  0.00  0.00    +0.000 NA
ENDBRANCH  20  23
ENDBRANCH  13  14
ENDBRANCH   2  13
TORSDOF 4
ENDMDL
MODEL 8
REMARK VINA RESULT:      -6.3      4.291      6.544
REMARK  Name = 
REMARK  7 active torsions:
REMARK  status: ('A' for Active; 'I' for Inactive)
REMARK    1  A    between atoms: C_1  and  C_2
REMARK    2  A    between atoms: C_8  and  N_9
REMARK    3  A    between atoms: C_10  and  C_12
REMARK    4  A    between atoms: C_12  and  N_13
REMARK    5  A    between atoms: C_14  and  C_15
REMARK    6  A    between atoms: C_17  and  C_18
REMARK    7  A    between atoms: C_19  and  C_20
REMARK                            x       y       z     vdW  Elec       q    Type
REMARK                         _______ _______ _______ _____ _____    ______ ____
ROOT
ATOM      1  N   UNL     1      -1.487  10.596  18.751  0.00  0.00    +0.000 N 
ATOM      2  C   UNL     1      -0.443  11.495  19.014  0.00  0.00    +0.000 C 
ATOM      3  O   UNL     1      -0.239  12.535  18.389  0.00  0.00    +0.000 OA
ATOM      4  H   UNL     1      -1.616   9.821  19.395  0.00  0.00    +0.000 HD
ENDROOT
BRANCH   1  12
ATOM      5  C   UNL     1      -4.112  12.013  19.132  0.00  0.00    +0.000 C 
ATOM      6  C   UNL     1      -3.661  11.381  17.841  0.00  0.00    +0.000 A 
ATOM      7  C   UNL     1      -4.548  11.493  16.739  0.00  0.00    +0.000 A 
ATOM      8  C   UNL     1      -4.232  10.945  15.499  0.00  0.00    +0.000 A 
ATOM      9  C   UNL     1      -3.046  10.254  15.359  0.00  0.00    +0.000 A 
ATOM     10  F   UNL     1      -2.741   9.702  14.178  0.00  0.00    +0.000 F 
ATOM     11  C   UNL     1      -2.162  10.126  16.420  0.00  0.00    +0.000 A 
ATOM     12  C   UNL     1      -2.427  10.700  17.676  0.00  0.00    +0.000 A 
ENDBRANCH   1  12
BRANCH   2  13
ATOM     13  C   UNL     1       0.433  11.170  20.244  0.00  0.00    +0.000 C 
BRANCH  13  14
ATOM     14  N   UNL     1       0.905   9.768  20.298  0.00  0.00    +0.000 N 
ATOM     15  C   UNL     1       0.564   8.891  21.340  0.00  0.00    +0.000 A 
ATOM     16  C   UNL     1      -0.229   9.333  22.539  0.00  0.00    +0.000 C 
ATOM     17  C   UNL     1       0.963   7.607  21.300  0.00  0.00    +0.000 A 
ATOM     18  C   UNL     1       1.749   7.087  20.219  0.00  0.00    +0.000 A 
ATOM     19  C   UNL     1       2.129   5.626  20.267  0.00  0.00    +0.000 C 
ATOM     20  C   UNL     1       2.134   7.916  19.231  0.00  0.00    +0.000 A 
ATOM     21  C   UNL     1       1.726   9.351  19.229  0.00  0.00    +0.000 A 
ATOM     22  O   UNL     1       2.075  10.106  18.324  0.00  0.00    +0.000 OA
BRANCH  20  23
ATOM     23  C   UNL     1       3.026   7.340  18.144  0.00  0.00    +0.000 C 
ATOM     24  N   UNL     1       3.767   6.862  17.243  0.00  0.00    +0.000 NA
ENDBRANCH  20  23
ENDBRANCH  13  14
ENDBRANCH   2  13
TORSDOF 4
ENDMDL
MODEL 9
REMARK VINA RESULT:      -6.2      1.320      1.865
REMARK  Name = 
REMARK  7 active torsions:
REMARK  status: ('A' for Active; 'I' for Inactive)
REMARK    1  A    between atoms: C_1  and  C_2
REMARK    2  A    between atoms: C_8  and  N_9
REMARK    3  A    between atoms: C_10  and  C_12
REMARK    4  A    between atoms: C_12  and  N_13
REMARK    5  A    between atoms: C_14  and  C_15
REMARK    6  A    between atoms: C_17  and  C_18
REMARK    7  A    between atoms: C_19  and  C_20
REMARK                            x       y       z     vdW  Elec       q    Type
REMARK                         _______ _______ _______ _____ _____    ______ ____
ROOT
ATOM      1  N   UNL     1       2.344   7.212  19.997  0.00  0.00    +0.000 N 
ATOM      2  C   UNL     1       1.933   5.918  20.349  0.00  0.00    +0.000 C 
ATOM      3  O   UNL     1       0.770   5.589  20.579  0.00  0.00    +0.000 OA
ATOM      4  H   UNL     1       3.316   7.345  19.735  0.00  0.00    +0.000 HD
ENDROOT
BRANCH   1  12
ATOM      5  C   UNL     1       1.662   8.779  22.472  0.00  0.00    +0.000 C 
ATOM      6  C   UNL     1       1.184   9.120  21.085  0.00  0.00    +0.000 A 
ATOM      7  C   UNL     1       0.372  10.278  20.965  0.00  0.00    +0.000 A 
ATOM      8  C   UNL     1      -0.126  10.685  19.730  0.00  0.00    +0.000 A 
ATOM      9  C   UNL     1       0.156   9.924  18.614  0.00  0.00    +0.000 A 
ATOM     10  F   UNL     1      -0.336  10.292  17.425  0.00  0.00    +0.000 F 
ATOM     11  C   UNL     1       0.944   8.787  18.704  0.00  0.00    +0.000 A 
ATOM     12  C   UNL     1       1.498   8.366  19.926  0.00  0.00    +0.000 A 
ENDBRANCH   1  12
BRANCH   2  13
ATOM     13  C   UNL     1       3.036   4.836  20.343  0.00  0.00    +0.000 C 
BRANCH  13  14
ATOM     14  N   UNL     1       3.641   4.594  19.014  0.00  0.00    +0.000 N 
ATOM     15  C   UNL     1       3.081   3.718  18.072  0.00  0.00    +0.000 A 
ATOM     16  C   UNL     1       1.871   2.876  18.373  0.00  0.00    +0.000 C 
ATOM     17  C   UNL     1       3.635   3.592  16.853  0.00  0.00    +0.000 A 
ATOM     18  C   UNL     1       4.807   4.324  16.469  0.00  0.00    +0.000 A 
ATOM     19  C   UNL     1       5.336   4.119  15.070  0.00  0.00    +0.000 C 
ATOM     20  C   UNL     1       5.396   5.134  17.368  0.00  0.00    +0.000 A 
ATOM     21  C   UNL     1       4.828   5.305  18.738  0.00  0.00    +0.000 A 
ATOM     22  O   UNL     1       5.365   6.048  19.556  0.00  0.00    +0.000 OA
BRANCH  20  23
ATOM     23  C   UNL     1       6.676   5.833  16.944  0.00  0.00    +0.000 C 
ATOM     24  N   UNL     1       7.739   6.414  16.592  0.00  0.00    +0.000 NA
ENDBRANCH  20  23
ENDBRANCH  13  14
ENDBRANCH   2  13
TORSDOF 4
ENDMDL
