MODEL 1
REMARK VINA RESULT:      -8.5      0.000      0.000
REMARK  Name = 
REMARK  9 active torsions:
REMARK  status: ('A' for Active; 'I' for Inactive)
REMARK    1  A    between atoms: C_1  and  O_2
REMARK    2  A    between atoms: O_2  and  C_3
REMARK    3  A    between atoms: C_3  and  C_4
REMARK    4  A    between atoms: C_4  and  N_5
REMARK    5  A    between atoms: N_5  and  C_6
REMARK    6  A    between atoms: C_8  and  C_9
REMARK    7  A    between atoms: C_10  and  C_11
REMARK    8  A    between atoms: C_19  and  S_20
REMARK    9  A    between atoms: S_20  and  C_23
REMARK                            x       y       z     vdW  Elec       q    Type
REMARK                         _______ _______ _______ _____ _____    ______ ____
ROOT
ATOM      1  C   UNL     1       6.437   6.100  16.477  0.00  0.00    +0.000 A 
ATOM      2  O   UNL     1       7.346   7.111  16.598  0.00  0.00    +0.000 OA
ATOM      3  C   UNL     1       7.551   7.296  17.952  0.00  0.00    +0.000 A 
ATOM      4  N   UNL     1       6.857   6.427  18.673  0.00  0.00    +0.000 NA
ATOM      5  C   UNL     1       6.121   5.693  17.753  0.00  0.00    +0.000 A 
ENDROOT
BRANCH   5   6
ATOM      6  S   UNL     1       5.059   4.404  18.188  0.00  0.00    +0.000 S 
ATOM      7  O   UNL     1       4.523   3.890  16.945  0.00  0.00    +0.000 OA
ATOM      8  O   UNL     1       5.801   3.563  19.109  0.00  0.00    +0.000 OA
BRANCH   6   9
ATOM      9  C   UNL     1       3.753   5.194  19.094  0.00  0.00    +0.000 A 
ATOM     10  C   UNL     1       3.104   4.497  20.118  0.00  0.00    +0.000 A 
ATOM     11  C   UNL     1       2.031   5.095  20.778  0.00  0.00    +0.000 A 
ATOM     12  C   UNL     1       1.626   6.384  20.430  0.00  0.00    +0.000 A 
ATOM     13  C   UNL     1       2.310   7.094  19.441  0.00  0.00    +0.000 A 
ATOM     14  C   UNL     1       3.383   6.503  18.773  0.00  0.00    +0.000 A 
ENDBRANCH   6   9
ENDBRANCH   5   6
BRANCH   1  15
ATOM     15  N   UNL     1       6.048   5.757  15.231  0.00  0.00    +0.000 N 
ATOM     16  H   UNL     1       5.049   5.694  15.021  0.00  0.00    +0.000 HD
BRANCH  15  17
ATOM     17  C   UNL     1       6.862   4.871  14.400  0.00  0.00    +0.000 C 
BRANCH  17  18
ATOM     18  C   UNL     1       5.993   3.808  13.717  0.00  0.00    +0.000 C 
BRANCH  18  20
ATOM     19  C   UNL     1       5.734   2.591  11.707  0.00  0.00    +0.000 C 
ATOM     20  O   UNL     1       6.460   3.611  12.376  0.00  0.00    +0.000 OA
ENDBRANCH  18  20
ENDBRANCH  17  18
ENDBRANCH  15  17
ENDBRANCH   1  15
BRANCH   3  21
ATOM     21  C   UNL     1       8.420   8.316  18.435  0.00  0.00    +0.000 C 
ATOM     22  C   UNL     1       8.279   9.597  18.051  0.00  0.00    +0.000 C 
BRANCH  22  23
ATOM     23  C   UNL     1       9.137  10.711  18.490  0.00  0.00    +0.000 A 
ATOM     24  C   UNL     1      10.028  10.602  19.569  0.00  0.00    +0.000 A 
ATOM     25  C   UNL     1      10.851  11.676  19.925  0.00  0.00    +0.000 A 
ATOM     26  C   UNL     1      10.794  12.857  19.196  0.00  0.00    +0.000 A 
ATOM     27  F   UNL     1      11.587  13.881  19.535  0.00  0.00    +0.000 F 
ATOM     28  C   UNL     1       9.934  12.983  18.115  0.00  0.00    +0.000 A 
ATOM     29  C   UNL     1       9.110  11.910  17.759  0.00  0.00    +0.000 A 
ENDBRANCH  22  23
ENDBRANCH   3  21
TORSDOF 8
ENDMDL
MODEL 2
REMARK VINA RESULT:      -8.3      4.968      7.436
REMARK  Name = 
REMARK  9 active torsions:
REMARK  status: ('A' for Active; 'I' for Inactive)
REMARK    1  A    between atoms: C_1  and  O_2
REMARK    2  A    between atoms: O_2  and  C_3
REMARK    3  A    between atoms: C_3  and  C_4
REMARK    4  A    between atoms: C_4  and  N_5
REMARK    5  A    between atoms: N_5  and  C_6
REMARK    6  A    between atoms: C_8  and  C_9
REMARK    7  A    between atoms: C_10  and  C_11
REMARK    8  A    between atoms: C_19  and  S_20
REMARK    9  A    between atoms: S_20  and  C_23
REMARK                            x       y       z     vdW  Elec       q    Type
REMARK                         _______ _______ _______ _____ _____    ______ ____
ROOT
ATOM      1  C   UNL     1       4.750   4.769  17.642  0.00  0.00    +0.000 A 
ATOM      2  O   UNL     1       3.571   5.382  17.952  0.00  0.00    +0.000 OA
ATOM      3  C   UNL     1       3.696   6.699  17.551  0.00  0.00    +0.000 A 
ATOM      4  N   UNL     1       4.866   6.922  16.970  0.00  0.00    +0.000 NA
ATOM      5  C   UNL     1       5.554   5.720  17.057  0.00  0.00    +0.000 A 
ENDROOT
BRANCH   5   6
ATOM      6  S   UNL     1       7.139   5.476  16.420  0.00  0.00    +0.000 S 
ATOM      7  O   UNL     1       7.758   6.784  16.370  0.00  0.00    +0.000 OA
ATOM      8  O   UNL     1       7.716   4.384  17.183  0.00  0.00    +0.000 OA
BRANCH   6   9
ATOM      9  C   UNL     1       6.867   4.905  14.762  0.00  0.00    +0.000 A 
ATOM     10  C   UNL     1       5.789   4.056  14.493  0.00  0.00    +0.000 A 
ATOM     11  C   UNL     1       5.621   3.552  13.203  0.00  0.00    +0.000 A 
ATOM     12  C   UNL     1       6.512   3.910  12.191  0.00  0.00    +0.000 A 
ATOM     13  C   UNL     1       7.557   4.797  12.454  0.00  0.00    +0.000 A 
ATOM     14  C   UNL     1       7.734   5.305  13.742  0.00  0.00    +0.000 A 
ENDBRANCH   6   9
ENDBRANCH   5   6
BRANCH   1  15
ATOM     15  N   UNL     1       4.880   3.467  17.974  0.00  0.00    +0.000 N 
ATOM     16  H   UNL     1       4.844   2.759  17.235  0.00  0.00    +0.000 HD
BRANCH  15  17
ATOM     17  C   UNL     1       4.420   2.965  19.268  0.00  0.00    +0.000 C 
BRANCH  17  18
ATOM     18  C   UNL     1       3.245   1.994  19.093  0.00  0.00    +0.000 C 
BRANCH  18  20
ATOM     19  C   UNL     1       0.956   2.494  18.780  0.00  0.00    +0.000 C 
ATOM     20  O   UNL     1       2.066   2.578  19.662  0.00  0.00    +0.000 OA
ENDBRANCH  18  20
ENDBRANCH  17  18
ENDBRANCH  15  17
ENDBRANCH   1  15
BRANCH   3  21
ATOM     21  C   UNL     1       2.650   7.640  17.769  0.00  0.00    +0.000 C 
ATOM     22  C   UNL     1       2.278   8.000  19.010  0.00  0.00    +0.000 C 
BRANCH  22  23
ATOM     23  C   UNL     1       1.201   8.954  19.327  0.00  0.00    +0.000 A 
ATOM     24  C   UNL     1       0.728   9.157  20.633  0.00  0.00    +0.000 A 
ATOM     25  C   UNL     1      -0.270  10.103  20.892  0.00  0.00    +0.000 A 
ATOM     26  C   UNL     1      -0.790  10.856  19.846  0.00  0.00    +0.000 A 
ATOM     27  F   UNL     1      -1.741  11.764  20.096  0.00  0.00    +0.000 F 
ATOM     28  C   UNL     1      -0.328  10.685  18.549  0.00  0.00    +0.000 A 
ATOM     29  C   UNL     1       0.670   9.739  18.291  0.00  0.00    +0.000 A 
ENDBRANCH  22  23
ENDBRANCH   3  21
TORSDOF 8
ENDMDL
MODEL 3
REMARK VINA RESULT:      -8.3      4.966      7.479
REMARK  Name = 
REMARK  9 active torsions:
REMARK  status: ('A' for Active; 'I' for Inactive)
REMARK    1  A    between atoms: C_1  and  O_2
REMARK    2  A    between atoms: O_2  and  C_3
REMARK    3  A    between atoms: C_3  and  C_4
REMARK    4  A    between atoms: C_4  and  N_5
REMARK    5  A    between atoms: N_5  and  C_6
REMARK    6  A    between atoms: C_8  and  C_9
REMARK    7  A    between atoms: C_10  and  C_11
REMARK    8  A    between atoms: C_19  and  S_20
REMARK    9  A    between atoms: S_20  and  C_23
REMARK                            x       y       z     vdW  Elec       q    Type
REMARK                         _______ _______ _______ _____ _____    ______ ____
ROOT
ATOM      1  C   UNL     1       4.887   4.811  17.861  0.00  0.00    +0.000 A 
ATOM      2  O   UNL     1       3.689   5.405  18.135  0.00  0.00    +0.000 OA
ATOM      3  C   UNL     1       3.738   6.666  17.571  0.00  0.00    +0.000 A 
ATOM      4  N   UNL     1       4.878   6.867  16.926  0.00  0.00    +0.000 NA
ATOM      5  C   UNL     1       5.626   5.717  17.135  0.00  0.00    +0.000 A 
ENDROOT
BRANCH   5   6
ATOM      6  S   UNL     1       7.201   5.466  16.478  0.00  0.00    +0.000 S 
ATOM      7  O   UNL     1       7.805   6.778  16.370  0.00  0.00    +0.000 OA
ATOM      8  O   UNL     1       7.804   4.407  17.267  0.00  0.00    +0.000 OA
BRANCH   6   9
ATOM      9  C   UNL     1       6.904   4.834  14.846  0.00  0.00    +0.000 A 
ATOM     10  C   UNL     1       7.732   5.228  13.792  0.00  0.00    +0.000 A 
ATOM     11  C   UNL     1       7.451   4.787  12.499  0.00  0.00    +0.000 A 
ATOM     12  C   UNL     1       6.363   3.943  12.269  0.00  0.00    +0.000 A 
ATOM     13  C   UNL     1       5.569   3.513  13.333  0.00  0.00    +0.000 A 
ATOM     14  C   UNL     1       5.842   3.951  14.630  0.00  0.00    +0.000 A 
ENDBRANCH   6   9
ENDBRANCH   5   6
BRANCH   1  15
ATOM     15  N   UNL     1       5.090   3.568  18.346  0.00  0.00    +0.000 N 
ATOM     16  H   UNL     1       5.736   2.942  17.857  0.00  0.00    +0.000 HD
BRANCH  15  17
ATOM     17  C   UNL     1       4.034   2.850  19.059  0.00  0.00    +0.000 C 
BRANCH  17  18
ATOM     18  C   UNL     1       3.375   1.800  18.155  0.00  0.00    +0.000 C 
BRANCH  18  20
ATOM     19  C   UNL     1       1.417   2.535  19.256  0.00  0.00    +0.000 C 
ATOM     20  O   UNL     1       1.980   2.102  18.026  0.00  0.00    +0.000 OA
ENDBRANCH  18  20
ENDBRANCH  17  18
ENDBRANCH  15  17
ENDBRANCH   1  15
BRANCH   3  21
ATOM     21  C   UNL     1       2.654   7.580  17.709  0.00  0.00    +0.000 C 
ATOM     22  C   UNL     1       2.330   8.109  18.902  0.00  0.00    +0.000 C 
BRANCH  22  23
ATOM     23  C   UNL     1       1.221   9.049  19.137  0.00  0.00    +0.000 A 
ATOM     24  C   UNL     1       0.533   9.687  18.093  0.00  0.00    +0.000 A 
ATOM     25  C   UNL     1      -0.540  10.543  18.364  0.00  0.00    +0.000 A 
ATOM     26  C   UNL     1      -0.935  10.754  19.679  0.00  0.00    +0.000 A 
ATOM     27  F   UNL     1      -1.966  11.569  19.936  0.00  0.00    +0.000 F 
ATOM     28  C   UNL     1      -0.282  10.122  20.727  0.00  0.00    +0.000 A 
ATOM     29  C   UNL     1       0.791   9.267  20.456  0.00  0.00    +0.000 A 
ENDBRANCH  22  23
ENDBRANCH   3  21
TORSDOF 8
ENDMDL
MODEL 4
REMARK VINA RESULT:      -8.3      4.939      7.223
REMARK  Name = 
REMARK  9 active torsions:
REMARK  status: ('A' for Active; 'I' for Inactive)
REMARK    1  A    between atoms: C_1  and  O_2
REMARK    2  A    between atoms: O_2  and  C_3
REMARK    3  A    between atoms: C_3  and  C_4
REMARK    4  A    between atoms: C_4  and  N_5
REMARK    5  A    between atoms: N_5  and  C_6
REMARK    6  A    between atoms: C_8  and  C_9
REMARK    7  A    between atoms: C_10  and  C_11
REMARK    8  A    between atoms: C_19  and  S_20
REMARK    9  A    between atoms: S_20  and  C_23
REMARK                            x       y       z     vdW  Elec       q    Type
REMARK                         _______ _______ _______ _____ _____    ______ ____
ROOT
ATOM      1  C   UNL     1       4.967   4.797  18.315  0.00  0.00    +0.000 A 
ATOM      2  O   UNL     1       3.760   5.315  18.686  0.00  0.00    +0.000 OA
ATOM      3  C   UNL     1       3.656   6.549  18.073  0.00  0.00    +0.000 A 
ATOM      4  N   UNL     1       4.707   6.803  17.308  0.00  0.00    +0.000 NA
ATOM      5  C   UNL     1       5.559   5.720  17.483  0.00  0.00    +0.000 A 
ENDROOT
BRANCH   5   6
ATOM      6  S   UNL     1       7.076   5.555  16.679  0.00  0.00    +0.000 S 
ATOM      7  O   UNL     1       7.596   6.897  16.523  0.00  0.00    +0.000 OA
ATOM      8  O   UNL     1       7.806   4.529  17.401  0.00  0.00    +0.000 OA
BRANCH   6   9
ATOM      9  C   UNL     1       6.660   4.910  15.079  0.00  0.00    +0.000 A 
ATOM     10  C   UNL     1       5.474   4.189  14.912  0.00  0.00    +0.000 A 
ATOM     11  C   UNL     1       5.187   3.622  13.670  0.00  0.00    +0.000 A 
ATOM     12  C   UNL     1       6.068   3.794  12.602  0.00  0.00    +0.000 A 
ATOM     13  C   UNL     1       7.226   4.558  12.761  0.00  0.00    +0.000 A 
ATOM     14  C   UNL     1       7.523   5.127  14.000  0.00  0.00    +0.000 A 
ENDBRANCH   6   9
ENDBRANCH   5   6
BRANCH   1  15
ATOM     15  N   UNL     1       5.311   3.596  18.823  0.00  0.00    +0.000 N 
ATOM     16  H   UNL     1       6.169   3.144  18.495  0.00  0.00    +0.000 HD
BRANCH  15  17
ATOM     17  C   UNL     1       4.296   2.639  19.263  0.00  0.00    +0.000 C 
BRANCH  17  18
ATOM     18  C   UNL     1       3.661   1.923  18.064  0.00  0.00    +0.000 C 
BRANCH  18  20
ATOM     19  C   UNL     1       1.737   2.419  19.344  0.00  0.00    +0.000 C 
ATOM     20  O   UNL     1       2.257   2.206  18.040  0.00  0.00    +0.000 OA
ENDBRANCH  18  20
ENDBRANCH  17  18
ENDBRANCH  15  17
ENDBRANCH   1  15
BRANCH   3  21
ATOM     21  C   UNL     1       2.524   7.387  18.286  0.00  0.00    +0.000 C 
ATOM     22  C   UNL     1       2.541   8.687  17.945  0.00  0.00    +0.000 C 
BRANCH  22  23
ATOM     23  C   UNL     1       1.423   9.627  18.139  0.00  0.00    +0.000 A 
ATOM     24  C   UNL     1       1.601  10.923  18.648  0.00  0.00    +0.000 A 
ATOM     25  C   UNL     1       0.514  11.794  18.779  0.00  0.00    +0.000 A 
ATOM     26  C   UNL     1      -0.752  11.376  18.389  0.00  0.00    +0.000 A 
ATOM     27  F   UNL     1      -1.791  12.213  18.509  0.00  0.00    +0.000 F 
ATOM     28  C   UNL     1      -0.951  10.105  17.867  0.00  0.00    +0.000 A 
ATOM     29  C   UNL     1       0.135   9.234  17.737  0.00  0.00    +0.000 A 
ENDBRANCH  22  23
ENDBRANCH   3  21
TORSDOF 8
ENDMDL
MODEL 5
REMARK VINA RESULT:      -8.2      0.708      1.152
REMARK  Name = 
REMARK  9 active torsions:
REMARK  status: ('A' for Active; 'I' for Inactive)
REMARK    1  A    between atoms: C_1  and  O_2
REMARK    2  A    between atoms: O_2  and  C_3
REMARK    3  A    between atoms: C_3  and  C_4
REMARK    4  A    between atoms: C_4  and  N_5
REMARK    5  A    between atoms: N_5  and  C_6
REMARK    6  A    between atoms: C_8  and  C_9
REMARK    7  A    between atoms: C_10  and  C_11
REMARK    8  A    between atoms: C_19  and  S_20
REMARK    9  A    between atoms: S_20  and  C_23
REMARK                            x       y       z     vdW  Elec       q    Type
REMARK                         _______ _______ _______ _____ _____    ______ ____
ROOT
ATOM      1  C   UNL     1       6.541   6.124  16.386  0.00  0.00    +0.000 A 
ATOM      2  O   UNL     1       7.532   7.055  16.499  0.00  0.00    +0.000 OA
ATOM      3  C   UNL     1       7.726   7.261  17.851  0.00  0.00    +0.000 A 
ATOM      4  N   UNL     1       6.945   6.478  18.580  0.00  0.00    +0.000 NA
ATOM      5  C   UNL     1       6.165   5.783  17.666  0.00  0.00    +0.000 A 
ENDROOT
BRANCH   5   6
ATOM      6  S   UNL     1       4.986   4.605  18.112  0.00  0.00    +0.000 S 
ATOM      7  O   UNL     1       4.481   4.054  16.872  0.00  0.00    +0.000 OA
ATOM      8  O   UNL     1       5.612   3.772  19.123  0.00  0.00    +0.000 OA
BRANCH   6   9
ATOM      9  C   UNL     1       3.698   5.543  18.892  0.00  0.00    +0.000 A 
ATOM     10  C   UNL     1       3.311   6.771  18.348  0.00  0.00    +0.000 A 
ATOM     11  C   UNL     1       2.349   7.539  19.005  0.00  0.00    +0.000 A 
ATOM     12  C   UNL     1       1.766   7.070  20.183  0.00  0.00    +0.000 A 
ATOM     13  C   UNL     1       2.120   5.820  20.695  0.00  0.00    +0.000 A 
ATOM     14  C   UNL     1       3.083   5.047  20.046  0.00  0.00    +0.000 A 
ENDBRANCH   6   9
ENDBRANCH   5   6
BRANCH   1  15
ATOM     15  N   UNL     1       6.149   5.779  15.142  0.00  0.00    +0.000 N 
ATOM     16  H   UNL     1       5.153   5.813  14.906  0.00  0.00    +0.000 HD
BRANCH  15  17
ATOM     17  C   UNL     1       6.885   4.783  14.363  0.00  0.00    +0.000 C 
BRANCH  17  18
ATOM     18  C   UNL     1       5.995   3.578  14.032  0.00  0.00    +0.000 C 
BRANCH  18  20
ATOM     19  C   UNL     1       7.071   3.886  11.950  0.00  0.00    +0.000 C 
ATOM     20  O   UNL     1       5.890   3.450  12.609  0.00  0.00    +0.000 OA
ENDBRANCH  18  20
ENDBRANCH  17  18
ENDBRANCH  15  17
ENDBRANCH   1  15
BRANCH   3  21
ATOM     21  C   UNL     1       8.671   8.216  18.325  0.00  0.00    +0.000 C 
ATOM     22  C   UNL     1       8.381   9.528  18.368  0.00  0.00    +0.000 C 
BRANCH  22  23
ATOM     23  C   UNL     1       9.299  10.583  18.830  0.00  0.00    +0.000 A 
ATOM     24  C   UNL     1       9.338  11.025  20.162  0.00  0.00    +0.000 A 
ATOM     25  C   UNL     1      10.254  12.003  20.563  0.00  0.00    +0.000 A 
ATOM     26  C   UNL     1      11.143  12.533  19.636  0.00  0.00    +0.000 A 
ATOM     27  F   UNL     1      12.023  13.465  20.023  0.00  0.00    +0.000 F 
ATOM     28  C   UNL     1      11.135  12.101  18.318  0.00  0.00    +0.000 A 
ATOM     29  C   UNL     1      10.219  11.123  17.917  0.00  0.00    +0.000 A 
ENDBRANCH  22  23
ENDBRANCH   3  21
TORSDOF 8
ENDMDL
MODEL 6
REMARK VINA RESULT:      -8.2      4.994      7.600
REMARK  Name = 
REMARK  9 active torsions:
REMARK  status: ('A' for Active; 'I' for Inactive)
REMARK    1  A    between atoms: C_1  and  O_2
REMARK    2  A    between atoms: O_2  and  C_3
REMARK    3  A    between atoms: C_3  and  C_4
REMARK    4  A    between atoms: C_4  and  N_5
REMARK    5  A    between atoms: N_5  and  C_6
REMARK    6  A    between atoms: C_8  and  C_9
REMARK    7  A    between atoms: C_10  and  C_11
REMARK    8  A    between atoms: C_19  and  S_20
REMARK    9  A    between atoms: S_20  and  C_23
REMARK                            x       y       z     vdW  Elec       q    Type
REMARK                         _______ _______ _______ _____ _____    ______ ____
ROOT
ATOM      1  C   UNL     1       4.808   4.724  17.795  0.00  0.00    +0.000 A 
ATOM      2  O   UNL     1       3.594   5.277  18.081  0.00  0.00    +0.000 OA
ATOM      3  C   UNL     1       3.618   6.562  17.574  0.00  0.00    +0.000 A 
ATOM      4  N   UNL     1       4.759   6.818  16.950  0.00  0.00    +0.000 NA
ATOM      5  C   UNL     1       5.532   5.677  17.117  0.00  0.00    +0.000 A 
ENDROOT
BRANCH   5   6
ATOM      6  S   UNL     1       7.120   5.492  16.467  0.00  0.00    +0.000 S 
ATOM      7  O   UNL     1       7.688   6.822  16.412  0.00  0.00    +0.000 OA
ATOM      8  O   UNL     1       7.743   4.422  17.225  0.00  0.00    +0.000 OA
BRANCH   6   9
ATOM      9  C   UNL     1       6.854   4.911  14.812  0.00  0.00    +0.000 A 
ATOM     10  C   UNL     1       5.766   4.077  14.539  0.00  0.00    +0.000 A 
ATOM     11  C   UNL     1       5.603   3.565  13.251  0.00  0.00    +0.000 A 
ATOM     12  C   UNL     1       6.508   3.901  12.245  0.00  0.00    +0.000 A 
ATOM     13  C   UNL     1       7.565   4.774  12.511  0.00  0.00    +0.000 A 
ATOM     14  C   UNL     1       7.737   5.290  13.796  0.00  0.00    +0.000 A 
ENDBRANCH   6   9
ENDBRANCH   5   6
BRANCH   1  15
ATOM     15  N   UNL     1       5.035   3.465  18.227  0.00  0.00    +0.000 N 
ATOM     16  H   UNL     1       5.102   2.708  17.542  0.00  0.00    +0.000 HD
BRANCH  15  17
ATOM     17  C   UNL     1       4.552   3.012  19.531  0.00  0.00    +0.000 C 
BRANCH  17  18
ATOM     18  C   UNL     1       3.316   2.116  19.377  0.00  0.00    +0.000 C 
BRANCH  18  20
ATOM     19  C   UNL     1       1.885   2.589  21.198  0.00  0.00    +0.000 C 
ATOM     20  O   UNL     1       2.159   2.832  19.826  0.00  0.00    +0.000 OA
ENDBRANCH  18  20
ENDBRANCH  17  18
ENDBRANCH  15  17
ENDBRANCH   1  15
BRANCH   3  21
ATOM     21  C   UNL     1       2.512   7.443  17.739  0.00  0.00    +0.000 C 
ATOM     22  C   UNL     1       2.359   8.175  18.856  0.00  0.00    +0.000 C 
BRANCH  22  23
ATOM     23  C   UNL     1       1.242   9.100  19.116  0.00  0.00    +0.000 A 
ATOM     24  C   UNL     1       0.546   9.755  18.089  0.00  0.00    +0.000 A 
ATOM     25  C   UNL     1      -0.534  10.596  18.381  0.00  0.00    +0.000 A 
ATOM     26  C   UNL     1      -0.928  10.774  19.702  0.00  0.00    +0.000 A 
ATOM     27  F   UNL     1      -1.965  11.574  19.980  0.00  0.00    +0.000 F 
ATOM     28  C   UNL     1      -0.266  10.124  20.734  0.00  0.00    +0.000 A 
ATOM     29  C   UNL     1       0.814   9.284  20.441  0.00  0.00    +0.000 A 
ENDBRANCH  22  23
ENDBRANCH   3  21
TORSDOF 8
ENDMDL
MODEL 7
REMARK VINA RESULT:      -8.1      0.946      1.350
REMARK  Name = 
REMARK  9 active torsions:
REMARK  status: ('A' for Active; 'I' for Inactive)
REMARK    1  A    between atoms: C_1  and  O_2
REMARK    2  A    between atoms: O_2  and  C_3
REMARK    3  A    between atoms: C_3  and  C_4
REMARK    4  A    between atoms: C_4  and  N_5
REMARK    5  A    between atoms: N_5  and  C_6
REMARK    6  A    between atoms: C_8  and  C_9
REMARK    7  A    between atoms: C_10  and  C_11
REMARK    8  A    between atoms: C_19  and  S_20
REMARK    9  A    between atoms: S_20  and  C_23
REMARK                            x       y       z     vdW  Elec       q    Type
REMARK                         _______ _______ _______ _____ _____    ______ ____
ROOT
ATOM      1  C   UNL     1       6.437   5.881  16.404  0.00  0.00    +0.000 A 
ATOM      2  O   UNL     1       7.422   6.811  16.570  0.00  0.00    +0.000 OA
ATOM      3  C   UNL     1       7.544   7.016  17.931  0.00  0.00    +0.000 A 
ATOM      4  N   UNL     1       6.724   6.232  18.617  0.00  0.00    +0.000 NA
ATOM      5  C   UNL     1       5.993   5.540  17.661  0.00  0.00    +0.000 A 
ENDROOT
BRANCH   5   6
ATOM      6  S   UNL     1       4.790   4.363  18.043  0.00  0.00    +0.000 S 
ATOM      7  O   UNL     1       4.193   3.977  16.781  0.00  0.00    +0.000 OA
ATOM      8  O   UNL     1       5.434   3.397  18.914  0.00  0.00    +0.000 OA
BRANCH   6   9
ATOM      9  C   UNL     1       3.590   5.253  18.999  0.00  0.00    +0.000 A 
ATOM     10  C   UNL     1       2.965   4.624  20.081  0.00  0.00    +0.000 A 
ATOM     11  C   UNL     1       1.970   5.302  20.785  0.00  0.00    +0.000 A 
ATOM     12  C   UNL     1       1.619   6.603  20.422  0.00  0.00    +0.000 A 
ATOM     13  C   UNL     1       2.281   7.243  19.372  0.00  0.00    +0.000 A 
ATOM     14  C   UNL     1       3.276   6.572  18.661  0.00  0.00    +0.000 A 
ENDBRANCH   6   9
ENDBRANCH   5   6
BRANCH   1  15
ATOM     15  N   UNL     1       6.111   5.538  15.140  0.00  0.00    +0.000 N 
ATOM     16  H   UNL     1       5.257   5.921  14.725  0.00  0.00    +0.000 HD
BRANCH  15  17
ATOM     17  C   UNL     1       6.477   4.234  14.590  0.00  0.00    +0.000 C 
BRANCH  17  18
ATOM     18  C   UNL     1       7.111   4.382  13.201  0.00  0.00    +0.000 C 
BRANCH  18  20
ATOM     19  C   UNL     1       8.047   6.130  11.914  0.00  0.00    +0.000 C 
ATOM     20  O   UNL     1       7.971   5.528  13.198  0.00  0.00    +0.000 OA
ENDBRANCH  18  20
ENDBRANCH  17  18
ENDBRANCH  15  17
ENDBRANCH   1  15
BRANCH   3  21
ATOM     21  C   UNL     1       8.464   7.968  18.456  0.00  0.00    +0.000 C 
ATOM     22  C   UNL     1       8.360   9.277  18.165  0.00  0.00    +0.000 C 
BRANCH  22  23
ATOM     23  C   UNL     1       9.271  10.326  18.653  0.00  0.00    +0.000 A 
ATOM     24  C   UNL     1      10.015  11.145  17.789  0.00  0.00    +0.000 A 
ATOM     25  C   UNL     1      10.839  12.156  18.297  0.00  0.00    +0.000 A 
ATOM     26  C   UNL     1      10.912  12.358  19.670  0.00  0.00    +0.000 A 
ATOM     27  F   UNL     1      11.696  13.329  20.154  0.00  0.00    +0.000 F 
ATOM     28  C   UNL     1      10.173  11.572  20.543  0.00  0.00    +0.000 A 
ATOM     29  C   UNL     1       9.350  10.562  20.035  0.00  0.00    +0.000 A 
ENDBRANCH  22  23
ENDBRANCH   3  21
TORSDOF 8
ENDMDL
MODEL 8
REMARK VINA RESULT:      -8.0      4.991      7.581
REMARK  Name = 
REMARK  9 active torsions:
REMARK  status: ('A' for Active; 'I' for Inactive)
REMARK    1  A    between atoms: C_1  and  O_2
REMARK    2  A    between atoms: O_2  and  C_3
REMARK    3  A    between atoms: C_3  and  C_4
REMARK    4  A    between atoms: C_4  and  N_5
REMARK    5  A    between atoms: N_5  and  C_6
REMARK    6  A    between atoms: C_8  and  C_9
REMARK    7  A    between atoms: C_10  and  C_11
REMARK    8  A    between atoms: C_19  and  S_20
REMARK    9  A    between atoms: S_20  and  C_23
REMARK                            x       y       z     vdW  Elec       q    Type
REMARK                         _______ _______ _______ _____ _____    ______ ____
ROOT
ATOM      1  C   UNL     1       4.944   4.663  18.006  0.00  0.00    +0.000 A 
ATOM      2  O   UNL     1       3.711   5.164  18.306  0.00  0.00    +0.000 OA
ATOM      3  C   UNL     1       3.638   6.410  17.711  0.00  0.00    +0.000 A 
ATOM      4  N   UNL     1       4.737   6.686  17.024  0.00  0.00    +0.000 NA
ATOM      5  C   UNL     1       5.583   5.606  17.235  0.00  0.00    +0.000 A 
ENDROOT
BRANCH   5   6
ATOM      6  S   UNL     1       7.152   5.467  16.532  0.00  0.00    +0.000 S 
ATOM      7  O   UNL     1       7.667   6.817  16.428  0.00  0.00    +0.000 OA
ATOM      8  O   UNL     1       7.844   4.439  17.288  0.00  0.00    +0.000 OA
BRANCH   6   9
ATOM      9  C   UNL     1       6.851   4.840  14.899  0.00  0.00    +0.000 A 
ATOM     10  C   UNL     1       7.709   5.195  13.854  0.00  0.00    +0.000 A 
ATOM     11  C   UNL     1       7.427   4.759  12.559  0.00  0.00    +0.000 A 
ATOM     12  C   UNL     1       6.309   3.959  12.319  0.00  0.00    +0.000 A 
ATOM     13  C   UNL     1       5.484   3.566  13.375  0.00  0.00    +0.000 A 
ATOM     14  C   UNL     1       5.757   4.000  14.672  0.00  0.00    +0.000 A 
ENDBRANCH   6   9
ENDBRANCH   5   6
BRANCH   1  15
ATOM     15  N   UNL     1       5.264   3.453  18.513  0.00  0.00    +0.000 N 
ATOM     16  H   UNL     1       6.155   3.023  18.252  0.00  0.00    +0.000 HD
BRANCH  15  17
ATOM     17  C   UNL     1       4.231   2.469  18.836  0.00  0.00    +0.000 C 
BRANCH  17  18
ATOM     18  C   UNL     1       4.106   2.282  20.354  0.00  0.00    +0.000 C 
BRANCH  18  20
ATOM     19  C   UNL     1       1.778   2.614  20.591  0.00  0.00    +0.000 C 
ATOM     20  O   UNL     1       3.071   3.141  20.848  0.00  0.00    +0.000 OA
ENDBRANCH  18  20
ENDBRANCH  17  18
ENDBRANCH  15  17
ENDBRANCH   1  15
BRANCH   3  21
ATOM     21  C   UNL     1       2.488   7.235  17.863  0.00  0.00    +0.000 C 
ATOM     22  C   UNL     1       2.378   8.103  18.884  0.00  0.00    +0.000 C 
BRANCH  22  23
ATOM     23  C   UNL     1       1.222   8.984  19.124  0.00  0.00    +0.000 A 
ATOM     24  C   UNL     1       0.742   9.272  20.412  0.00  0.00    +0.000 A 
ATOM     25  C   UNL     1      -0.335  10.146  20.593  0.00  0.00    +0.000 A 
ATOM     26  C   UNL     1      -0.929  10.743  19.488  0.00  0.00    +0.000 A 
ATOM     27  F   UNL     1      -1.956  11.584  19.664  0.00  0.00    +0.000 F 
ATOM     28  C   UNL     1      -0.462  10.488  18.207  0.00  0.00    +0.000 A 
ATOM     29  C   UNL     1       0.614   9.614  18.025  0.00  0.00    +0.000 A 
ENDBRANCH  22  23
ENDBRANCH   3  21
TORSDOF 8
ENDMDL
MODEL 9
REMARK VINA RESULT:      -8.0      1.203      1.666
REMARK  Name = 
REMARK  9 active torsions:
REMARK  status: ('A' for Active; 'I' for Inactive)
REMARK    1  A    between atoms: C_1  and  O_2
REMARK    2  A    between atoms: O_2  and  C_3
REMARK    3  A    between atoms: C_3  and  C_4
REMARK    4  A    between atoms: C_4  and  N_5
REMARK    5  A    between atoms: N_5  and  C_6
REMARK    6  A    between atoms: C_8  and  C_9
REMARK    7  A    between atoms: C_10  and  C_11
REMARK    8  A    between atoms: C_19  and  S_20
REMARK    9  A    between atoms: S_20  and  C_23
REMARK                            x       y       z     vdW  Elec       q    Type
REMARK                         _______ _______ _______ _____ _____    ______ ____
ROOT
ATOM      1  C   UNL     1       6.630   4.652  16.996  0.00  0.00    +0.000 A 
ATOM      2  O   UNL     1       7.558   5.653  17.017  0.00  0.00    +0.000 OA
ATOM      3  C   UNL     1       7.414   6.297  18.230  0.00  0.00    +0.000 A 
ATOM      4  N   UNL     1       6.483   5.723  18.980  0.00  0.00    +0.000 NA
ATOM      5  C   UNL     1       5.956   4.707  18.194  0.00  0.00    +0.000 A 
ENDROOT
BRANCH   5   6
ATOM      6  S   UNL     1       4.711   3.636  18.724  0.00  0.00    +0.000 S 
ATOM      7  O   UNL     1       4.202   2.992  17.531  0.00  0.00    +0.000 OA
ATOM      8  O   UNL     1       5.276   2.875  19.824  0.00  0.00    +0.000 OA
BRANCH   6   9
ATOM      9  C   UNL     1       3.457   4.705  19.381  0.00  0.00    +0.000 A 
ATOM     10  C   UNL     1       3.342   6.012  18.899  0.00  0.00    +0.000 A 
ATOM     11  C   UNL     1       2.403   6.872  19.469  0.00  0.00    +0.000 A 
ATOM     12  C   UNL     1       1.574   6.419  20.496  0.00  0.00    +0.000 A 
ATOM     13  C   UNL     1       1.659   5.098  20.939  0.00  0.00    +0.000 A 
ATOM     14  C   UNL     1       2.597   4.232  20.376  0.00  0.00    +0.000 A 
ENDBRANCH   6   9
ENDBRANCH   5   6
BRANCH   1  15
ATOM     15  N   UNL     1       6.556   3.894  15.881  0.00  0.00    +0.000 N 
ATOM     16  H   UNL     1       7.252   3.159  15.732  0.00  0.00    +0.000 HD
BRANCH  15  17
ATOM     17  C   UNL     1       6.021   4.434  14.632  0.00  0.00    +0.000 C 
BRANCH  17  18
ATOM     18  C   UNL     1       7.074   4.388  13.518  0.00  0.00    +0.000 C 
BRANCH  18  20
ATOM     19  C   UNL     1       8.424   6.001  12.440  0.00  0.00    +0.000 C 
ATOM     20  O   UNL     1       7.983   5.483  13.686  0.00  0.00    +0.000 OA
ENDBRANCH  18  20
ENDBRANCH  17  18
ENDBRANCH  15  17
ENDBRANCH   1  15
BRANCH   3  21
ATOM     21  C   UNL     1       8.208   7.431  18.564  0.00  0.00    +0.000 C 
ATOM     22  C   UNL     1       7.896   8.661  18.117  0.00  0.00    +0.000 C 
BRANCH  22  23
ATOM     23  C   UNL     1       8.665   9.884  18.402  0.00  0.00    +0.000 A 
ATOM     24  C   UNL     1       9.572   9.979  19.469  0.00  0.00    +0.000 A 
ATOM     25  C   UNL     1      10.309  11.150  19.678  0.00  0.00    +0.000 A 
ATOM     26  C   UNL     1      10.151  12.225  18.812  0.00  0.00    +0.000 A 
ATOM     27  F   UNL     1      10.862  13.342  19.009  0.00  0.00    +0.000 F 
ATOM     28  C   UNL     1       9.273  12.150  17.740  0.00  0.00    +0.000 A 
ATOM     29  C   UNL     1       8.536  10.979  17.532  0.00  0.00    +0.000 A 
ENDBRANCH  22  23
ENDBRANCH   3  21
TORSDOF 8
ENDMDL
