MODEL 1
REMARK VINA RESULT:      -8.2      0.000      0.000
REMARK  Name = 
REMARK  6 active torsions:
REMARK  status: ('A' for Active; 'I' for Inactive)
REMARK    1  A    between atoms: C_1  and  C_2
REMARK    2  A    between atoms: C_2  and  O_3
REMARK    3  A    between atoms: O_3  and  C_4
REMARK    4  A    between atoms: N_6  and  C_7
REMARK    5  A    between atoms: C_7  and  C_8
REMARK    6  A    between atoms: C_12  and  N_13
REMARK                            x       y       z     vdW  Elec       q    Type
REMARK                         _______ _______ _______ _____ _____    ______ ____
ROOT
ATOM      1  C   UNL     1       6.402   4.259  15.546  0.00  0.00    +0.000 A 
ATOM      2  C   UNL     1       7.562   4.567  16.244  0.00  0.00    +0.000 A 
ATOM      3  C   UNL     1       7.489   4.764  17.625  0.00  0.00    +0.000 A 
ATOM      4  C   UNL     1       6.262   4.686  18.326  0.00  0.00    +0.000 A 
ATOM      5  C   UNL     1       5.061   4.461  17.651  0.00  0.00    +0.000 A 
ATOM      6  C   UNL     1       5.192   4.217  16.254  0.00  0.00    +0.000 A 
ENDROOT
BRANCH   5   7
ATOM      7  N   UNL     1       3.800   4.398  18.242  0.00  0.00    +0.000 N 
ATOM      8  C   UNL     1       2.704   5.287  17.803  0.00  0.00    +0.000 C 
ATOM      9  C   UNL     1       1.475   4.390  17.717  0.00  0.00    +0.000 C 
ATOM     10  C   UNL     1       1.719   3.653  18.989  0.00  0.00    +0.000 A 
ATOM     11  C   UNL     1       0.759   3.159  19.852  0.00  0.00    +0.000 A 
ATOM     12  C   UNL     1       1.197   2.722  21.095  0.00  0.00    +0.000 A 
ATOM     13  C   UNL     1       2.573   2.718  21.396  0.00  0.00    +0.000 A 
ATOM     14  C   UNL     1       3.547   3.151  20.468  0.00  0.00    +0.000 A 
ATOM     15  C   UNL     1       3.111   3.666  19.264  0.00  0.00    +0.000 A 
ENDBRANCH   5   7
BRANCH   1  16
ATOM     16  C   UNL     1       6.412   3.901  14.085  0.00  0.00    +0.000 C 
BRANCH  16  19
ATOM     17  C   UNL     1       4.924   3.267  12.289  0.00  0.00    +0.000 C 
ATOM     18  O   UNL     1       5.755   2.541  11.764  0.00  0.00    +0.000 OA
ATOM     19  N   UNL     1       5.106   3.914  13.480  0.00  0.00    +0.000 N 
ATOM     20  H   UNL     1       4.419   4.615  13.724  0.00  0.00    +0.000 HD
BRANCH  17  21
ATOM     21  O   UNL     1       3.734   3.621  11.745  0.00  0.00    +0.000 OA
BRANCH  21  23
ATOM     22  C   UNL     1       2.940   4.246   9.578  0.00  0.00    +0.000 C 
ATOM     23  C   UNL     1       3.509   3.116  10.418  0.00  0.00    +0.000 C 
ENDBRANCH  21  23
ENDBRANCH  17  21
ENDBRANCH  16  19
ENDBRANCH   1  16
TORSDOF 5
ENDMDL
MODEL 2
REMARK VINA RESULT:      -8.1      1.278      1.431
REMARK  Name = 
REMARK  6 active torsions:
REMARK  status: ('A' for Active; 'I' for Inactive)
REMARK    1  A    between atoms: C_1  and  C_2
REMARK    2  A    between atoms: C_2  and  O_3
REMARK    3  A    between atoms: O_3  and  C_4
REMARK    4  A    between atoms: N_6  and  C_7
REMARK    5  A    between atoms: C_7  and  C_8
REMARK    6  A    between atoms: C_12  and  N_13
REMARK                            x       y       z     vdW  Elec       q    Type
REMARK                         _______ _______ _______ _____ _____    ______ ____
ROOT
ATOM      1  C   UNL     1       6.535   5.116  15.623  0.00  0.00    +0.000 A 
ATOM      2  C   UNL     1       7.115   6.190  16.285  0.00  0.00    +0.000 A 
ATOM      3  C   UNL     1       6.609   6.570  17.531  0.00  0.00    +0.000 A 
ATOM      4  C   UNL     1       5.505   5.910  18.121  0.00  0.00    +0.000 A 
ATOM      5  C   UNL     1       4.841   4.880  17.452  0.00  0.00    +0.000 A 
ATOM      6  C   UNL     1       5.424   4.495  16.210  0.00  0.00    +0.000 A 
ENDROOT
BRANCH   5   7
ATOM      7  N   UNL     1       3.730   4.188  17.932  0.00  0.00    +0.000 N 
ATOM      8  C   UNL     1       2.833   3.453  17.015  0.00  0.00    +0.000 C 
ATOM      9  C   UNL     1       2.560   2.123  17.708  0.00  0.00    +0.000 C 
ATOM     10  C   UNL     1       2.356   2.687  19.072  0.00  0.00    +0.000 A 
ATOM     11  C   UNL     1       1.499   2.203  20.043  0.00  0.00    +0.000 A 
ATOM     12  C   UNL     1       1.281   3.015  21.149  0.00  0.00    +0.000 A 
ATOM     13  C   UNL     1       1.984   4.229  21.281  0.00  0.00    +0.000 A 
ATOM     14  C   UNL     1       2.919   4.666  20.316  0.00  0.00    +0.000 A 
ATOM     15  C   UNL     1       3.075   3.906  19.175  0.00  0.00    +0.000 A 
ENDBRANCH   5   7
BRANCH   1  16
ATOM     16  C   UNL     1       7.099   4.558  14.346  0.00  0.00    +0.000 C 
BRANCH  16  19
ATOM     17  C   UNL     1       6.358   3.439  12.335  0.00  0.00    +0.000 C 
ATOM     18  O   UNL     1       7.279   3.881  11.667  0.00  0.00    +0.000 OA
ATOM     19  N   UNL     1       6.218   3.632  13.682  0.00  0.00    +0.000 N 
ATOM     20  H   UNL     1       5.333   3.365  14.090  0.00  0.00    +0.000 HD
BRANCH  17  21
ATOM     21  O   UNL     1       5.285   2.768  11.850  0.00  0.00    +0.000 OA
BRANCH  21  23
ATOM     22  C   UNL     1       3.387   3.121  10.438  0.00  0.00    +0.000 C 
ATOM     23  C   UNL     1       4.097   3.565  11.706  0.00  0.00    +0.000 C 
ENDBRANCH  21  23
ENDBRANCH  17  21
ENDBRANCH  16  19
ENDBRANCH   1  16
TORSDOF 5
ENDMDL
MODEL 3
REMARK VINA RESULT:      -7.9      1.629      1.851
REMARK  Name = 
REMARK  6 active torsions:
REMARK  status: ('A' for Active; 'I' for Inactive)
REMARK    1  A    between atoms: C_1  and  C_2
REMARK    2  A    between atoms: C_2  and  O_3
REMARK    3  A    between atoms: O_3  and  C_4
REMARK    4  A    between atoms: N_6  and  C_7
REMARK    5  A    between atoms: C_7  and  C_8
REMARK    6  A    between atoms: C_12  and  N_13
REMARK                            x       y       z     vdW  Elec       q    Type
REMARK                         _______ _______ _______ _____ _____    ______ ____
ROOT
ATOM      1  C   UNL     1       5.950   4.676  15.407  0.00  0.00    +0.000 A 
ATOM      2  C   UNL     1       7.267   4.605  15.840  0.00  0.00    +0.000 A 
ATOM      3  C   UNL     1       7.525   4.555  17.212  0.00  0.00    +0.000 A 
ATOM      4  C   UNL     1       6.486   4.604  18.170  0.00  0.00    +0.000 A 
ATOM      5  C   UNL     1       5.155   4.760  17.779  0.00  0.00    +0.000 A 
ATOM      6  C   UNL     1       4.936   4.754  16.372  0.00  0.00    +0.000 A 
ENDROOT
BRANCH   5   7
ATOM      7  N   UNL     1       4.064   4.849  18.643  0.00  0.00    +0.000 N 
ATOM      8  C   UNL     1       3.380   6.139  18.879  0.00  0.00    +0.000 C 
ATOM      9  C   UNL     1       1.891   5.813  18.833  0.00  0.00    +0.000 C 
ATOM     10  C   UNL     1       1.972   4.559  19.635  0.00  0.00    +0.000 A 
ATOM     11  C   UNL     1       1.011   4.072  20.502  0.00  0.00    +0.000 A 
ATOM     12  C   UNL     1       1.386   3.022  21.330  0.00  0.00    +0.000 A 
ATOM     13  C   UNL     1       2.668   2.449  21.205  0.00  0.00    +0.000 A 
ATOM     14  C   UNL     1       3.607   2.909  20.254  0.00  0.00    +0.000 A 
ATOM     15  C   UNL     1       3.271   4.007  19.489  0.00  0.00    +0.000 A 
ENDBRANCH   5   7
BRANCH   1  16
ATOM     16  C   UNL     1       5.575   4.599  13.952  0.00  0.00    +0.000 C 
BRANCH  16  19
ATOM     17  C   UNL     1       6.895   3.583  12.200  0.00  0.00    +0.000 C 
ATOM     18  O   UNL     1       7.357   4.652  11.834  0.00  0.00    +0.000 OA
ATOM     19  N   UNL     1       6.080   3.426  13.288  0.00  0.00    +0.000 N 
ATOM     20  H   UNL     1       5.627   2.528  13.389  0.00  0.00    +0.000 HD
BRANCH  17  21
ATOM     21  O   UNL     1       7.035   2.401  11.552  0.00  0.00    +0.000 OA
BRANCH  21  23
ATOM     22  C   UNL     1       6.216   0.178  11.227  0.00  0.00    +0.000 C 
ATOM     23  C   UNL     1       5.826   1.630  11.447  0.00  0.00    +0.000 C 
ENDBRANCH  21  23
ENDBRANCH  17  21
ENDBRANCH  16  19
ENDBRANCH   1  16
TORSDOF 5
ENDMDL
MODEL 4
REMARK VINA RESULT:      -7.8      3.719      5.584
REMARK  Name = 
REMARK  6 active torsions:
REMARK  status: ('A' for Active; 'I' for Inactive)
REMARK    1  A    between atoms: C_1  and  C_2
REMARK    2  A    between atoms: C_2  and  O_3
REMARK    3  A    between atoms: O_3  and  C_4
REMARK    4  A    between atoms: N_6  and  C_7
REMARK    5  A    between atoms: C_7  and  C_8
REMARK    6  A    between atoms: C_12  and  N_13
REMARK                            x       y       z     vdW  Elec       q    Type
REMARK                         _______ _______ _______ _____ _____    ______ ____
ROOT
ATOM      1  C   UNL     1       4.026   4.189  17.427  0.00  0.00    +0.000 A 
ATOM      2  C   UNL     1       3.385   3.153  18.094  0.00  0.00    +0.000 A 
ATOM      3  C   UNL     1       2.353   3.459  18.984  0.00  0.00    +0.000 A 
ATOM      4  C   UNL     1       1.964   4.794  19.247  0.00  0.00    +0.000 A 
ATOM      5  C   UNL     1       2.637   5.867  18.661  0.00  0.00    +0.000 A 
ATOM      6  C   UNL     1       3.647   5.505  17.723  0.00  0.00    +0.000 A 
ENDROOT
BRANCH   5   7
ATOM      7  N   UNL     1       2.353   7.215  18.877  0.00  0.00    +0.000 N 
ATOM      8  C   UNL     1       2.817   8.254  17.933  0.00  0.00    +0.000 C 
ATOM      9  C   UNL     1       1.624   9.186  17.751  0.00  0.00    +0.000 C 
ATOM     10  C   UNL     1       1.235   9.239  19.189  0.00  0.00    +0.000 A 
ATOM     11  C   UNL     1       0.675  10.315  19.852  0.00  0.00    +0.000 A 
ATOM     12  C   UNL     1       0.617  10.238  21.237  0.00  0.00    +0.000 A 
ATOM     13  C   UNL     1       1.038   9.066  21.896  0.00  0.00    +0.000 A 
ATOM     14  C   UNL     1       1.530   7.943  21.193  0.00  0.00    +0.000 A 
ATOM     15  C   UNL     1       1.672   8.048  19.824  0.00  0.00    +0.000 A 
ENDBRANCH   5   7
BRANCH   1  16
ATOM     16  C   UNL     1       5.052   3.943  16.355  0.00  0.00    +0.000 C 
BRANCH  16  19
ATOM     17  C   UNL     1       7.079   5.250  16.516  0.00  0.00    +0.000 C 
ATOM     18  O   UNL     1       7.676   4.377  17.125  0.00  0.00    +0.000 OA
ATOM     19  N   UNL     1       5.815   5.114  16.009  0.00  0.00    +0.000 N 
ATOM     20  H   UNL     1       5.366   5.956  15.678  0.00  0.00    +0.000 HD
BRANCH  17  21
ATOM     21  O   UNL     1       7.523   6.516  16.318  0.00  0.00    +0.000 OA
BRANCH  21  23
ATOM     22  C   UNL     1       8.169   7.625  18.336  0.00  0.00    +0.000 C 
ATOM     23  C   UNL     1       7.072   7.467  17.298  0.00  0.00    +0.000 C 
ENDBRANCH  21  23
ENDBRANCH  17  21
ENDBRANCH  16  19
ENDBRANCH   1  16
TORSDOF 5
ENDMDL
MODEL 5
REMARK VINA RESULT:      -7.8      4.544      6.256
REMARK  Name = 
REMARK  6 active torsions:
REMARK  status: ('A' for Active; 'I' for Inactive)
REMARK    1  A    between atoms: C_1  and  C_2
REMARK    2  A    between atoms: C_2  and  O_3
REMARK    3  A    between atoms: O_3  and  C_4
REMARK    4  A    between atoms: N_6  and  C_7
REMARK    5  A    between atoms: C_7  and  C_8
REMARK    6  A    between atoms: C_12  and  N_13
REMARK                            x       y       z     vdW  Elec       q    Type
REMARK                         _______ _______ _______ _____ _____    ______ ____
ROOT
ATOM      1  C   UNL     1       4.612   5.833  17.018  0.00  0.00    +0.000 A 
ATOM      2  C   UNL     1       4.073   4.569  17.218  0.00  0.00    +0.000 A 
ATOM      3  C   UNL     1       2.844   4.454  17.872  0.00  0.00    +0.000 A 
ATOM      4  C   UNL     1       2.149   5.585  18.360  0.00  0.00    +0.000 A 
ATOM      5  C   UNL     1       2.695   6.866  18.254  0.00  0.00    +0.000 A 
ATOM      6  C   UNL     1       3.923   6.939  17.537  0.00  0.00    +0.000 A 
ENDROOT
BRANCH   5   7
ATOM      7  N   UNL     1       2.107   8.037  18.729  0.00  0.00    +0.000 N 
ATOM      8  C   UNL     1       2.104   9.273  17.918  0.00  0.00    +0.000 C 
ATOM      9  C   UNL     1       0.695   9.838  18.058  0.00  0.00    +0.000 C 
ATOM     10  C   UNL     1       0.567   9.599  19.524  0.00  0.00    +0.000 A 
ATOM     11  C   UNL     1      -0.131  10.380  20.427  0.00  0.00    +0.000 A 
ATOM     12  C   UNL     1       0.079  10.120  21.775  0.00  0.00    +0.000 A 
ATOM     13  C   UNL     1       0.905   9.047  22.165  0.00  0.00    +0.000 A 
ATOM     14  C   UNL     1       1.544   8.209  21.224  0.00  0.00    +0.000 A 
ATOM     15  C   UNL     1       1.409   8.516  19.885  0.00  0.00    +0.000 A 
ENDBRANCH   5   7
BRANCH   1  16
ATOM     16  C   UNL     1       5.860   6.058  16.210  0.00  0.00    +0.000 C 
BRANCH  16  19
ATOM     17  C   UNL     1       7.619   6.502  17.807  0.00  0.00    +0.000 C 
ATOM     18  O   UNL     1       7.743   5.324  18.103  0.00  0.00    +0.000 OA
ATOM     19  N   UNL     1       6.789   6.970  16.825  0.00  0.00    +0.000 N 
ATOM     20  H   UNL     1       6.647   7.970  16.790  0.00  0.00    +0.000 HD
BRANCH  17  21
ATOM     21  O   UNL     1       8.207   7.541  18.449  0.00  0.00    +0.000 OA
BRANCH  21  23
ATOM     22  C   UNL     1       8.833   9.845  18.585  0.00  0.00    +0.000 C 
ATOM     23  C   UNL     1       8.014   8.819  17.821  0.00  0.00    +0.000 C 
ENDBRANCH  21  23
ENDBRANCH  17  21
ENDBRANCH  16  19
ENDBRANCH   1  16
TORSDOF 5
ENDMDL
MODEL 6
REMARK VINA RESULT:      -7.7      1.641      2.092
REMARK  Name = 
REMARK  6 active torsions:
REMARK  status: ('A' for Active; 'I' for Inactive)
REMARK    1  A    between atoms: C_1  and  C_2
REMARK    2  A    between atoms: C_2  and  O_3
REMARK    3  A    between atoms: O_3  and  C_4
REMARK    4  A    between atoms: N_6  and  C_7
REMARK    5  A    between atoms: C_7  and  C_8
REMARK    6  A    between atoms: C_12  and  N_13
REMARK                            x       y       z     vdW  Elec       q    Type
REMARK                         _______ _______ _______ _____ _____    ______ ____
ROOT
ATOM      1  C   UNL     1       6.664   5.162  15.754  0.00  0.00    +0.000 A 
ATOM      2  C   UNL     1       7.399   6.039  16.540  0.00  0.00    +0.000 A 
ATOM      3  C   UNL     1       7.093   6.147  17.899  0.00  0.00    +0.000 A 
ATOM      4  C   UNL     1       6.038   5.412  18.488  0.00  0.00    +0.000 A 
ATOM      5  C   UNL     1       5.222   4.583  17.717  0.00  0.00    +0.000 A 
ATOM      6  C   UNL     1       5.603   4.465  16.350  0.00  0.00    +0.000 A 
ENDROOT
BRANCH   5   7
ATOM      7  N   UNL     1       4.141   3.842  18.194  0.00  0.00    +0.000 N 
ATOM      8  C   UNL     1       3.741   2.573  17.550  0.00  0.00    +0.000 C 
ATOM      9  C   UNL     1       3.468   1.611  18.701  0.00  0.00    +0.000 C 
ATOM     10  C   UNL     1       2.724   2.582  19.554  0.00  0.00    +0.000 A 
ATOM     11  C   UNL     1       1.679   2.292  20.411  0.00  0.00    +0.000 A 
ATOM     12  C   UNL     1       0.969   3.371  20.922  0.00  0.00    +0.000 A 
ATOM     13  C   UNL     1       1.379   4.687  20.629  0.00  0.00    +0.000 A 
ATOM     14  C   UNL     1       2.502   4.961  19.816  0.00  0.00    +0.000 A 
ATOM     15  C   UNL     1       3.157   3.895  19.235  0.00  0.00    +0.000 A 
ENDBRANCH   5   7
BRANCH   1  16
ATOM     16  C   UNL     1       7.010   4.884  14.317  0.00  0.00    +0.000 C 
BRANCH  16  19
ATOM     17  C   UNL     1       6.472   3.451  12.446  0.00  0.00    +0.000 C 
ATOM     18  O   UNL     1       7.203   4.059  11.681  0.00  0.00    +0.000 OA
ATOM     19  N   UNL     1       6.366   3.711  13.785  0.00  0.00    +0.000 N 
ATOM     20  H   UNL     1       5.608   3.258  14.277  0.00  0.00    +0.000 HD
BRANCH  17  21
ATOM     21  O   UNL     1       5.587   2.488  12.091  0.00  0.00    +0.000 OA
BRANCH  21  23
ATOM     22  C   UNL     1       6.256   0.305  11.378  0.00  0.00    +0.000 C 
ATOM     23  C   UNL     1       5.966   1.727  10.931  0.00  0.00    +0.000 C 
ENDBRANCH  21  23
ENDBRANCH  17  21
ENDBRANCH  16  19
ENDBRANCH   1  16
TORSDOF 5
ENDMDL
MODEL 7
REMARK VINA RESULT:      -7.7      3.809      6.104
REMARK  Name = 
REMARK  6 active torsions:
REMARK  status: ('A' for Active; 'I' for Inactive)
REMARK    1  A    between atoms: C_1  and  C_2
REMARK    2  A    between atoms: C_2  and  O_3
REMARK    3  A    between atoms: O_3  and  C_4
REMARK    4  A    between atoms: N_6  and  C_7
REMARK    5  A    between atoms: C_7  and  C_8
REMARK    6  A    between atoms: C_12  and  N_13
REMARK                            x       y       z     vdW  Elec       q    Type
REMARK                         _______ _______ _______ _____ _____    ______ ____
ROOT
ATOM      1  C   UNL     1       3.629   3.856  19.331  0.00  0.00    +0.000 A 
ATOM      2  C   UNL     1       2.780   3.100  20.128  0.00  0.00    +0.000 A 
ATOM      3  C   UNL     1       1.661   3.713  20.695  0.00  0.00    +0.000 A 
ATOM      4  C   UNL     1       1.386   5.088  20.505  0.00  0.00    +0.000 A 
ATOM      5  C   UNL     1       2.259   5.902  19.781  0.00  0.00    +0.000 A 
ATOM      6  C   UNL     1       3.357   5.222  19.180  0.00  0.00    +0.000 A 
ENDROOT
BRANCH   5   7
ATOM      7  N   UNL     1       2.096   7.269  19.562  0.00  0.00    +0.000 N 
ATOM      8  C   UNL     1       2.732   7.940  18.408  0.00  0.00    +0.000 C 
ATOM      9  C   UNL     1       1.657   8.859  17.840  0.00  0.00    +0.000 C 
ATOM     10  C   UNL     1       1.167   9.370  19.152  0.00  0.00    +0.000 A 
ATOM     11  C   UNL     1       0.669  10.634  19.409  0.00  0.00    +0.000 A 
ATOM     12  C   UNL     1       0.498  10.981  20.743  0.00  0.00    +0.000 A 
ATOM     13  C   UNL     1       0.748  10.034  21.756  0.00  0.00    +0.000 A 
ATOM     14  C   UNL     1       1.177   8.719  21.466  0.00  0.00    +0.000 A 
ATOM     15  C   UNL     1       1.432   8.396  20.149  0.00  0.00    +0.000 A 
ENDBRANCH   5   7
BRANCH   1  16
ATOM     16  C   UNL     1       4.779   3.247  18.576  0.00  0.00    +0.000 C 
BRANCH  16  19
ATOM     17  C   UNL     1       6.507   4.400  17.339  0.00  0.00    +0.000 C 
ATOM     18  O   UNL     1       5.989   4.163  16.259  0.00  0.00    +0.000 OA
ATOM     19  N   UNL     1       5.955   4.077  18.549  0.00  0.00    +0.000 N 
ATOM     20  H   UNL     1       6.552   4.170  19.359  0.00  0.00    +0.000 HD
BRANCH  17  21
ATOM     21  O   UNL     1       7.739   4.935  17.520  0.00  0.00    +0.000 OA
BRANCH  21  23
ATOM     22  C   UNL     1       7.545   7.318  17.563  0.00  0.00    +0.000 C 
ATOM     23  C   UNL     1       7.774   6.072  18.400  0.00  0.00    +0.000 C 
ENDBRANCH  21  23
ENDBRANCH  17  21
ENDBRANCH  16  19
ENDBRANCH   1  16
TORSDOF 5
ENDMDL
MODEL 8
REMARK VINA RESULT:      -7.7      1.156      1.487
REMARK  Name = 
REMARK  6 active torsions:
REMARK  status: ('A' for Active; 'I' for Inactive)
REMARK    1  A    between atoms: C_1  and  C_2
REMARK    2  A    between atoms: C_2  and  O_3
REMARK    3  A    between atoms: O_3  and  C_4
REMARK    4  A    between atoms: N_6  and  C_7
REMARK    5  A    between atoms: C_7  and  C_8
REMARK    6  A    between atoms: C_12  and  N_13
REMARK                            x       y       z     vdW  Elec       q    Type
REMARK                         _______ _______ _______ _____ _____    ______ ____
ROOT
ATOM      1  C   UNL     1       6.199   4.305  14.850  0.00  0.00    +0.000 A 
ATOM      2  C   UNL     1       7.143   5.188  15.356  0.00  0.00    +0.000 A 
ATOM      3  C   UNL     1       7.106   5.514  16.713  0.00  0.00    +0.000 A 
ATOM      4  C   UNL     1       6.116   4.994  17.580  0.00  0.00    +0.000 A 
ATOM      5  C   UNL     1       5.098   4.169  17.095  0.00  0.00    +0.000 A 
ATOM      6  C   UNL     1       5.208   3.824  15.717  0.00  0.00    +0.000 A 
ENDROOT
BRANCH   5   7
ATOM      7  N   UNL     1       4.062   3.631  17.857  0.00  0.00    +0.000 N 
ATOM      8  C   UNL     1       3.396   2.371  17.460  0.00  0.00    +0.000 C 
ATOM      9  C   UNL     1       3.259   1.571  18.750  0.00  0.00    +0.000 C 
ATOM     10  C   UNL     1       2.821   2.711  19.605  0.00  0.00    +0.000 A 
ATOM     11  C   UNL     1       1.948   2.649  20.676  0.00  0.00    +0.000 A 
ATOM     12  C   UNL     1       1.487   3.858  21.180  0.00  0.00    +0.000 A 
ATOM     13  C   UNL     1       1.974   5.072  20.656  0.00  0.00    +0.000 A 
ATOM     14  C   UNL     1       2.930   5.112  19.616  0.00  0.00    +0.000 A 
ATOM     15  C   UNL     1       3.326   3.916  19.053  0.00  0.00    +0.000 A 
ENDBRANCH   5   7
BRANCH   1  16
ATOM     16  C   UNL     1       6.247   3.797  13.435  0.00  0.00    +0.000 C 
BRANCH  16  19
ATOM     17  C   UNL     1       4.758   2.906  11.752  0.00  0.00    +0.000 C 
ATOM     18  O   UNL     1       5.539   2.023  11.431  0.00  0.00    +0.000 OA
ATOM     19  N   UNL     1       4.962   3.779  12.785  0.00  0.00    +0.000 N 
ATOM     20  H   UNL     1       4.331   4.566  12.845  0.00  0.00    +0.000 HD
BRANCH  17  21
ATOM     21  O   UNL     1       3.616   3.224  11.096  0.00  0.00    +0.000 OA
BRANCH  21  23
ATOM     22  C   UNL     1       2.454   4.442   9.397  0.00  0.00    +0.000 C 
ATOM     23  C   UNL     1       3.813   3.965   9.879  0.00  0.00    +0.000 C 
ENDBRANCH  21  23
ENDBRANCH  17  21
ENDBRANCH  16  19
ENDBRANCH   1  16
TORSDOF 5
ENDMDL
MODEL 9
REMARK VINA RESULT:      -7.7      4.237      6.152
REMARK  Name = 
REMARK  6 active torsions:
REMARK  status: ('A' for Active; 'I' for Inactive)
REMARK    1  A    between atoms: C_1  and  C_2
REMARK    2  A    between atoms: C_2  and  O_3
REMARK    3  A    between atoms: O_3  and  C_4
REMARK    4  A    between atoms: N_6  and  C_7
REMARK    5  A    between atoms: C_7  and  C_8
REMARK    6  A    between atoms: C_12  and  N_13
REMARK                            x       y       z     vdW  Elec       q    Type
REMARK                         _______ _______ _______ _____ _____    ______ ____
ROOT
ATOM      1  C   UNL     1       4.013   4.133  18.723  0.00  0.00    +0.000 A 
ATOM      2  C   UNL     1       3.081   3.300  18.120  0.00  0.00    +0.000 A 
ATOM      3  C   UNL     1       1.860   3.838  17.705  0.00  0.00    +0.000 A 
ATOM      4  C   UNL     1       1.538   5.201  17.908  0.00  0.00    +0.000 A 
ATOM      5  C   UNL     1       2.412   6.054  18.585  0.00  0.00    +0.000 A 
ATOM      6  C   UNL     1       3.663   5.473  18.943  0.00  0.00    +0.000 A 
ENDROOT
BRANCH   5   7
ATOM      7  N   UNL     1       2.177   7.399  18.862  0.00  0.00    +0.000 N 
ATOM      8  C   UNL     1       2.636   8.461  17.941  0.00  0.00    +0.000 C 
ATOM      9  C   UNL     1       1.467   9.433  17.840  0.00  0.00    +0.000 C 
ATOM     10  C   UNL     1       1.132   9.441  19.293  0.00  0.00    +0.000 A 
ATOM     11  C   UNL     1       0.630  10.506  20.017  0.00  0.00    +0.000 A 
ATOM     12  C   UNL     1       0.620  10.377  21.399  0.00  0.00    +0.000 A 
ATOM     13  C   UNL     1       1.030   9.168  21.997  0.00  0.00    +0.000 A 
ATOM     14  C   UNL     1       1.462   8.060  21.233  0.00  0.00    +0.000 A 
ATOM     15  C   UNL     1       1.556   8.214  19.865  0.00  0.00    +0.000 A 
ENDBRANCH   5   7
BRANCH   1  16
ATOM     16  C   UNL     1       5.399   3.669  19.078  0.00  0.00    +0.000 C 
BRANCH  16  19
ATOM     17  C   UNL     1       7.250   5.201  18.818  0.00  0.00    +0.000 C 
ATOM     18  O   UNL     1       7.274   5.482  20.006  0.00  0.00    +0.000 OA
ATOM     19  N   UNL     1       6.430   4.257  18.264  0.00  0.00    +0.000 N 
ATOM     20  H   UNL     1       6.380   4.236  17.254  0.00  0.00    +0.000 HD
BRANCH  17  21
ATOM     21  O   UNL     1       7.955   5.831  17.846  0.00  0.00    +0.000 OA
BRANCH  21  23
ATOM     22  C   UNL     1       7.897   8.220  17.741  0.00  0.00    +0.000 C 
ATOM     23  C   UNL     1       7.269   6.934  17.230  0.00  0.00    +0.000 C 
ENDBRANCH  21  23
ENDBRANCH  17  21
ENDBRANCH  16  19
ENDBRANCH   1  16
TORSDOF 5
ENDMDL
