MODEL 1
REMARK VINA RESULT:      -8.5      0.000      0.000
REMARK  Name = 
REMARK  5 active torsions:
REMARK  status: ('A' for Active; 'I' for Inactive)
REMARK    1  A    between atoms: C_1  and  C_2
REMARK    2  A    between atoms: C_6  and  C_7
REMARK    3  A    between atoms: N_9  and  C_10
REMARK    4  A    between atoms: N_19  and  C_20
REMARK    5  A    between atoms: C_20  and  C_21
REMARK                            x       y       z     vdW  Elec       q    Type
REMARK                         _______ _______ _______ _____ _____    ______ ____
ROOT
ATOM      1  C   UNL     1       3.152   3.034  19.244  0.00  0.00    +0.000 C 
ATOM      2  C   UNL     1       2.675   4.439  19.494  0.00  0.00    +0.000 A 
ATOM      3  C   UNL     1       1.903   4.630  20.575  0.00  0.00    +0.000 A 
ATOM      4  F   UNL     1       1.551   3.604  21.379  0.00  0.00    +0.000 F 
ATOM      5  C   UNL     1       1.435   5.918  20.954  0.00  0.00    +0.000 A 
ATOM      6  C   UNL     1       1.759   7.004  20.241  0.00  0.00    +0.000 A 
ATOM      7  C   UNL     1       2.598   6.844  19.005  0.00  0.00    +0.000 A 
ATOM      8  O   UNL     1       2.883   7.856  18.350  0.00  0.00    +0.000 OA
ATOM      9  N   UNL     1       3.030   5.544  18.667  0.00  0.00    +0.000 N 
ENDROOT
BRANCH   6  10
ATOM     10  C   UNL     1       1.255   8.295  20.802  0.00  0.00    +0.000 C 
ATOM     11  O   UNL     1       1.267   8.517  22.012  0.00  0.00    +0.000 OA
ATOM     12  N   UNL     1       0.806   9.216  19.898  0.00  0.00    +0.000 N 
ATOM     13  H   UNL     1       0.753   8.941  18.916  0.00  0.00    +0.000 HD
BRANCH  12  14
ATOM     14  C   UNL     1       0.273  10.511  20.313  0.00  0.00    +0.000 C 
ATOM     15  C   UNL     1       1.376  11.568  20.254  0.00  0.00    +0.000 C 
ATOM     16  C   UNL     1       1.694  12.043  18.839  0.00  0.00    +0.000 C 
ATOM     17  C   UNL     1       0.863  13.254  18.425  0.00  0.00    +0.000 C 
ATOM     18  C   UNL     1      -0.631  13.000  18.239  0.00  0.00    +0.000 C 
ATOM     19  C   UNL     1      -1.344  12.324  19.411  0.00  0.00    +0.000 C 
ATOM     20  C   UNL     1      -1.007  10.838  19.527  0.00  0.00    +0.000 C 
ENDBRANCH  12  14
ENDBRANCH   6  10
BRANCH   9  21
ATOM     21  C   UNL     1       3.865   5.413  17.458  0.00  0.00    +0.000 C 
BRANCH  21  22
ATOM     22  C   UNL     1       5.320   5.794  17.682  0.00  0.00    +0.000 A 
ATOM     23  C   UNL     1       6.073   5.194  18.709  0.00  0.00    +0.000 A 
ATOM     24  C   UNL     1       7.293   5.746  19.108  0.00  0.00    +0.000 A 
ATOM     25  C   UNL     1       7.795   6.851  18.434  0.00  0.00    +0.000 A 
ATOM     26  F   UNL     1       8.894   7.464  18.892  0.00  0.00    +0.000 F 
ATOM     27  C   UNL     1       7.147   7.355  17.315  0.00  0.00    +0.000 A 
ATOM     28  C   UNL     1       5.911   6.824  16.936  0.00  0.00    +0.000 A 
ENDBRANCH  21  22
ENDBRANCH   9  21
TORSDOF 4
ENDMDL
MODEL 2
REMARK VINA RESULT:      -8.2      3.538      8.694
REMARK  Name = 
REMARK  5 active torsions:
REMARK  status: ('A' for Active; 'I' for Inactive)
REMARK    1  A    between atoms: C_1  and  C_2
REMARK    2  A    between atoms: C_6  and  C_7
REMARK    3  A    between atoms: N_9  and  C_10
REMARK    4  A    between atoms: N_19  and  C_20
REMARK    5  A    between atoms: C_20  and  C_21
REMARK                            x       y       z     vdW  Elec       q    Type
REMARK                         _______ _______ _______ _____ _____    ______ ____
ROOT
ATOM      1  C   UNL     1      -1.334  11.583  22.936  0.00  0.00    +0.000 C 
ATOM      2  C   UNL     1      -0.477  10.757  22.017  0.00  0.00    +0.000 A 
ATOM      3  C   UNL     1       0.117   9.680  22.553  0.00  0.00    +0.000 A 
ATOM      4  F   UNL     1      -0.026   9.373  23.860  0.00  0.00    +0.000 F 
ATOM      5  C   UNL     1       0.907   8.785  21.779  0.00  0.00    +0.000 A 
ATOM      6  C   UNL     1       1.082   8.984  20.466  0.00  0.00    +0.000 A 
ATOM      7  C   UNL     1       0.461  10.190  19.820  0.00  0.00    +0.000 A 
ATOM      8  O   UNL     1       0.638  10.365  18.606  0.00  0.00    +0.000 OA
ATOM      9  N   UNL     1      -0.305  11.052  20.633  0.00  0.00    +0.000 N 
ENDROOT
BRANCH   6  10
ATOM     10  C   UNL     1       1.874   7.922  19.773  0.00  0.00    +0.000 C 
ATOM     11  O   UNL     1       2.479   8.152  18.727  0.00  0.00    +0.000 OA
ATOM     12  N   UNL     1       1.904   6.697  20.377  0.00  0.00    +0.000 N 
ATOM     13  H   UNL     1       1.320   6.551  21.201  0.00  0.00    +0.000 HD
BRANCH  12  14
ATOM     14  C   UNL     1       2.627   5.567  19.798  0.00  0.00    +0.000 C 
ATOM     15  C   UNL     1       2.664   4.410  20.795  0.00  0.00    +0.000 C 
ATOM     16  C   UNL     1       1.348   3.643  20.894  0.00  0.00    +0.000 C 
ATOM     17  C   UNL     1       1.278   2.468  19.922  0.00  0.00    +0.000 C 
ATOM     18  C   UNL     1       1.206   2.836  18.442  0.00  0.00    +0.000 C 
ATOM     19  C   UNL     1       2.288   3.793  17.939  0.00  0.00    +0.000 C 
ATOM     20  C   UNL     1       2.064   5.231  18.407  0.00  0.00    +0.000 C 
ENDBRANCH  12  14
ENDBRANCH   6  10
BRANCH   9  21
ATOM     21  C   UNL     1      -0.916  12.221  19.974  0.00  0.00    +0.000 C 
BRANCH  21  22
ATOM     22  C   UNL     1      -2.337  11.971  19.491  0.00  0.00    +0.000 A 
ATOM     23  C   UNL     1      -2.579  11.275  18.292  0.00  0.00    +0.000 A 
ATOM     24  C   UNL     1      -3.844  11.305  17.699  0.00  0.00    +0.000 A 
ATOM     25  C   UNL     1      -4.882  11.967  18.339  0.00  0.00    +0.000 A 
ATOM     26  F   UNL     1      -6.060  12.112  17.718  0.00  0.00    +0.000 F 
ATOM     27  C   UNL     1      -4.703  12.518  19.600  0.00  0.00    +0.000 A 
ATOM     28  C   UNL     1      -3.431  12.517  20.178  0.00  0.00    +0.000 A 
ENDBRANCH  21  22
ENDBRANCH   9  21
TORSDOF 4
ENDMDL
MODEL 3
REMARK VINA RESULT:      -8.1      2.798      8.037
REMARK  Name = 
REMARK  5 active torsions:
REMARK  status: ('A' for Active; 'I' for Inactive)
REMARK    1  A    between atoms: C_1  and  C_2
REMARK    2  A    between atoms: C_6  and  C_7
REMARK    3  A    between atoms: N_9  and  C_10
REMARK    4  A    between atoms: N_19  and  C_20
REMARK    5  A    between atoms: C_20  and  C_21
REMARK                            x       y       z     vdW  Elec       q    Type
REMARK                         _______ _______ _______ _____ _____    ______ ____
ROOT
ATOM      1  C   UNL     1      -0.259  11.255  21.621  0.00  0.00    +0.000 C 
ATOM      2  C   UNL     1       0.480  10.107  20.991  0.00  0.00    +0.000 A 
ATOM      3  C   UNL     1       0.855   9.110  21.807  0.00  0.00    +0.000 A 
ATOM      4  F   UNL     1       0.605   9.154  23.133  0.00  0.00    +0.000 F 
ATOM      5  C   UNL     1       1.511   7.942  21.328  0.00  0.00    +0.000 A 
ATOM      6  C   UNL     1       1.773   7.789  20.024  0.00  0.00    +0.000 A 
ATOM      7  C   UNL     1       1.399   8.886  19.068  0.00  0.00    +0.000 A 
ATOM      8  O   UNL     1       1.655   8.734  17.866  0.00  0.00    +0.000 OA
ATOM      9  N   UNL     1       0.759  10.028  19.595  0.00  0.00    +0.000 N 
ENDROOT
BRANCH   6  10
ATOM     10  C   UNL     1       2.398   6.480  19.661  0.00  0.00    +0.000 C 
ATOM     11  O   UNL     1       1.864   5.411  19.953  0.00  0.00    +0.000 OA
ATOM     12  N   UNL     1       3.576   6.541  18.971  0.00  0.00    +0.000 N 
ATOM     13  H   UNL     1       4.004   7.457  18.827  0.00  0.00    +0.000 HD
BRANCH  12  14
ATOM     14  C   UNL     1       4.299   5.337  18.570  0.00  0.00    +0.000 C 
ATOM     15  C   UNL     1       4.119   5.101  17.070  0.00  0.00    +0.000 C 
ATOM     16  C   UNL     1       4.970   6.021  16.198  0.00  0.00    +0.000 C 
ATOM     17  C   UNL     1       6.335   5.422  15.870  0.00  0.00    +0.000 C 
ATOM     18  C   UNL     1       7.298   5.285  17.046  0.00  0.00    +0.000 C 
ATOM     19  C   UNL     1       6.753   4.554  18.274  0.00  0.00    +0.000 C 
ATOM     20  C   UNL     1       5.754   5.399  19.066  0.00  0.00    +0.000 C 
ENDBRANCH  12  14
ENDBRANCH   6  10
BRANCH   9  21
ATOM     21  C   UNL     1       0.388  11.086  18.636  0.00  0.00    +0.000 C 
BRANCH  21  22
ATOM     22  C   UNL     1      -1.071  11.033  18.210  0.00  0.00    +0.000 A 
ATOM     23  C   UNL     1      -1.999  11.972  18.698  0.00  0.00    +0.000 A 
ATOM     24  C   UNL     1      -3.372  11.751  18.554  0.00  0.00    +0.000 A 
ATOM     25  C   UNL     1      -3.814  10.633  17.860  0.00  0.00    +0.000 A 
ATOM     26  F   UNL     1      -5.122  10.345  17.830  0.00  0.00    +0.000 F 
ATOM     27  C   UNL     1      -2.913   9.785  17.231  0.00  0.00    +0.000 A 
ATOM     28  C   UNL     1      -1.541   9.987  17.403  0.00  0.00    +0.000 A 
ENDBRANCH  21  22
ENDBRANCH   9  21
TORSDOF 4
ENDMDL
MODEL 4
REMARK VINA RESULT:      -8.0      3.453      8.481
REMARK  Name = 
REMARK  5 active torsions:
REMARK  status: ('A' for Active; 'I' for Inactive)
REMARK    1  A    between atoms: C_1  and  C_2
REMARK    2  A    between atoms: C_6  and  C_7
REMARK    3  A    between atoms: N_9  and  C_10
REMARK    4  A    between atoms: N_19  and  C_20
REMARK    5  A    between atoms: C_20  and  C_21
REMARK                            x       y       z     vdW  Elec       q    Type
REMARK                         _______ _______ _______ _____ _____    ______ ____
ROOT
ATOM      1  C   UNL     1      -1.109  11.445  22.582  0.00  0.00    +0.000 C 
ATOM      2  C   UNL     1      -0.249  10.607  21.676  0.00  0.00    +0.000 A 
ATOM      3  C   UNL     1       0.255   9.478  22.198  0.00  0.00    +0.000 A 
ATOM      4  F   UNL     1       0.021   9.130  23.481  0.00  0.00    +0.000 F 
ATOM      5  C   UNL     1       1.036   8.570  21.431  0.00  0.00    +0.000 A 
ATOM      6  C   UNL     1       1.294   8.809  20.138  0.00  0.00    +0.000 A 
ATOM      7  C   UNL     1       0.778  10.073  19.510  0.00  0.00    +0.000 A 
ATOM      8  O   UNL     1       1.031  10.284  18.317  0.00  0.00    +0.000 OA
ATOM      9  N   UNL     1       0.015  10.944  20.317  0.00  0.00    +0.000 N 
ENDROOT
BRANCH   6  10
ATOM     10  C   UNL     1       2.064   7.731  19.445  0.00  0.00    +0.000 C 
ATOM     11  O   UNL     1       2.794   7.979  18.486  0.00  0.00    +0.000 OA
ATOM     12  N   UNL     1       1.930   6.469  19.951  0.00  0.00    +0.000 N 
ATOM     13  H   UNL     1       1.251   6.319  20.699  0.00  0.00    +0.000 HD
BRANCH  12  14
ATOM     14  C   UNL     1       2.614   5.322  19.358  0.00  0.00    +0.000 C 
ATOM     15  C   UNL     1       2.919   4.286  20.440  0.00  0.00    +0.000 C 
ATOM     16  C   UNL     1       1.703   3.466  20.864  0.00  0.00    +0.000 C 
ATOM     17  C   UNL     1       1.541   2.189  20.044  0.00  0.00    +0.000 C 
ATOM     18  C   UNL     1       1.170   2.386  18.576  0.00  0.00    +0.000 C 
ATOM     19  C   UNL     1       2.067   3.337  17.783  0.00  0.00    +0.000 C 
ATOM     20  C   UNL     1       1.829   4.804  18.141  0.00  0.00    +0.000 C 
ENDBRANCH  12  14
ENDBRANCH   6  10
BRANCH   9  21
ATOM     21  C   UNL     1      -0.493  12.172  19.675  0.00  0.00    +0.000 C 
BRANCH  21  22
ATOM     22  C   UNL     1      -1.880  12.010  19.074  0.00  0.00    +0.000 A 
ATOM     23  C   UNL     1      -3.019  12.491  19.747  0.00  0.00    +0.000 A 
ATOM     24  C   UNL     1      -4.298  12.086  19.354  0.00  0.00    +0.000 A 
ATOM     25  C   UNL     1      -4.442  11.261  18.247  0.00  0.00    +0.000 A 
ATOM     26  F   UNL     1      -5.648  10.764  17.944  0.00  0.00    +0.000 F 
ATOM     27  C   UNL     1      -3.344  10.911  17.474  0.00  0.00    +0.000 A 
ATOM     28  C   UNL     1      -2.063  11.288  17.885  0.00  0.00    +0.000 A 
ENDBRANCH  21  22
ENDBRANCH   9  21
TORSDOF 4
ENDMDL
MODEL 5
REMARK VINA RESULT:      -8.0      2.942      8.400
REMARK  Name = 
REMARK  5 active torsions:
REMARK  status: ('A' for Active; 'I' for Inactive)
REMARK    1  A    between atoms: C_1  and  C_2
REMARK    2  A    between atoms: C_6  and  C_7
REMARK    3  A    between atoms: N_9  and  C_10
REMARK    4  A    between atoms: N_19  and  C_20
REMARK    5  A    between atoms: C_20  and  C_21
REMARK                            x       y       z     vdW  Elec       q    Type
REMARK                         _______ _______ _______ _____ _____    ______ ____
ROOT
ATOM      1  C   UNL     1      -0.408  10.633  21.704  0.00  0.00    +0.000 C 
ATOM      2  C   UNL     1       0.442   9.856  20.738  0.00  0.00    +0.000 A 
ATOM      3  C   UNL     1       1.090   8.788  21.229  0.00  0.00    +0.000 A 
ATOM      4  F   UNL     1       1.002   8.449  22.533  0.00  0.00    +0.000 F 
ATOM      5  C   UNL     1       1.881   7.937  20.408  0.00  0.00    +0.000 A 
ATOM      6  C   UNL     1       2.003   8.168  19.095  0.00  0.00    +0.000 A 
ATOM      7  C   UNL     1       1.321   9.366  18.497  0.00  0.00    +0.000 A 
ATOM      8  O   UNL     1       1.450   9.573  17.283  0.00  0.00    +0.000 OA
ATOM      9  N   UNL     1       0.556  10.185  19.355  0.00  0.00    +0.000 N 
ENDROOT
BRANCH   6  10
ATOM     10  C   UNL     1       2.805   7.148  18.352  0.00  0.00    +0.000 C 
ATOM     11  O   UNL     1       3.792   7.465  17.690  0.00  0.00    +0.000 OA
ATOM     12  N   UNL     1       2.394   5.851  18.470  0.00  0.00    +0.000 N 
ATOM     13  H   UNL     1       1.524   5.664  18.971  0.00  0.00    +0.000 HD
BRANCH  12  14
ATOM     14  C   UNL     1       3.078   4.758  17.783  0.00  0.00    +0.000 C 
ATOM     15  C   UNL     1       4.400   4.452  18.486  0.00  0.00    +0.000 C 
ATOM     16  C   UNL     1       4.238   3.665  19.783  0.00  0.00    +0.000 C 
ATOM     17  C   UNL     1       4.297   2.155  19.566  0.00  0.00    +0.000 C 
ATOM     18  C   UNL     1       3.127   1.550  18.795  0.00  0.00    +0.000 C 
ATOM     19  C   UNL     1       2.805   2.202  17.449  0.00  0.00    +0.000 C 
ATOM     20  C   UNL     1       2.127   3.563  17.602  0.00  0.00    +0.000 C 
ENDBRANCH  12  14
ENDBRANCH   6  10
BRANCH   9  21
ATOM     21  C   UNL     1      -0.116  11.347  18.743  0.00  0.00    +0.000 C 
BRANCH  21  22
ATOM     22  C   UNL     1      -1.587  11.106  18.443  0.00  0.00    +0.000 A 
ATOM     23  C   UNL     1      -1.981  10.171  17.468  0.00  0.00    +0.000 A 
ATOM     24  C   UNL     1      -3.291  10.164  16.981  0.00  0.00    +0.000 A 
ATOM     25  C   UNL     1      -4.223  11.040  17.520  0.00  0.00    +0.000 A 
ATOM     26  F   UNL     1      -5.442  11.131  16.972  0.00  0.00    +0.000 F 
ATOM     27  C   UNL     1      -3.896  11.855  18.594  0.00  0.00    +0.000 A 
ATOM     28  C   UNL     1      -2.578  11.886  19.058  0.00  0.00    +0.000 A 
ENDBRANCH  21  22
ENDBRANCH   9  21
TORSDOF 4
ENDMDL
MODEL 6
REMARK VINA RESULT:      -7.8      3.134      8.241
REMARK  Name = 
REMARK  5 active torsions:
REMARK  status: ('A' for Active; 'I' for Inactive)
REMARK    1  A    between atoms: C_1  and  C_2
REMARK    2  A    between atoms: C_6  and  C_7
REMARK    3  A    between atoms: N_9  and  C_10
REMARK    4  A    between atoms: N_19  and  C_20
REMARK    5  A    between atoms: C_20  and  C_21
REMARK                            x       y       z     vdW  Elec       q    Type
REMARK                         _______ _______ _______ _____ _____    ______ ____
ROOT
ATOM      1  C   UNL     1      -0.853  11.430  22.003  0.00  0.00    +0.000 C 
ATOM      2  C   UNL     1      -0.005  10.394  21.319  0.00  0.00    +0.000 A 
ATOM      3  C   UNL     1       0.503   9.423  22.094  0.00  0.00    +0.000 A 
ATOM      4  F   UNL     1       0.285   9.399  23.426  0.00  0.00    +0.000 F 
ATOM      5  C   UNL     1       1.274   8.353  21.562  0.00  0.00    +0.000 A 
ATOM      6  C   UNL     1       1.518   8.269  20.248  0.00  0.00    +0.000 A 
ATOM      7  C   UNL     1       0.995   9.344  19.337  0.00  0.00    +0.000 A 
ATOM      8  O   UNL     1       1.235   9.258  18.125  0.00  0.00    +0.000 OA
ATOM      9  N   UNL     1       0.244  10.389  19.915  0.00  0.00    +0.000 N 
ENDROOT
BRANCH   6  10
ATOM     10  C   UNL     1       2.278   7.052  19.829  0.00  0.00    +0.000 C 
ATOM     11  O   UNL     1       3.035   7.070  18.860  0.00  0.00    +0.000 OA
ATOM     12  N   UNL     1       2.102   5.934  20.595  0.00  0.00    +0.000 N 
ATOM     13  H   UNL     1       1.404   5.964  21.339  0.00  0.00    +0.000 HD
BRANCH  12  14
ATOM     14  C   UNL     1       2.773   4.673  20.287  0.00  0.00    +0.000 C 
ATOM     15  C   UNL     1       1.800   3.730  19.578  0.00  0.00    +0.000 C 
ATOM     16  C   UNL     1       1.568   4.078  18.110  0.00  0.00    +0.000 C 
ATOM     17  C   UNL     1       2.542   3.366  17.176  0.00  0.00    +0.000 C 
ATOM     18  C   UNL     1       4.001   3.806  17.277  0.00  0.00    +0.000 C 
ATOM     19  C   UNL     1       4.606   3.791  18.682  0.00  0.00    +0.000 C 
ATOM     20  C   UNL     1       4.098   4.939  19.554  0.00  0.00    +0.000 C 
ENDBRANCH  12  14
ENDBRANCH   6  10
BRANCH   9  21
ATOM     21  C   UNL     1      -0.271  11.425  19.000  0.00  0.00    +0.000 C 
BRANCH  21  22
ATOM     22  C   UNL     1      -1.687  11.156  18.516  0.00  0.00    +0.000 A 
ATOM     23  C   UNL     1      -1.930  10.257  17.461  0.00  0.00    +0.000 A 
ATOM     24  C   UNL     1      -3.173  10.235  16.821  0.00  0.00    +0.000 A 
ATOM     25  C   UNL     1      -4.192  11.057  17.283  0.00  0.00    +0.000 A 
ATOM     26  F   UNL     1      -5.340  11.137  16.597  0.00  0.00    +0.000 F 
ATOM     27  C   UNL     1      -4.022  11.828  18.423  0.00  0.00    +0.000 A 
ATOM     28  C   UNL     1      -2.770  11.876  19.042  0.00  0.00    +0.000 A 
ENDBRANCH  21  22
ENDBRANCH   9  21
TORSDOF 4
ENDMDL
MODEL 7
REMARK VINA RESULT:      -7.7      3.109      8.202
REMARK  Name = 
REMARK  5 active torsions:
REMARK  status: ('A' for Active; 'I' for Inactive)
REMARK    1  A    between atoms: C_1  and  C_2
REMARK    2  A    between atoms: C_6  and  C_7
REMARK    3  A    between atoms: N_9  and  C_10
REMARK    4  A    between atoms: N_19  and  C_20
REMARK    5  A    between atoms: C_20  and  C_21
REMARK                            x       y       z     vdW  Elec       q    Type
REMARK                         _______ _______ _______ _____ _____    ______ ____
ROOT
ATOM      1  C   UNL     1      -0.752  11.450  22.005  0.00  0.00    +0.000 C 
ATOM      2  C   UNL     1       0.080  10.408  21.312  0.00  0.00    +0.000 A 
ATOM      3  C   UNL     1       0.524   9.390  22.066  0.00  0.00    +0.000 A 
ATOM      4  F   UNL     1       0.258   9.326  23.388  0.00  0.00    +0.000 F 
ATOM      5  C   UNL     1       1.273   8.311  21.520  0.00  0.00    +0.000 A 
ATOM      6  C   UNL     1       1.560   8.267  20.213  0.00  0.00    +0.000 A 
ATOM      7  C   UNL     1       1.111   9.394  19.326  0.00  0.00    +0.000 A 
ATOM      8  O   UNL     1       1.390   9.343  18.121  0.00  0.00    +0.000 OA
ATOM      9  N   UNL     1       0.378  10.445  19.918  0.00  0.00    +0.000 N 
ENDROOT
BRANCH   6  10
ATOM     10  C   UNL     1       2.289   7.037  19.774  0.00  0.00    +0.000 C 
ATOM     11  O   UNL     1       2.951   7.019  18.738  0.00  0.00    +0.000 OA
ATOM     12  N   UNL     1       2.196   5.951  20.598  0.00  0.00    +0.000 N 
ATOM     13  H   UNL     1       1.570   6.008  21.403  0.00  0.00    +0.000 HD
BRANCH  12  14
ATOM     14  C   UNL     1       2.846   4.682  20.280  0.00  0.00    +0.000 C 
ATOM     15  C   UNL     1       1.844   3.740  19.613  0.00  0.00    +0.000 C 
ATOM     16  C   UNL     1       1.565   4.077  18.151  0.00  0.00    +0.000 C 
ATOM     17  C   UNL     1       2.502   3.347  17.192  0.00  0.00    +0.000 C 
ATOM     18  C   UNL     1       3.966   3.778  17.240  0.00  0.00    +0.000 C 
ATOM     19  C   UNL     1       4.619   3.771  18.623  0.00  0.00    +0.000 C 
ATOM     20  C   UNL     1       4.148   4.931  19.501  0.00  0.00    +0.000 C 
ENDBRANCH  12  14
ENDBRANCH   6  10
BRANCH   9  21
ATOM     21  C   UNL     1      -0.064  11.533  19.026  0.00  0.00    +0.000 C 
BRANCH  21  22
ATOM     22  C   UNL     1      -1.495  11.371  18.537  0.00  0.00    +0.000 A 
ATOM     23  C   UNL     1      -2.522  12.203  19.021  0.00  0.00    +0.000 A 
ATOM     24  C   UNL     1      -3.863  11.869  18.810  0.00  0.00    +0.000 A 
ATOM     25  C   UNL     1      -4.176  10.747  18.055  0.00  0.00    +0.000 A 
ATOM     26  F   UNL     1      -5.451  10.348  17.958  0.00  0.00    +0.000 F 
ATOM     27  C   UNL     1      -3.179  10.009  17.433  0.00  0.00    +0.000 A 
ATOM     28  C   UNL     1      -1.838  10.322  17.671  0.00  0.00    +0.000 A 
ENDBRANCH  21  22
ENDBRANCH   9  21
TORSDOF 4
ENDMDL
MODEL 8
REMARK VINA RESULT:      -7.7      3.455      8.163
REMARK  Name = 
REMARK  5 active torsions:
REMARK  status: ('A' for Active; 'I' for Inactive)
REMARK    1  A    between atoms: C_1  and  C_2
REMARK    2  A    between atoms: C_6  and  C_7
REMARK    3  A    between atoms: N_9  and  C_10
REMARK    4  A    between atoms: N_19  and  C_20
REMARK    5  A    between atoms: C_20  and  C_21
REMARK                            x       y       z     vdW  Elec       q    Type
REMARK                         _______ _______ _______ _____ _____    ______ ____
ROOT
ATOM      1  C   UNL     1      -1.295  11.487  22.811  0.00  0.00    +0.000 C 
ATOM      2  C   UNL     1      -0.454  10.632  21.902  0.00  0.00    +0.000 A 
ATOM      3  C   UNL     1       0.305   9.694  22.489  0.00  0.00    +0.000 A 
ATOM      4  F   UNL     1       0.331   9.547  23.831  0.00  0.00    +0.000 F 
ATOM      5  C   UNL     1       1.101   8.784  21.740  0.00  0.00    +0.000 A 
ATOM      6  C   UNL     1       1.117   8.827  20.402  0.00  0.00    +0.000 A 
ATOM      7  C   UNL     1       0.307   9.875  19.693  0.00  0.00    +0.000 A 
ATOM      8  O   UNL     1       0.337   9.908  18.456  0.00  0.00    +0.000 OA
ATOM      9  N   UNL     1      -0.460  10.759  20.483  0.00  0.00    +0.000 N 
ENDROOT
BRANCH   6  10
ATOM     10  C   UNL     1       1.942   7.763  19.752  0.00  0.00    +0.000 C 
ATOM     11  O   UNL     1       2.643   8.004  18.771  0.00  0.00    +0.000 OA
ATOM     12  N   UNL     1       1.890   6.522  20.322  0.00  0.00    +0.000 N 
ATOM     13  H   UNL     1       1.231   6.370  21.087  0.00  0.00    +0.000 HD
BRANCH  12  14
ATOM     14  C   UNL     1       2.635   5.389  19.777  0.00  0.00    +0.000 C 
ATOM     15  C   UNL     1       2.702   4.268  20.814  0.00  0.00    +0.000 C 
ATOM     16  C   UNL     1       1.403   3.476  20.946  0.00  0.00    +0.000 C 
ATOM     17  C   UNL     1       1.354   2.268  20.015  0.00  0.00    +0.000 C 
ATOM     18  C   UNL     1       1.267   2.583  18.524  0.00  0.00    +0.000 C 
ATOM     19  C   UNL     1       2.325   3.546  17.982  0.00  0.00    +0.000 C 
ATOM     20  C   UNL     1       2.073   4.994  18.402  0.00  0.00    +0.000 C 
ENDBRANCH  12  14
ENDBRANCH   6  10
BRANCH   9  21
ATOM     21  C   UNL     1      -1.257  11.771  19.765  0.00  0.00    +0.000 C 
BRANCH  21  22
ATOM     22  C   UNL     1      -0.605  13.145  19.731  0.00  0.00    +0.000 A 
ATOM     23  C   UNL     1      -1.281  14.277  20.222  0.00  0.00    +0.000 A 
ATOM     24  C   UNL     1      -0.819  15.562  19.923  0.00  0.00    +0.000 A 
ATOM     25  C   UNL     1       0.354  15.714  19.197  0.00  0.00    +0.000 A 
ATOM     26  F   UNL     1       0.732  16.935  18.795  0.00  0.00    +0.000 F 
ATOM     27  C   UNL     1       1.121  14.612  18.847  0.00  0.00    +0.000 A 
ATOM     28  C   UNL     1       0.643  13.327  19.117  0.00  0.00    +0.000 A 
ENDBRANCH  21  22
ENDBRANCH   9  21
TORSDOF 4
ENDMDL
MODEL 9
REMARK VINA RESULT:      -7.7      2.716      7.382
REMARK  Name = 
REMARK  5 active torsions:
REMARK  status: ('A' for Active; 'I' for Inactive)
REMARK    1  A    between atoms: C_1  and  C_2
REMARK    2  A    between atoms: C_6  and  C_7
REMARK    3  A    between atoms: N_9  and  C_10
REMARK    4  A    between atoms: N_19  and  C_20
REMARK    5  A    between atoms: C_20  and  C_21
REMARK                            x       y       z     vdW  Elec       q    Type
REMARK                         _______ _______ _______ _____ _____    ______ ____
ROOT
ATOM      1  C   UNL     1      -0.479  11.479  21.873  0.00  0.00    +0.000 C 
ATOM      2  C   UNL     1       0.281  10.388  21.172  0.00  0.00    +0.000 A 
ATOM      3  C   UNL     1       0.728   9.378  21.935  0.00  0.00    +0.000 A 
ATOM      4  F   UNL     1       0.528   9.363  23.270  0.00  0.00    +0.000 F 
ATOM      5  C   UNL     1       1.411   8.258  21.386  0.00  0.00    +0.000 A 
ATOM      6  C   UNL     1       1.628   8.164  20.068  0.00  0.00    +0.000 A 
ATOM      7  C   UNL     1       1.172   9.279  19.170  0.00  0.00    +0.000 A 
ATOM      8  O   UNL     1       1.387   9.182  17.954  0.00  0.00    +0.000 OA
ATOM      9  N   UNL     1       0.508  10.373  19.765  0.00  0.00    +0.000 N 
ENDROOT
BRANCH   6  10
ATOM     10  C   UNL     1       2.292   6.897  19.632  0.00  0.00    +0.000 C 
ATOM     11  O   UNL     1       1.962   5.807  20.098  0.00  0.00    +0.000 OA
ATOM     12  N   UNL     1       3.260   7.017  18.676  0.00  0.00    +0.000 N 
ATOM     13  H   UNL     1       3.538   7.956  18.386  0.00  0.00    +0.000 HD
BRANCH  12  14
ATOM     14  C   UNL     1       3.998   5.861  18.173  0.00  0.00    +0.000 C 
ATOM     15  C   UNL     1       4.646   6.204  16.832  0.00  0.00    +0.000 C 
ATOM     16  C   UNL     1       5.897   7.070  16.959  0.00  0.00    +0.000 C 
ATOM     17  C   UNL     1       7.174   6.243  17.076  0.00  0.00    +0.000 C 
ATOM     18  C   UNL     1       7.330   5.443  18.367  0.00  0.00    +0.000 C 
ATOM     19  C   UNL     1       6.154   4.538  18.738  0.00  0.00    +0.000 C 
ATOM     20  C   UNL     1       4.949   5.323  19.255  0.00  0.00    +0.000 C 
ENDBRANCH  12  14
ENDBRANCH   6  10
BRANCH   9  21
ATOM     21  C   UNL     1       0.057  11.449  18.862  0.00  0.00    +0.000 C 
BRANCH  21  22
ATOM     22  C   UNL     1       0.962  12.670  18.877  0.00  0.00    +0.000 A 
ATOM     23  C   UNL     1       0.453  13.942  19.199  0.00  0.00    +0.000 A 
ATOM     24  C   UNL     1       1.196  15.094  18.924  0.00  0.00    +0.000 A 
ATOM     25  C   UNL     1       2.475  14.970  18.397  0.00  0.00    +0.000 A 
ATOM     26  F   UNL     1       3.141  16.066  18.010  0.00  0.00    +0.000 F 
ATOM     27  C   UNL     1       3.056  13.722  18.227  0.00  0.00    +0.000 A 
ATOM     28  C   UNL     1       2.301  12.571  18.470  0.00  0.00    +0.000 A 
ENDBRANCH  21  22
ENDBRANCH   9  21
TORSDOF 4
ENDMDL
