MODEL 1
REMARK VINA RESULT:      -8.8      0.000      0.000
REMARK  Name = 
REMARK  8 active torsions:
REMARK  status: ('A' for Active; 'I' for Inactive)
REMARK    1  A    between atoms: C_1  and  O_2
REMARK    2  A    between atoms: O_2  and  C_3
REMARK    3  A    between atoms: C_6  and  C_7
REMARK    4  A    between atoms: C_7  and  N_8
REMARK    5  A    between atoms: C_9  and  C_11
REMARK    6  A    between atoms: N_13  and  C_14
REMARK    7  A    between atoms: C_19  and  N_20
REMARK    8  A    between atoms: C_23  and  C_24
REMARK                            x       y       z     vdW  Elec       q    Type
REMARK                         _______ _______ _______ _____ _____    ______ ____
ROOT
ATOM      1  C   UNL     1       0.079  10.132  21.291  0.00  0.00    +0.000 A 
ATOM      2  C   UNL     1       0.577  10.681  20.169  0.00  0.00    +0.000 A 
ATOM      3  N   UNL     1       1.080  10.003  19.060  0.00  0.00    +0.000 N 
ATOM      4  C   UNL     1       1.643   8.717  19.353  0.00  0.00    +0.000 A 
ATOM      5  C   UNL     1       2.598   8.149  18.484  0.00  0.00    +0.000 A 
ATOM      6  C   UNL     1       3.064   6.834  18.650  0.00  0.00    +0.000 A 
ATOM      7  C   UNL     1       2.522   6.128  19.752  0.00  0.00    +0.000 A 
ATOM      8  F   UNL     1       2.937   4.877  20.011  0.00  0.00    +0.000 F 
ATOM      9  C   UNL     1       1.582   6.681  20.640  0.00  0.00    +0.000 A 
ATOM     10  C   UNL     1       1.155   7.990  20.450  0.00  0.00    +0.000 A 
ATOM     11  C   UNL     1       0.137   8.640  21.340  0.00  0.00    +0.000 A 
ATOM     12  O   UNL     1      -0.605   7.988  22.062  0.00  0.00    +0.000 OA
ENDROOT
BRANCH   6  13
ATOM     13  N   UNL     1       3.964   6.279  17.754  0.00  0.00    +0.000 N 
ATOM     14  C   UNL     1       3.881   4.878  17.335  0.00  0.00    +0.000 C 
ATOM     15  C   UNL     1       5.129   4.129  17.782  0.00  0.00    +0.000 C 
ATOM     16  C   UNL     1       6.418   4.826  17.306  0.00  0.00    +0.000 C 
ATOM     17  C   UNL     1       6.398   6.330  17.623  0.00  0.00    +0.000 C 
ATOM     18  C   UNL     1       5.098   7.020  17.196  0.00  0.00    +0.000 C 
BRANCH  16  19
ATOM     19  C   UNL     1       6.677   4.563  15.827  0.00  0.00    +0.000 C 
ATOM     20  N   UNL     1       6.197   3.371  15.358  0.00  0.00    +0.000 N 
ATOM     21  O   UNL     1       7.273   5.328  15.081  0.00  0.00    +0.000 OA
ATOM     22  H   UNL     1       5.888   2.628  15.968  0.00  0.00    +0.000 HD
ATOM     23  H   UNL     1       6.425   3.136  14.399  0.00  0.00    +0.000 HD
ENDBRANCH  16  19
ENDBRANCH   6  13
BRANCH   1  25
ATOM     24  N   UNL     1      -1.155  12.190  21.830  0.00  0.00    +0.000 N 
ATOM     25  C   UNL     1      -0.516  11.064  22.290  0.00  0.00    +0.000 C 
ATOM     26  O   UNL     1      -0.413  10.830  23.494  0.00  0.00    +0.000 OA
ATOM     27  H   UNL     1      -1.088  12.432  20.844  0.00  0.00    +0.000 HD
BRANCH  24  28
ATOM     28  C   UNL     1      -1.615  13.192  22.781  0.00  0.00    +0.000 C 
BRANCH  28  32
ATOM     29  C   UNL     1      -5.800  12.683  23.787  0.00  0.00    +0.000 A 
ATOM     30  C   UNL     1      -5.409  12.981  22.481  0.00  0.00    +0.000 A 
ATOM     31  C   UNL     1      -4.061  13.161  22.158  0.00  0.00    +0.000 A 
ATOM     32  C   UNL     1      -3.074  13.073  23.146  0.00  0.00    +0.000 A 
ATOM     33  C   UNL     1      -3.471  12.765  24.457  0.00  0.00    +0.000 A 
ATOM     34  C   UNL     1      -4.826  12.574  24.778  0.00  0.00    +0.000 A 
BRANCH  29  36
ATOM     35  C   UNL     1      -7.911  12.165  22.822  0.00  0.00    +0.000 C 
ATOM     36  O   UNL     1      -7.148  12.549  23.960  0.00  0.00    +0.000 OA
ENDBRANCH  29  36
ENDBRANCH  28  32
ENDBRANCH  24  28
ENDBRANCH   1  25
BRANCH   3  37
ATOM     37  C   UNL     1       0.014   9.857  18.010  0.00  0.00    +0.000 C 
ATOM     38  C   UNL     1      -1.437   9.639  18.323  0.00  0.00    +0.000 C 
ATOM     39  C   UNL     1      -0.981  10.949  17.748  0.00  0.00    +0.000 C 
ENDBRANCH   3  37
TORSDOF 7
ENDMDL
MODEL 2
REMARK VINA RESULT:      -8.5      0.938      1.132
REMARK  Name = 
REMARK  8 active torsions:
REMARK  status: ('A' for Active; 'I' for Inactive)
REMARK    1  A    between atoms: C_1  and  O_2
REMARK    2  A    between atoms: O_2  and  C_3
REMARK    3  A    between atoms: C_6  and  C_7
REMARK    4  A    between atoms: C_7  and  N_8
REMARK    5  A    between atoms: C_9  and  C_11
REMARK    6  A    between atoms: N_13  and  C_14
REMARK    7  A    between atoms: C_19  and  N_20
REMARK    8  A    between atoms: C_23  and  C_24
REMARK                            x       y       z     vdW  Elec       q    Type
REMARK                         _______ _______ _______ _____ _____    ______ ____
ROOT
ATOM      1  C   UNL     1      -0.104  10.240  21.131  0.00  0.00    +0.000 A 
ATOM      2  C   UNL     1       0.342  10.742  19.966  0.00  0.00    +0.000 A 
ATOM      3  N   UNL     1       0.842  10.021  18.883  0.00  0.00    +0.000 N 
ATOM      4  C   UNL     1       1.464   8.777  19.232  0.00  0.00    +0.000 A 
ATOM      5  C   UNL     1       2.418   8.196  18.370  0.00  0.00    +0.000 A 
ATOM      6  C   UNL     1       2.939   6.913  18.597  0.00  0.00    +0.000 A 
ATOM      7  C   UNL     1       2.456   6.251  19.752  0.00  0.00    +0.000 A 
ATOM      8  F   UNL     1       2.927   5.034  20.069  0.00  0.00    +0.000 F 
ATOM      9  C   UNL     1       1.518   6.817  20.633  0.00  0.00    +0.000 A 
ATOM     10  C   UNL     1       1.033   8.096  20.382  0.00  0.00    +0.000 A 
ATOM     11  C   UNL     1       0.014   8.756  21.262  0.00  0.00    +0.000 A 
ATOM     12  O   UNL     1      -0.682   8.119  22.041  0.00  0.00    +0.000 OA
ENDROOT
BRANCH   6  13
ATOM     13  N   UNL     1       3.838   6.342  17.709  0.00  0.00    +0.000 N 
ATOM     14  C   UNL     1       3.708   4.956  17.254  0.00  0.00    +0.000 C 
ATOM     15  C   UNL     1       4.913   4.146  17.710  0.00  0.00    +0.000 C 
ATOM     16  C   UNL     1       6.241   4.799  17.282  0.00  0.00    +0.000 C 
ATOM     17  C   UNL     1       6.274   6.295  17.635  0.00  0.00    +0.000 C 
ATOM     18  C   UNL     1       5.014   7.048  17.195  0.00  0.00    +0.000 C 
BRANCH  16  19
ATOM     19  C   UNL     1       6.524   4.561  15.803  0.00  0.00    +0.000 C 
ATOM     20  N   UNL     1       7.455   5.395  15.249  0.00  0.00    +0.000 N 
ATOM     21  O   UNL     1       5.974   3.706  15.121  0.00  0.00    +0.000 OA
ATOM     22  H   UNL     1       7.779   6.234  15.708  0.00  0.00    +0.000 HD
ATOM     23  H   UNL     1       7.604   5.311  14.251  0.00  0.00    +0.000 HD
ENDBRANCH  16  19
ENDBRANCH   6  13
BRANCH   1  25
ATOM     24  N   UNL     1      -1.353  12.308  21.588  0.00  0.00    +0.000 N 
ATOM     25  C   UNL     1      -0.711  11.204  22.092  0.00  0.00    +0.000 C 
ATOM     26  O   UNL     1      -0.612  11.016  23.304  0.00  0.00    +0.000 OA
ATOM     27  H   UNL     1      -1.283  12.514  20.594  0.00  0.00    +0.000 HD
BRANCH  24  28
ATOM     28  C   UNL     1      -1.824  13.342  22.499  0.00  0.00    +0.000 C 
BRANCH  28  32
ATOM     29  C   UNL     1      -6.137  13.680  22.768  0.00  0.00    +0.000 A 
ATOM     30  C   UNL     1      -5.307  14.417  23.614  0.00  0.00    +0.000 A 
ATOM     31  C   UNL     1      -3.917  14.297  23.540  0.00  0.00    +0.000 A 
ATOM     32  C   UNL     1      -3.326  13.412  22.631  0.00  0.00    +0.000 A 
ATOM     33  C   UNL     1      -4.164  12.678  21.776  0.00  0.00    +0.000 A 
ATOM     34  C   UNL     1      -5.561  12.809  21.845  0.00  0.00    +0.000 A 
BRANCH  29  36
ATOM     35  C   UNL     1      -7.916  14.032  24.306  0.00  0.00    +0.000 C 
ATOM     36  O   UNL     1      -7.473  13.886  22.962  0.00  0.00    +0.000 OA
ENDBRANCH  29  36
ENDBRANCH  28  32
ENDBRANCH  24  28
ENDBRANCH   1  25
BRANCH   3  37
ATOM     37  C   UNL     1      -0.244   9.774  17.874  0.00  0.00    +0.000 C 
ATOM     38  C   UNL     1      -1.697   9.655  18.228  0.00  0.00    +0.000 C 
ATOM     39  C   UNL     1      -1.204  10.857  17.475  0.00  0.00    +0.000 C 
ENDBRANCH   3  37
TORSDOF 7
ENDMDL
MODEL 3
REMARK VINA RESULT:      -8.3      3.251     11.282
REMARK  Name = 
REMARK  8 active torsions:
REMARK  status: ('A' for Active; 'I' for Inactive)
REMARK    1  A    between atoms: C_1  and  O_2
REMARK    2  A    between atoms: O_2  and  C_3
REMARK    3  A    between atoms: C_6  and  C_7
REMARK    4  A    between atoms: C_7  and  N_8
REMARK    5  A    between atoms: C_9  and  C_11
REMARK    6  A    between atoms: N_13  and  C_14
REMARK    7  A    between atoms: C_19  and  N_20
REMARK    8  A    between atoms: C_23  and  C_24
REMARK                            x       y       z     vdW  Elec       q    Type
REMARK                         _______ _______ _______ _____ _____    ______ ____
ROOT
ATOM      1  C   UNL     1       0.519  10.275  18.757  0.00  0.00    +0.000 A 
ATOM      2  C   UNL     1       0.696  10.693  20.022  0.00  0.00    +0.000 A 
ATOM      3  N   UNL     1      -0.299  11.063  20.926  0.00  0.00    +0.000 N 
ATOM      4  C   UNL     1      -1.487  11.591  20.322  0.00  0.00    +0.000 A 
ATOM      5  C   UNL     1      -2.341  12.437  21.062  0.00  0.00    +0.000 A 
ATOM      6  C   UNL     1      -3.584  12.856  20.563  0.00  0.00    +0.000 A 
ATOM      7  C   UNL     1      -3.915  12.385  19.269  0.00  0.00    +0.000 A 
ATOM      8  F   UNL     1      -5.069  12.765  18.696  0.00  0.00    +0.000 F 
ATOM      9  C   UNL     1      -3.073  11.555  18.508  0.00  0.00    +0.000 A 
ATOM     10  C   UNL     1      -1.843  11.172  19.030  0.00  0.00    +0.000 A 
ATOM     11  C   UNL     1      -0.901  10.269  18.289  0.00  0.00    +0.000 A 
ATOM     12  O   UNL     1      -1.272   9.568  17.358  0.00  0.00    +0.000 OA
ENDROOT
BRANCH   6  13
ATOM     13  N   UNL     1      -4.429  13.645  21.328  0.00  0.00    +0.000 N 
ATOM     14  C   UNL     1      -4.138  15.053  21.607  0.00  0.00    +0.000 C 
ATOM     15  C   UNL     1      -3.946  15.255  23.104  0.00  0.00    +0.000 C 
ATOM     16  C   UNL     1      -5.138  14.713  23.915  0.00  0.00    +0.000 C 
ATOM     17  C   UNL     1      -5.517  13.288  23.480  0.00  0.00    +0.000 C 
ATOM     18  C   UNL     1      -5.647  13.134  21.961  0.00  0.00    +0.000 C 
BRANCH  16  19
ATOM     19  C   UNL     1      -6.331  15.660  23.846  0.00  0.00    +0.000 C 
ATOM     20  N   UNL     1      -6.018  16.990  23.898  0.00  0.00    +0.000 N 
ATOM     21  O   UNL     1      -7.498  15.300  23.762  0.00  0.00    +0.000 OA
ATOM     22  H   UNL     1      -5.106  17.327  24.171  0.00  0.00    +0.000 HD
ATOM     23  H   UNL     1      -6.795  17.639  23.934  0.00  0.00    +0.000 HD
ENDBRANCH  16  19
ENDBRANCH   6  13
BRANCH   1  25
ATOM     24  N   UNL     1       1.935   8.464  17.886  0.00  0.00    +0.000 N 
ATOM     25  C   UNL     1       1.731   9.815  18.023  0.00  0.00    +0.000 C 
ATOM     26  O   UNL     1       2.533  10.635  17.576  0.00  0.00    +0.000 OA
ATOM     27  H   UNL     1       1.340   7.816  18.398  0.00  0.00    +0.000 HD
BRANCH  24  28
ATOM     28  C   UNL     1       3.181   7.982  17.307  0.00  0.00    +0.000 C 
BRANCH  28  32
ATOM     29  C   UNL     1       4.624   4.308  19.096  0.00  0.00    +0.000 A 
ATOM     30  C   UNL     1       5.466   5.104  18.319  0.00  0.00    +0.000 A 
ATOM     31  C   UNL     1       4.998   6.281  17.728  0.00  0.00    +0.000 A 
ATOM     32  C   UNL     1       3.664   6.673  17.881  0.00  0.00    +0.000 A 
ATOM     33  C   UNL     1       2.822   5.873  18.671  0.00  0.00    +0.000 A 
ATOM     34  C   UNL     1       3.297   4.696  19.273  0.00  0.00    +0.000 A 
BRANCH  29  36
ATOM     35  C   UNL     1       4.347   2.180  20.122  0.00  0.00    +0.000 C 
ATOM     36  O   UNL     1       5.211   3.181  19.598  0.00  0.00    +0.000 OA
ENDBRANCH  29  36
ENDBRANCH  28  32
ENDBRANCH  24  28
ENDBRANCH   1  25
BRANCH   3  37
ATOM     37  C   UNL     1      -0.659   9.900  21.809  0.00  0.00    +0.000 C 
ATOM     38  C   UNL     1       0.188   8.670  21.950  0.00  0.00    +0.000 C 
ATOM     39  C   UNL     1       0.071   9.636  23.093  0.00  0.00    +0.000 C 
ENDBRANCH   3  37
TORSDOF 7
ENDMDL
MODEL 4
REMARK VINA RESULT:      -8.2      3.309     11.336
REMARK  Name = 
REMARK  8 active torsions:
REMARK  status: ('A' for Active; 'I' for Inactive)
REMARK    1  A    between atoms: C_1  and  O_2
REMARK    2  A    between atoms: O_2  and  C_3
REMARK    3  A    between atoms: C_6  and  C_7
REMARK    4  A    between atoms: C_7  and  N_8
REMARK    5  A    between atoms: C_9  and  C_11
REMARK    6  A    between atoms: N_13  and  C_14
REMARK    7  A    between atoms: C_19  and  N_20
REMARK    8  A    between atoms: C_23  and  C_24
REMARK                            x       y       z     vdW  Elec       q    Type
REMARK                         _______ _______ _______ _____ _____    ______ ____
ROOT
ATOM      1  C   UNL     1       0.507  10.308  18.834  0.00  0.00    +0.000 A 
ATOM      2  C   UNL     1       0.648  10.733  20.102  0.00  0.00    +0.000 A 
ATOM      3  N   UNL     1      -0.374  11.092  20.980  0.00  0.00    +0.000 N 
ATOM      4  C   UNL     1      -1.553  11.603  20.345  0.00  0.00    +0.000 A 
ATOM      5  C   UNL     1      -2.435  12.439  21.061  0.00  0.00    +0.000 A 
ATOM      6  C   UNL     1      -3.672  12.841  20.531  0.00  0.00    +0.000 A 
ATOM      7  C   UNL     1      -3.965  12.362  19.231  0.00  0.00    +0.000 A 
ATOM      8  F   UNL     1      -5.109  12.725  18.628  0.00  0.00    +0.000 F 
ATOM      9  C   UNL     1      -3.093  11.541  18.493  0.00  0.00    +0.000 A 
ATOM     10  C   UNL     1      -1.871  11.175  19.047  0.00  0.00    +0.000 A 
ATOM     11  C   UNL     1      -0.900  10.283  18.332  0.00  0.00    +0.000 A 
ATOM     12  O   UNL     1      -1.240   9.574  17.395  0.00  0.00    +0.000 OA
ENDROOT
BRANCH   6  13
ATOM     13  N   UNL     1      -4.546  13.622  21.272  0.00  0.00    +0.000 N 
ATOM     14  C   UNL     1      -4.300  15.044  21.518  0.00  0.00    +0.000 C 
ATOM     15  C   UNL     1      -4.123  15.288  23.011  0.00  0.00    +0.000 C 
ATOM     16  C   UNL     1      -5.302  14.729  23.829  0.00  0.00    +0.000 C 
ATOM     17  C   UNL     1      -5.633  13.282  23.427  0.00  0.00    +0.000 C 
ATOM     18  C   UNL     1      -5.750  13.087  21.912  0.00  0.00    +0.000 C 
BRANCH  16  19
ATOM     19  C   UNL     1      -6.523  15.636  23.732  0.00  0.00    +0.000 C 
ATOM     20  N   UNL     1      -7.726  15.011  23.916  0.00  0.00    +0.000 N 
ATOM     21  O   UNL     1      -6.478  16.836  23.497  0.00  0.00    +0.000 OA
ATOM     22  H   UNL     1      -7.826  14.006  23.906  0.00  0.00    +0.000 HD
ATOM     23  H   UNL     1      -8.556  15.574  23.778  0.00  0.00    +0.000 HD
ENDBRANCH  16  19
ENDBRANCH   6  13
BRANCH   1  25
ATOM     24  N   UNL     1       2.046   8.522  18.135  0.00  0.00    +0.000 N 
ATOM     25  C   UNL     1       1.743   9.862  18.132  0.00  0.00    +0.000 C 
ATOM     26  O   UNL     1       2.478  10.685  17.586  0.00  0.00    +0.000 OA
ATOM     27  H   UNL     1       1.505   7.892  18.723  0.00  0.00    +0.000 HD
BRANCH  24  28
ATOM     28  C   UNL     1       3.318   8.073  17.588  0.00  0.00    +0.000 C 
BRANCH  28  32
ATOM     29  C   UNL     1       3.779   3.765  17.512  0.00  0.00    +0.000 A 
ATOM     30  C   UNL     1       2.641   4.353  18.067  0.00  0.00    +0.000 A 
ATOM     31  C   UNL     1       2.498   5.743  18.106  0.00  0.00    +0.000 A 
ATOM     32  C   UNL     1       3.509   6.577  17.614  0.00  0.00    +0.000 A 
ATOM     33  C   UNL     1       4.648   5.980  17.051  0.00  0.00    +0.000 A 
ATOM     34  C   UNL     1       4.785   4.583  17.002  0.00  0.00    +0.000 A 
BRANCH  29  36
ATOM     35  C   UNL     1       3.208   1.783  18.697  0.00  0.00    +0.000 C 
ATOM     36  O   UNL     1       3.790   2.399  17.555  0.00  0.00    +0.000 OA
ENDBRANCH  29  36
ENDBRANCH  28  32
ENDBRANCH  24  28
ENDBRANCH   1  25
BRANCH   3  37
ATOM     37  C   UNL     1      -0.740   9.927  21.858  0.00  0.00    +0.000 C 
ATOM     38  C   UNL     1       0.039   8.646  21.907  0.00  0.00    +0.000 C 
ATOM     39  C   UNL     1       0.062   9.584  23.079  0.00  0.00    +0.000 C 
ENDBRANCH   3  37
TORSDOF 7
ENDMDL
MODEL 5
REMARK VINA RESULT:      -8.1      1.496      1.913
REMARK  Name = 
REMARK  8 active torsions:
REMARK  status: ('A' for Active; 'I' for Inactive)
REMARK    1  A    between atoms: C_1  and  O_2
REMARK    2  A    between atoms: O_2  and  C_3
REMARK    3  A    between atoms: C_6  and  C_7
REMARK    4  A    between atoms: C_7  and  N_8
REMARK    5  A    between atoms: C_9  and  C_11
REMARK    6  A    between atoms: N_13  and  C_14
REMARK    7  A    between atoms: C_19  and  N_20
REMARK    8  A    between atoms: C_23  and  C_24
REMARK                            x       y       z     vdW  Elec       q    Type
REMARK                         _______ _______ _______ _____ _____    ______ ____
ROOT
ATOM      1  C   UNL     1      -0.034  10.673  21.086  0.00  0.00    +0.000 A 
ATOM      2  C   UNL     1       0.326  11.073  19.853  0.00  0.00    +0.000 A 
ATOM      3  N   UNL     1       0.754  10.261  18.804  0.00  0.00    +0.000 N 
ATOM      4  C   UNL     1       1.406   9.051  19.214  0.00  0.00    +0.000 A 
ATOM      5  C   UNL     1       2.301   8.399  18.340  0.00  0.00    +0.000 A 
ATOM      6  C   UNL     1       2.846   7.140  18.639  0.00  0.00    +0.000 A 
ATOM      7  C   UNL     1       2.449   6.580  19.878  0.00  0.00    +0.000 A 
ATOM      8  F   UNL     1       2.948   5.395  20.265  0.00  0.00    +0.000 F 
ATOM      9  C   UNL     1       1.571   7.220  20.771  0.00  0.00    +0.000 A 
ATOM     10  C   UNL     1       1.062   8.472  20.446  0.00  0.00    +0.000 A 
ATOM     11  C   UNL     1       0.103   9.206  21.336  0.00  0.00    +0.000 A 
ATOM     12  O   UNL     1      -0.532   8.637  22.213  0.00  0.00    +0.000 OA
ENDROOT
BRANCH   6  13
ATOM     13  N   UNL     1       3.683   6.495  17.742  0.00  0.00    +0.000 N 
ATOM     14  C   UNL     1       3.574   5.061  17.470  0.00  0.00    +0.000 C 
ATOM     15  C   UNL     1       4.851   4.353  17.900  0.00  0.00    +0.000 C 
ATOM     16  C   UNL     1       6.103   4.993  17.270  0.00  0.00    +0.000 C 
ATOM     17  C   UNL     1       6.102   6.521  17.439  0.00  0.00    +0.000 C 
ATOM     18  C   UNL     1       4.774   7.172  17.037  0.00  0.00    +0.000 C 
BRANCH  16  19
ATOM     19  C   UNL     1       6.259   4.585  15.810  0.00  0.00    +0.000 C 
ATOM     20  N   UNL     1       5.996   3.269  15.545  0.00  0.00    +0.000 N 
ATOM     21  O   UNL     1       6.602   5.342  14.912  0.00  0.00    +0.000 OA
ATOM     22  H   UNL     1       5.913   2.571  16.270  0.00  0.00    +0.000 HD
ATOM     23  H   UNL     1       6.169   2.953  14.598  0.00  0.00    +0.000 HD
ENDBRANCH  16  19
ENDBRANCH   6  13
BRANCH   1  25
ATOM     24  N   UNL     1      -1.774  11.471  22.629  0.00  0.00    +0.000 N 
ATOM     25  C   UNL     1      -0.577  11.716  22.001  0.00  0.00    +0.000 C 
ATOM     26  O   UNL     1       0.029  12.775  22.164  0.00  0.00    +0.000 OA
ATOM     27  H   UNL     1      -2.322  10.659  22.356  0.00  0.00    +0.000 HD
BRANCH  24  28
ATOM     28  C   UNL     1      -2.403  12.527  23.410  0.00  0.00    +0.000 C 
BRANCH  28  32
ATOM     29  C   UNL     1      -5.033  15.012  21.025  0.00  0.00    +0.000 A 
ATOM     30  C   UNL     1      -4.081  15.584  21.871  0.00  0.00    +0.000 A 
ATOM     31  C   UNL     1      -3.243  14.784  22.653  0.00  0.00    +0.000 A 
ATOM     32  C   UNL     1      -3.359  13.389  22.624  0.00  0.00    +0.000 A 
ATOM     33  C   UNL     1      -4.313  12.819  21.766  0.00  0.00    +0.000 A 
ATOM     34  C   UNL     1      -5.147  13.625  20.973  0.00  0.00    +0.000 A 
BRANCH  29  36
ATOM     35  C   UNL     1      -5.151  17.112  19.915  0.00  0.00    +0.000 C 
ATOM     36  O   UNL     1      -5.792  15.914  20.334  0.00  0.00    +0.000 OA
ENDBRANCH  29  36
ENDBRANCH  28  32
ENDBRANCH  24  28
ENDBRANCH   1  25
BRANCH   3  37
ATOM     37  C   UNL     1      -0.399   9.928  17.899  0.00  0.00    +0.000 C 
ATOM     38  C   UNL     1      -1.822   9.831  18.366  0.00  0.00    +0.000 C 
ATOM     39  C   UNL     1      -1.396  10.970  17.484  0.00  0.00    +0.000 C 
ENDBRANCH   3  37
TORSDOF 7
ENDMDL
MODEL 6
REMARK VINA RESULT:      -8.0      3.361     11.369
REMARK  Name = 
REMARK  8 active torsions:
REMARK  status: ('A' for Active; 'I' for Inactive)
REMARK    1  A    between atoms: C_1  and  O_2
REMARK    2  A    between atoms: O_2  and  C_3
REMARK    3  A    between atoms: C_6  and  C_7
REMARK    4  A    between atoms: C_7  and  N_8
REMARK    5  A    between atoms: C_9  and  C_11
REMARK    6  A    between atoms: N_13  and  C_14
REMARK    7  A    between atoms: C_19  and  N_20
REMARK    8  A    between atoms: C_23  and  C_24
REMARK                            x       y       z     vdW  Elec       q    Type
REMARK                         _______ _______ _______ _____ _____    ______ ____
ROOT
ATOM      1  C   UNL     1       0.496  10.359  18.852  0.00  0.00    +0.000 A 
ATOM      2  C   UNL     1       0.606  10.795  20.119  0.00  0.00    +0.000 A 
ATOM      3  N   UNL     1      -0.438  11.136  20.978  0.00  0.00    +0.000 N 
ATOM      4  C   UNL     1      -1.618  11.615  20.320  0.00  0.00    +0.000 A 
ATOM      5  C   UNL     1      -2.531  12.436  21.015  0.00  0.00    +0.000 A 
ATOM      6  C   UNL     1      -3.768  12.805  20.462  0.00  0.00    +0.000 A 
ATOM      7  C   UNL     1      -4.028  12.311  19.160  0.00  0.00    +0.000 A 
ATOM      8  F   UNL     1      -5.170  12.643  18.536  0.00  0.00    +0.000 F 
ATOM      9  C   UNL     1      -3.126  11.505  18.443  0.00  0.00    +0.000 A 
ATOM     10  C   UNL     1      -1.905  11.172  19.019  0.00  0.00    +0.000 A 
ATOM     11  C   UNL     1      -0.902  10.297  18.327  0.00  0.00    +0.000 A 
ATOM     12  O   UNL     1      -1.209   9.574  17.389  0.00  0.00    +0.000 OA
ENDROOT
BRANCH   6  13
ATOM     13  N   UNL     1      -4.672  13.570  21.183  0.00  0.00    +0.000 N 
ATOM     14  C   UNL     1      -5.449  13.017  22.293  0.00  0.00    +0.000 C 
ATOM     15  C   UNL     1      -6.934  13.067  21.961  0.00  0.00    +0.000 C 
ATOM     16  C   UNL     1      -7.385  14.483  21.556  0.00  0.00    +0.000 C 
ATOM     17  C   UNL     1      -6.448  15.095  20.502  0.00  0.00    +0.000 C 
ATOM     18  C   UNL     1      -4.965  14.971  20.867  0.00  0.00    +0.000 C 
BRANCH  16  19
ATOM     19  C   UNL     1      -7.532  15.387  22.775  0.00  0.00    +0.000 C 
ATOM     20  N   UNL     1      -7.850  14.743  23.939  0.00  0.00    +0.000 N 
ATOM     21  O   UNL     1      -7.396  16.603  22.756  0.00  0.00    +0.000 OA
ATOM     22  H   UNL     1      -8.171  13.786  23.964  0.00  0.00    +0.000 HD
ATOM     23  H   UNL     1      -8.032  15.328  24.746  0.00  0.00    +0.000 HD
ENDBRANCH  16  19
ENDBRANCH   6  13
BRANCH   1  25
ATOM     24  N   UNL     1       1.966   8.595  17.973  0.00  0.00    +0.000 N 
ATOM     25  C   UNL     1       1.754   9.937  18.173  0.00  0.00    +0.000 C 
ATOM     26  O   UNL     1       2.583  10.778  17.826  0.00  0.00    +0.000 OA
ATOM     27  H   UNL     1       1.339   7.922  18.408  0.00  0.00    +0.000 HD
BRANCH  24  28
ATOM     28  C   UNL     1       3.247   8.142  17.450  0.00  0.00    +0.000 C 
BRANCH  28  32
ATOM     29  C   UNL     1       4.112   4.005  18.409  0.00  0.00    +0.000 A 
ATOM     30  C   UNL     1       3.240   4.755  19.199  0.00  0.00    +0.000 A 
ATOM     31  C   UNL     1       2.973   6.094  18.900  0.00  0.00    +0.000 A 
ATOM     32  C   UNL     1       3.596   6.721  17.815  0.00  0.00    +0.000 A 
ATOM     33  C   UNL     1       4.467   5.959  17.019  0.00  0.00    +0.000 A 
ATOM     34  C   UNL     1       4.726   4.611  17.314  0.00  0.00    +0.000 A 
BRANCH  29  36
ATOM     35  C   UNL     1       3.344   1.754  18.380  0.00  0.00    +0.000 C 
ATOM     36  O   UNL     1       4.291   2.717  18.827  0.00  0.00    +0.000 OA
ENDBRANCH  29  36
ENDBRANCH  28  32
ENDBRANCH  24  28
ENDBRANCH   1  25
BRANCH   3  37
ATOM     37  C   UNL     1      -0.791   9.970  21.858  0.00  0.00    +0.000 C 
ATOM     38  C   UNL     1      -0.005   8.693  21.901  0.00  0.00    +0.000 C 
ATOM     39  C   UNL     1       0.020   9.631  23.073  0.00  0.00    +0.000 C 
ENDBRANCH   3  37
TORSDOF 7
ENDMDL
MODEL 7
REMARK VINA RESULT:      -7.9      1.075      1.113
REMARK  Name = 
REMARK  8 active torsions:
REMARK  status: ('A' for Active; 'I' for Inactive)
REMARK    1  A    between atoms: C_1  and  O_2
REMARK    2  A    between atoms: O_2  and  C_3
REMARK    3  A    between atoms: C_6  and  C_7
REMARK    4  A    between atoms: C_7  and  N_8
REMARK    5  A    between atoms: C_9  and  C_11
REMARK    6  A    between atoms: N_13  and  C_14
REMARK    7  A    between atoms: C_19  and  N_20
REMARK    8  A    between atoms: C_23  and  C_24
REMARK                            x       y       z     vdW  Elec       q    Type
REMARK                         _______ _______ _______ _____ _____    ______ ____
ROOT
ATOM      1  C   UNL     1      -0.022  10.934  20.946  0.00  0.00    +0.000 A 
ATOM      2  C   UNL     1       0.300  11.276  19.686  0.00  0.00    +0.000 A 
ATOM      3  N   UNL     1       0.684  10.415  18.660  0.00  0.00    +0.000 N 
ATOM      4  C   UNL     1       1.338   9.217  19.100  0.00  0.00    +0.000 A 
ATOM      5  C   UNL     1       2.196   8.518  18.226  0.00  0.00    +0.000 A 
ATOM      6  C   UNL     1       2.738   7.267  18.561  0.00  0.00    +0.000 A 
ATOM      7  C   UNL     1       2.377   6.765  19.835  0.00  0.00    +0.000 A 
ATOM      8  F   UNL     1       2.878   5.592  20.257  0.00  0.00    +0.000 F 
ATOM      9  C   UNL     1       1.536   7.453  20.729  0.00  0.00    +0.000 A 
ATOM     10  C   UNL     1       1.029   8.695  20.366  0.00  0.00    +0.000 A 
ATOM     11  C   UNL     1       0.108   9.478  21.255  0.00  0.00    +0.000 A 
ATOM     12  O   UNL     1      -0.503   8.955  22.177  0.00  0.00    +0.000 OA
ENDROOT
BRANCH   6  13
ATOM     13  N   UNL     1       3.538   6.573  17.666  0.00  0.00    +0.000 N 
ATOM     14  C   UNL     1       3.572   5.110  17.624  0.00  0.00    +0.000 C 
ATOM     15  C   UNL     1       4.967   4.614  17.981  0.00  0.00    +0.000 C 
ATOM     16  C   UNL     1       6.051   5.268  17.104  0.00  0.00    +0.000 C 
ATOM     17  C   UNL     1       5.885   6.795  17.044  0.00  0.00    +0.000 C 
ATOM     18  C   UNL     1       4.451   7.235  16.731  0.00  0.00    +0.000 C 
BRANCH  16  19
ATOM     19  C   UNL     1       6.086   4.648  15.712  0.00  0.00    +0.000 C 
ATOM     20  N   UNL     1       6.010   3.283  15.683  0.00  0.00    +0.000 N 
ATOM     21  O   UNL     1       6.184   5.286  14.671  0.00  0.00    +0.000 OA
ATOM     22  H   UNL     1       6.135   2.712  16.507  0.00  0.00    +0.000 HD
ATOM     23  H   UNL     1       6.111   2.841  14.777  0.00  0.00    +0.000 HD
ENDBRANCH  16  19
ENDBRANCH   6  13
BRANCH   1  25
ATOM     24  N   UNL     1      -1.195  13.073  21.257  0.00  0.00    +0.000 N 
ATOM     25  C   UNL     1      -0.525  12.022  21.832  0.00  0.00    +0.000 C 
ATOM     26  O   UNL     1      -0.318  11.978  23.045  0.00  0.00    +0.000 OA
ATOM     27  H   UNL     1      -1.214  13.156  20.243  0.00  0.00    +0.000 HD
BRANCH  24  28
ATOM     28  C   UNL     1      -1.566  14.220  22.073  0.00  0.00    +0.000 C 
BRANCH  28  32
ATOM     29  C   UNL     1      -5.630  14.074  23.570  0.00  0.00    +0.000 A 
ATOM     30  C   UNL     1      -5.146  13.082  22.716  0.00  0.00    +0.000 A 
ATOM     31  C   UNL     1      -3.841  13.136  22.220  0.00  0.00    +0.000 A 
ATOM     32  C   UNL     1      -2.998  14.204  22.547  0.00  0.00    +0.000 A 
ATOM     33  C   UNL     1      -3.487  15.196  23.413  0.00  0.00    +0.000 A 
ATOM     34  C   UNL     1      -4.796  15.134  23.919  0.00  0.00    +0.000 A 
BRANCH  29  36
ATOM     35  C   UNL     1      -7.903  14.746  23.367  0.00  0.00    +0.000 C 
ATOM     36  O   UNL     1      -6.927  13.901  23.964  0.00  0.00    +0.000 OA
ENDBRANCH  29  36
ENDBRANCH  28  32
ENDBRANCH  24  28
ENDBRANCH   1  25
BRANCH   3  37
ATOM     37  C   UNL     1      -0.502  10.056  17.808  0.00  0.00    +0.000 C 
ATOM     38  C   UNL     1      -1.868   9.779  18.361  0.00  0.00    +0.000 C 
ATOM     39  C   UNL     1      -1.618  11.030  17.570  0.00  0.00    +0.000 C 
ENDBRANCH   3  37
TORSDOF 7
ENDMDL
MODEL 8
REMARK VINA RESULT:      -7.9      3.595     11.018
REMARK  Name = 
REMARK  8 active torsions:
REMARK  status: ('A' for Active; 'I' for Inactive)
REMARK    1  A    between atoms: C_1  and  O_2
REMARK    2  A    between atoms: O_2  and  C_3
REMARK    3  A    between atoms: C_6  and  C_7
REMARK    4  A    between atoms: C_7  and  N_8
REMARK    5  A    between atoms: C_9  and  C_11
REMARK    6  A    between atoms: N_13  and  C_14
REMARK    7  A    between atoms: C_19  and  N_20
REMARK    8  A    between atoms: C_23  and  C_24
REMARK                            x       y       z     vdW  Elec       q    Type
REMARK                         _______ _______ _______ _____ _____    ______ ____
ROOT
ATOM      1  C   UNL     1       0.530  10.809  18.485  0.00  0.00    +0.000 A 
ATOM      2  C   UNL     1      -0.681  10.233  18.383  0.00  0.00    +0.000 A 
ATOM      3  N   UNL     1      -1.915  10.834  18.627  0.00  0.00    +0.000 N 
ATOM      4  C   UNL     1      -1.879  11.898  19.587  0.00  0.00    +0.000 A 
ATOM      5  C   UNL     1      -3.049  12.255  20.290  0.00  0.00    +0.000 A 
ATOM      6  C   UNL     1      -3.098  13.382  21.127  0.00  0.00    +0.000 A 
ATOM      7  C   UNL     1      -1.895  14.122  21.226  0.00  0.00    +0.000 A 
ATOM      8  F   UNL     1      -1.836  15.195  22.032  0.00  0.00    +0.000 F 
ATOM      9  C   UNL     1      -0.713  13.775  20.547  0.00  0.00    +0.000 A 
ATOM     10  C   UNL     1      -0.700  12.645  19.738  0.00  0.00    +0.000 A 
ATOM     11  C   UNL     1       0.514  12.224  18.964  0.00  0.00    +0.000 A 
ATOM     12  O   UNL     1       1.437  12.994  18.736  0.00  0.00    +0.000 OA
ENDROOT
BRANCH   6  13
ATOM     13  N   UNL     1      -4.272  13.743  21.768  0.00  0.00    +0.000 N 
ATOM     14  C   UNL     1      -5.081  14.881  21.328  0.00  0.00    +0.000 C 
ATOM     15  C   UNL     1      -5.129  15.938  22.423  0.00  0.00    +0.000 C 
ATOM     16  C   UNL     1      -5.597  15.350  23.768  0.00  0.00    +0.000 C 
ATOM     17  C   UNL     1      -4.832  14.063  24.119  0.00  0.00    +0.000 C 
ATOM     18  C   UNL     1      -4.774  13.060  22.963  0.00  0.00    +0.000 C 
BRANCH  16  19
ATOM     19  C   UNL     1      -7.105  15.133  23.783  0.00  0.00    +0.000 C 
ATOM     20  N   UNL     1      -7.526  14.036  24.483  0.00  0.00    +0.000 N 
ATOM     21  O   UNL     1      -7.915  15.855  23.216  0.00  0.00    +0.000 OA
ATOM     22  H   UNL     1      -6.896  13.308  24.788  0.00  0.00    +0.000 HD
ATOM     23  H   UNL     1      -8.515  13.824  24.443  0.00  0.00    +0.000 HD
ENDBRANCH  16  19
ENDBRANCH   6  13
BRANCH   1  25
ATOM     24  N   UNL     1       1.679   8.644  18.284  0.00  0.00    +0.000 N 
ATOM     25  C   UNL     1       1.701   9.997  18.049  0.00  0.00    +0.000 C 
ATOM     26  O   UNL     1       2.667  10.541  17.513  0.00  0.00    +0.000 OA
ATOM     27  H   UNL     1       0.941   8.252  18.865  0.00  0.00    +0.000 HD
BRANCH  24  28
ATOM     28  C   UNL     1       2.867   7.849  18.007  0.00  0.00    +0.000 C 
BRANCH  28  32
ATOM     29  C   UNL     1       2.927   4.080  20.144  0.00  0.00    +0.000 A 
ATOM     30  C   UNL     1       2.208   5.170  20.636  0.00  0.00    +0.000 A 
ATOM     31  C   UNL     1       2.201   6.391  19.957  0.00  0.00    +0.000 A 
ATOM     32  C   UNL     1       2.939   6.555  18.779  0.00  0.00    +0.000 A 
ATOM     33  C   UNL     1       3.655   5.453  18.284  0.00  0.00    +0.000 A 
ATOM     34  C   UNL     1       3.652   4.223  18.962  0.00  0.00    +0.000 A 
BRANCH  29  36
ATOM     35  C   UNL     1       1.608   2.676  21.539  0.00  0.00    +0.000 C 
ATOM     36  O   UNL     1       2.857   2.956  20.918  0.00  0.00    +0.000 OA
ENDBRANCH  29  36
ENDBRANCH  28  32
ENDBRANCH  24  28
ENDBRANCH   1  25
BRANCH   3  37
ATOM     37  C   UNL     1      -2.514  11.335  17.343  0.00  0.00    +0.000 C 
ATOM     38  C   UNL     1      -2.520  10.549  16.065  0.00  0.00    +0.000 C 
ATOM     39  C   UNL     1      -3.802  10.782  16.811  0.00  0.00    +0.000 C 
ENDBRANCH   3  37
TORSDOF 7
ENDMDL
MODEL 9
REMARK VINA RESULT:      -7.9      2.950     11.265
REMARK  Name = 
REMARK  8 active torsions:
REMARK  status: ('A' for Active; 'I' for Inactive)
REMARK    1  A    between atoms: C_1  and  O_2
REMARK    2  A    between atoms: O_2  and  C_3
REMARK    3  A    between atoms: C_6  and  C_7
REMARK    4  A    between atoms: C_7  and  N_8
REMARK    5  A    between atoms: C_9  and  C_11
REMARK    6  A    between atoms: N_13  and  C_14
REMARK    7  A    between atoms: C_19  and  N_20
REMARK    8  A    between atoms: C_23  and  C_24
REMARK                            x       y       z     vdW  Elec       q    Type
REMARK                         _______ _______ _______ _____ _____    ______ ____
ROOT
ATOM      1  C   UNL     1       0.959   8.862  20.752  0.00  0.00    +0.000 A 
ATOM      2  C   UNL     1       0.732   9.543  19.615  0.00  0.00    +0.000 A 
ATOM      3  N   UNL     1       0.261  10.850  19.505  0.00  0.00    +0.000 N 
ATOM      4  C   UNL     1      -0.573  11.277  20.591  0.00  0.00    +0.000 A 
ATOM      5  C   UNL     1      -1.494  12.329  20.403  0.00  0.00    +0.000 A 
ATOM      6  C   UNL     1      -2.223  12.876  21.471  0.00  0.00    +0.000 A 
ATOM      7  C   UNL     1      -1.982  12.294  22.739  0.00  0.00    +0.000 A 
ATOM      8  F   UNL     1      -2.661  12.728  23.813  0.00  0.00    +0.000 F 
ATOM      9  C   UNL     1      -1.081  11.234  22.946  0.00  0.00    +0.000 A 
ATOM     10  C   UNL     1      -0.387  10.709  21.861  0.00  0.00    +0.000 A 
ATOM     11  C   UNL     1       0.608   9.596  22.006  0.00  0.00    +0.000 A 
ATOM     12  O   UNL     1       1.105   9.306  23.085  0.00  0.00    +0.000 OA
ENDROOT
BRANCH   6  13
ATOM     13  N   UNL     1      -3.085  13.944  21.273  0.00  0.00    +0.000 N 
ATOM     14  C   UNL     1      -2.688  15.326  21.547  0.00  0.00    +0.000 C 
ATOM     15  C   UNL     1      -3.553  15.903  22.659  0.00  0.00    +0.000 C 
ATOM     16  C   UNL     1      -5.056  15.756  22.352  0.00  0.00    +0.000 C 
ATOM     17  C   UNL     1      -5.406  14.325  21.912  0.00  0.00    +0.000 C 
ATOM     18  C   UNL     1      -4.471  13.781  20.827  0.00  0.00    +0.000 C 
BRANCH  16  19
ATOM     19  C   UNL     1      -5.516  16.790  21.331  0.00  0.00    +0.000 C 
ATOM     20  N   UNL     1      -6.590  16.416  20.572  0.00  0.00    +0.000 N 
ATOM     21  O   UNL     1      -4.987  17.881  21.163  0.00  0.00    +0.000 OA
ATOM     22  H   UNL     1      -6.925  15.465  20.530  0.00  0.00    +0.000 HD
ATOM     23  H   UNL     1      -6.867  17.051  19.832  0.00  0.00    +0.000 HD
ENDBRANCH  16  19
ENDBRANCH   6  13
BRANCH   1  25
ATOM     24  N   UNL     1       2.620   7.364  19.730  0.00  0.00    +0.000 N 
ATOM     25  C   UNL     1       1.583   7.515  20.618  0.00  0.00    +0.000 C 
ATOM     26  O   UNL     1       1.157   6.566  21.276  0.00  0.00    +0.000 OA
ATOM     27  H   UNL     1       2.844   8.125  19.093  0.00  0.00    +0.000 HD
BRANCH  24  28
ATOM     28  C   UNL     1       3.150   6.034  19.467  0.00  0.00    +0.000 C 
BRANCH  28  32
ATOM     29  C   UNL     1       6.259   5.806  16.457  0.00  0.00    +0.000 A 
ATOM     30  C   UNL     1       6.344   5.056  17.630  0.00  0.00    +0.000 A 
ATOM     31  C   UNL     1       5.350   5.140  18.609  0.00  0.00    +0.000 A 
ATOM     32  C   UNL     1       4.259   6.002  18.445  0.00  0.00    +0.000 A 
ATOM     33  C   UNL     1       4.175   6.749  17.259  0.00  0.00    +0.000 A 
ATOM     34  C   UNL     1       5.170   6.655  16.271  0.00  0.00    +0.000 A 
BRANCH  29  36
ATOM     35  C   UNL     1       7.091   4.791  14.473  0.00  0.00    +0.000 C 
ATOM     36  O   UNL     1       7.307   5.636  15.597  0.00  0.00    +0.000 OA
ENDBRANCH  29  36
ENDBRANCH  28  32
ENDBRANCH  24  28
ENDBRANCH   1  25
BRANCH   3  37
ATOM     37  C   UNL     1       1.411  11.807  19.350  0.00  0.00    +0.000 C 
ATOM     38  C   UNL     1       2.291  11.859  18.137  0.00  0.00    +0.000 C 
ATOM     39  C   UNL     1       1.333  12.980  18.419  0.00  0.00    +0.000 C 
ENDBRANCH   3  37
TORSDOF 7
ENDMDL
