MODEL 1
REMARK VINA RESULT:      -7.4      0.000      0.000
REMARK  Name = 
REMARK  11 active torsions:
REMARK  status: ('A' for Active; 'I' for Inactive)
REMARK    1  A    between atoms: C_1  and  C_2
REMARK    2  A    between atoms: C_2  and  C_3
REMARK    3  A    between atoms: C_3  and  N_4
REMARK    4  A    between atoms: C_5  and  S_6
REMARK    5  A    between atoms: C_5  and  O_7
REMARK    6  A    between atoms: O_7  and  C_8
REMARK    7  A    between atoms: C_8  and  C_9
REMARK    8  A    between atoms: C_11  and  N_12
REMARK    9  A    between atoms: N_17  and  C_18
REMARK   10  A    between atoms: C_27  and  O_28
REMARK   11  A    between atoms: C_29  and  O_30
REMARK                            x       y       z     vdW  Elec       q    Type
REMARK                         _______ _______ _______ _____ _____    ______ ____
ROOT
ATOM      1  C   UNL     1       4.108   3.720  18.508  0.00  0.00    +0.000 C 
ATOM      2  O   UNL     1       4.265   5.101  18.926  0.00  0.00    +0.000 OA
ATOM      3  C   UNL     1       3.101   5.507  19.688  0.00  0.00    +0.000 C 
ATOM      4  C   UNL     1       2.060   4.395  19.547  0.00  0.00    +0.000 C 
ATOM      5  C   UNL     1       2.945   3.173  19.333  0.00  0.00    +0.000 C 
ENDROOT
BRANCH   3   6
ATOM      6  N   UNL     1       2.652   6.809  19.230  0.00  0.00    +0.000 N 
ATOM      7  C   UNL     1       2.974   7.430  18.053  0.00  0.00    +0.000 A 
ATOM      8  N   UNL     1       2.457   8.641  17.973  0.00  0.00    +0.000 NA
ATOM      9  C   UNL     1       1.760   8.810  19.156  0.00  0.00    +0.000 A 
ATOM     10  C   UNL     1       1.033   9.906  19.685  0.00  0.00    +0.000 A 
ATOM     11  N   UNL     1       0.937  11.132  19.013  0.00  0.00    +0.000 N 
ATOM     12  N   UNL     1       0.450   9.731  20.903  0.00  0.00    +0.000 NA
ATOM     13  C   UNL     1       0.623   8.555  21.550  0.00  0.00    +0.000 A 
ATOM     14  N   UNL     1       1.332   7.478  21.161  0.00  0.00    +0.000 NA
ATOM     15  C   UNL     1       1.865   7.675  19.943  0.00  0.00    +0.000 A 
ATOM     16  H   UNL     1       1.630  11.194  18.272  0.00  0.00    +0.000 HD
BRANCH  11  17
ATOM     17  C   UNL     1       0.686  12.334  19.818  0.00  0.00    +0.000 C 
ATOM     18  C   UNL     1      -0.669  12.941  19.487  0.00  0.00    +0.000 C 
ATOM     19  C   UNL     1      -0.367  13.977  18.425  0.00  0.00    +0.000 C 
ATOM     20  O   UNL     1       0.980  14.401  18.603  0.00  0.00    +0.000 OA
ATOM     21  C   UNL     1       1.624  13.507  19.525  0.00  0.00    +0.000 C 
ENDBRANCH  11  17
ENDBRANCH   3   6
BRANCH   4  22
ATOM     22  O   UNL     1       1.236   4.236  20.699  0.00  0.00    +0.000 OA
ATOM     23  H   UNL     1       0.747   5.078  20.811  0.00  0.00    +0.000 HD
ENDBRANCH   4  22
BRANCH   5  24
ATOM     24  O   UNL     1       3.389   2.725  20.630  0.00  0.00    +0.000 OA
ATOM     25  H   UNL     1       3.258   1.759  20.696  0.00  0.00    +0.000 HD
ENDBRANCH   5  24
BRANCH   1  26
ATOM     26  C   UNL     1       3.863   3.669  16.993  0.00  0.00    +0.000 C 
BRANCH  26  27
ATOM     27  O   UNL     1       4.483   4.799  16.332  0.00  0.00    +0.000 OA
BRANCH  27  29
ATOM     28  N   UNL     1       5.493   4.238  14.366  0.00  0.00    +0.000 NA
ATOM     29  C   UNL     1       5.606   4.568  15.593  0.00  0.00    +0.000 C 
BRANCH  29  30
ATOM     30  S   UNL     1       7.115   4.778  16.467  0.00  0.00    +0.000 S 
ATOM     31  H   UNL     1       6.678   4.481  17.693  0.00  0.00    +0.000 HD
ENDBRANCH  29  30
BRANCH  28  32
ATOM     32  C   UNL     1       6.635   3.961  13.513  0.00  0.00    +0.000 C 
BRANCH  32  34
ATOM     33  C   UNL     1       4.684   3.520  11.969  0.00  0.00    +0.000 C 
ATOM     34  C   UNL     1       6.147   3.223  12.267  0.00  0.00    +0.000 C 
ENDBRANCH  32  34
ENDBRANCH  28  32
ENDBRANCH  27  29
ENDBRANCH  26  27
ENDBRANCH   1  26
TORSDOF 10
ENDMDL
MODEL 2
REMARK VINA RESULT:      -7.1      1.121      1.216
REMARK  Name = 
REMARK  11 active torsions:
REMARK  status: ('A' for Active; 'I' for Inactive)
REMARK    1  A    between atoms: C_1  and  C_2
REMARK    2  A    between atoms: C_2  and  C_3
REMARK    3  A    between atoms: C_3  and  N_4
REMARK    4  A    between atoms: C_5  and  S_6
REMARK    5  A    between atoms: C_5  and  O_7
REMARK    6  A    between atoms: O_7  and  C_8
REMARK    7  A    between atoms: C_8  and  C_9
REMARK    8  A    between atoms: C_11  and  N_12
REMARK    9  A    between atoms: N_17  and  C_18
REMARK   10  A    between atoms: C_27  and  O_28
REMARK   11  A    between atoms: C_29  and  O_30
REMARK                            x       y       z     vdW  Elec       q    Type
REMARK                         _______ _______ _______ _____ _____    ______ ____
ROOT
ATOM      1  C   UNL     1       5.078   4.484  19.051  0.00  0.00    +0.000 C 
ATOM      2  O   UNL     1       4.385   5.595  19.676  0.00  0.00    +0.000 OA
ATOM      3  C   UNL     1       2.989   5.572  19.285  0.00  0.00    +0.000 C 
ATOM      4  C   UNL     1       2.850   4.526  18.177  0.00  0.00    +0.000 C 
ATOM      5  C   UNL     1       3.981   3.564  18.521  0.00  0.00    +0.000 C 
ENDROOT
BRANCH   3   6
ATOM      6  N   UNL     1       2.571   6.908  18.903  0.00  0.00    +0.000 N 
ATOM      7  C   UNL     1       2.867   7.569  17.742  0.00  0.00    +0.000 A 
ATOM      8  N   UNL     1       2.393   8.800  17.737  0.00  0.00    +0.000 NA
ATOM      9  C   UNL     1       1.752   8.941  18.954  0.00  0.00    +0.000 A 
ATOM     10  C   UNL     1       1.088  10.037  19.561  0.00  0.00    +0.000 A 
ATOM     11  N   UNL     1       1.010  11.294  18.947  0.00  0.00    +0.000 N 
ATOM     12  N   UNL     1       0.550   9.828  20.794  0.00  0.00    +0.000 NA
ATOM     13  C   UNL     1       0.705   8.619  21.381  0.00  0.00    +0.000 A 
ATOM     14  N   UNL     1       1.356   7.536  20.916  0.00  0.00    +0.000 NA
ATOM     15  C   UNL     1       1.846   7.768  19.686  0.00  0.00    +0.000 A 
ATOM     16  H   UNL     1       1.675  11.366  18.181  0.00  0.00    +0.000 HD
BRANCH  11  17
ATOM     17  C   UNL     1       0.838  12.467  19.814  0.00  0.00    +0.000 C 
ATOM     18  C   UNL     1       0.298  13.652  19.028  0.00  0.00    +0.000 C 
ATOM     19  C   UNL     1       1.535  14.417  18.604  0.00  0.00    +0.000 C 
ATOM     20  O   UNL     1       2.562  14.138  19.550  0.00  0.00    +0.000 OA
ATOM     21  C   UNL     1       2.139  13.042  20.377  0.00  0.00    +0.000 C 
ENDBRANCH  11  17
ENDBRANCH   3   6
BRANCH   4  22
ATOM     22  O   UNL     1       1.591   3.859  18.178  0.00  0.00    +0.000 OA
ATOM     23  H   UNL     1       1.200   4.001  19.067  0.00  0.00    +0.000 HD
ENDBRANCH   4  22
BRANCH   5  24
ATOM     24  O   UNL     1       3.499   2.676  19.551  0.00  0.00    +0.000 OA
ATOM     25  H   UNL     1       3.904   1.797  19.430  0.00  0.00    +0.000 HD
ENDBRANCH   5  24
BRANCH   1  26
ATOM     26  C   UNL     1       6.014   5.016  17.955  0.00  0.00    +0.000 C 
BRANCH  26  27
ATOM     27  O   UNL     1       6.127   4.065  16.869  0.00  0.00    +0.000 OA
BRANCH  27  29
ATOM     28  N   UNL     1       6.399   3.794  14.621  0.00  0.00    +0.000 NA
ATOM     29  C   UNL     1       6.047   4.541  15.593  0.00  0.00    +0.000 C 
BRANCH  29  30
ATOM     30  S   UNL     1       5.433   6.182  15.460  0.00  0.00    +0.000 S 
ATOM     31  H   UNL     1       4.127   5.909  15.503  0.00  0.00    +0.000 HD
ENDBRANCH  29  30
BRANCH  28  32
ATOM     32  C   UNL     1       6.358   4.227  13.235  0.00  0.00    +0.000 C 
BRANCH  32  34
ATOM     33  C   UNL     1       4.586   3.333  11.671  0.00  0.00    +0.000 C 
ATOM     34  C   UNL     1       5.910   3.052  12.369  0.00  0.00    +0.000 C 
ENDBRANCH  32  34
ENDBRANCH  28  32
ENDBRANCH  27  29
ENDBRANCH  26  27
ENDBRANCH   1  26
TORSDOF 10
ENDMDL
MODEL 3
REMARK VINA RESULT:      -7.1      1.523      2.296
REMARK  Name = 
REMARK  11 active torsions:
REMARK  status: ('A' for Active; 'I' for Inactive)
REMARK    1  A    between atoms: C_1  and  C_2
REMARK    2  A    between atoms: C_2  and  C_3
REMARK    3  A    between atoms: C_3  and  N_4
REMARK    4  A    between atoms: C_5  and  S_6
REMARK    5  A    between atoms: C_5  and  O_7
REMARK    6  A    between atoms: O_7  and  C_8
REMARK    7  A    between atoms: C_8  and  C_9
REMARK    8  A    between atoms: C_11  and  N_12
REMARK    9  A    between atoms: N_17  and  C_18
REMARK   10  A    between atoms: C_27  and  O_28
REMARK   11  A    between atoms: C_29  and  O_30
REMARK                            x       y       z     vdW  Elec       q    Type
REMARK                         _______ _______ _______ _____ _____    ______ ____
ROOT
ATOM      1  C   UNL     1       3.891   3.751  18.711  0.00  0.00    +0.000 C 
ATOM      2  O   UNL     1       4.054   5.133  19.120  0.00  0.00    +0.000 OA
ATOM      3  C   UNL     1       2.843   5.587  19.777  0.00  0.00    +0.000 C 
ATOM      4  C   UNL     1       1.785   4.503  19.566  0.00  0.00    +0.000 C 
ATOM      5  C   UNL     1       2.647   3.252  19.445  0.00  0.00    +0.000 C 
ENDROOT
BRANCH   3   6
ATOM      6  N   UNL     1       2.474   6.893  19.264  0.00  0.00    +0.000 N 
ATOM      7  C   UNL     1       2.856   7.455  18.075  0.00  0.00    +0.000 A 
ATOM      8  N   UNL     1       2.404   8.687  17.941  0.00  0.00    +0.000 NA
ATOM      9  C   UNL     1       1.688   8.933  19.099  0.00  0.00    +0.000 A 
ATOM     10  C   UNL     1       1.005  10.081  19.571  0.00  0.00    +0.000 A 
ATOM     11  N   UNL     1       0.989  11.286  18.856  0.00  0.00    +0.000 N 
ATOM     12  N   UNL     1       0.385   9.979  20.779  0.00  0.00    +0.000 NA
ATOM     13  C   UNL     1       0.481   8.819  21.470  0.00  0.00    +0.000 A 
ATOM     14  N   UNL     1       1.143   7.694  21.136  0.00  0.00    +0.000 NA
ATOM     15  C   UNL     1       1.715   7.821  19.927  0.00  0.00    +0.000 A 
ATOM     16  H   UNL     1       1.703  11.288  18.132  0.00  0.00    +0.000 HD
BRANCH  11  17
ATOM     17  C   UNL     1       0.781  12.527  19.613  0.00  0.00    +0.000 C 
ATOM     18  C   UNL     1       0.608  13.715  18.679  0.00  0.00    +0.000 C 
ATOM     19  C   UNL     1       2.002  14.289  18.539  0.00  0.00    +0.000 C 
ATOM     20  O   UNL     1       2.731  13.949  19.713  0.00  0.00    +0.000 OA
ATOM     21  C   UNL     1       1.980  12.972  20.453  0.00  0.00    +0.000 C 
ENDBRANCH  11  17
ENDBRANCH   3   6
BRANCH   4  22
ATOM     22  O   UNL     1       0.864   4.387  20.648  0.00  0.00    +0.000 OA
ATOM     23  H   UNL     1       0.115   3.844  20.322  0.00  0.00    +0.000 HD
ENDBRANCH   4  22
BRANCH   5  24
ATOM     24  O   UNL     1       2.968   2.814  20.782  0.00  0.00    +0.000 OA
ATOM     25  H   UNL     1       2.228   3.037  21.378  0.00  0.00    +0.000 HD
ENDBRANCH   5  24
BRANCH   1  26
ATOM     26  C   UNL     1       3.769   3.680  17.182  0.00  0.00    +0.000 C 
BRANCH  26  27
ATOM     27  O   UNL     1       5.026   3.276  16.585  0.00  0.00    +0.000 OA
BRANCH  27  29
ATOM     28  N   UNL     1       6.345   5.109  16.904  0.00  0.00    +0.000 NA
ATOM     29  C   UNL     1       5.845   4.254  16.101  0.00  0.00    +0.000 C 
BRANCH  29  30
ATOM     30  S   UNL     1       6.118   4.189  14.366  0.00  0.00    +0.000 S 
ATOM     31  H   UNL     1       7.015   3.200  14.343  0.00  0.00    +0.000 HD
ENDBRANCH  29  30
BRANCH  28  32
ATOM     32  C   UNL     1       7.214   6.189  16.470  0.00  0.00    +0.000 C 
BRANCH  32  34
ATOM     33  C   UNL     1       7.858   6.219  18.914  0.00  0.00    +0.000 C 
ATOM     34  C   UNL     1       7.554   7.058  17.680  0.00  0.00    +0.000 C 
ENDBRANCH  32  34
ENDBRANCH  28  32
ENDBRANCH  27  29
ENDBRANCH  26  27
ENDBRANCH   1  26
TORSDOF 10
ENDMDL
MODEL 4
REMARK VINA RESULT:      -7.0      1.064      1.237
REMARK  Name = 
REMARK  11 active torsions:
REMARK  status: ('A' for Active; 'I' for Inactive)
REMARK    1  A    between atoms: C_1  and  C_2
REMARK    2  A    between atoms: C_2  and  C_3
REMARK    3  A    between atoms: C_3  and  N_4
REMARK    4  A    between atoms: C_5  and  S_6
REMARK    5  A    between atoms: C_5  and  O_7
REMARK    6  A    between atoms: O_7  and  C_8
REMARK    7  A    between atoms: C_8  and  C_9
REMARK    8  A    between atoms: C_11  and  N_12
REMARK    9  A    between atoms: N_17  and  C_18
REMARK   10  A    between atoms: C_27  and  O_28
REMARK   11  A    between atoms: C_29  and  O_30
REMARK                            x       y       z     vdW  Elec       q    Type
REMARK                         _______ _______ _______ _____ _____    ______ ____
ROOT
ATOM      1  C   UNL     1       4.092   3.768  19.528  0.00  0.00    +0.000 C 
ATOM      2  O   UNL     1       4.014   5.162  19.925  0.00  0.00    +0.000 OA
ATOM      3  C   UNL     1       2.626   5.525  20.133  0.00  0.00    +0.000 C 
ATOM      4  C   UNL     1       1.775   4.362  19.620  0.00  0.00    +0.000 C 
ATOM      5  C   UNL     1       2.715   3.180  19.828  0.00  0.00    +0.000 C 
ENDROOT
BRANCH   3   6
ATOM      6  N   UNL     1       2.356   6.796  19.486  0.00  0.00    +0.000 N 
ATOM      7  C   UNL     1       2.832   7.229  18.278  0.00  0.00    +0.000 A 
ATOM      8  N   UNL     1       2.456   8.464  18.010  0.00  0.00    +0.000 NA
ATOM      9  C   UNL     1       1.693   8.849  19.097  0.00  0.00    +0.000 A 
ATOM     10  C   UNL     1       1.049  10.068  19.426  0.00  0.00    +0.000 A 
ATOM     11  N   UNL     1       1.136  11.203  18.609  0.00  0.00    +0.000 N 
ATOM     12  N   UNL     1       0.359  10.107  20.600  0.00  0.00    +0.000 NA
ATOM     13  C   UNL     1       0.355   9.010  21.394  0.00  0.00    +0.000 A 
ATOM     14  N   UNL     1       0.972   7.829  21.199  0.00  0.00    +0.000 NA
ATOM     15  C   UNL     1       1.614   7.817  20.020  0.00  0.00    +0.000 A 
ATOM     16  H   UNL     1       1.887  11.103  17.930  0.00  0.00    +0.000 HD
BRANCH  11  17
ATOM     17  C   UNL     1       0.955  12.515  19.240  0.00  0.00    +0.000 C 
ATOM     18  C   UNL     1       1.048  13.634  18.214  0.00  0.00    +0.000 C 
ATOM     19  C   UNL     1       2.501  14.057  18.250  0.00  0.00    +0.000 C 
ATOM     20  O   UNL     1       3.012  13.746  19.542  0.00  0.00    +0.000 OA
ATOM     21  C   UNL     1       2.061  12.910  20.222  0.00  0.00    +0.000 C 
ENDBRANCH  11  17
ENDBRANCH   3   6
BRANCH   4  22
ATOM     22  O   UNL     1       0.559   4.184  20.343  0.00  0.00    +0.000 OA
ATOM     23  H   UNL     1       0.141   5.068  20.409  0.00  0.00    +0.000 HD
ENDBRANCH   4  22
BRANCH   5  24
ATOM     24  O   UNL     1       2.607   2.776  21.209  0.00  0.00    +0.000 OA
ATOM     25  H   UNL     1       2.083   1.954  21.261  0.00  0.00    +0.000 HD
ENDBRANCH   5  24
BRANCH   1  26
ATOM     26  C   UNL     1       4.488   3.679  18.047  0.00  0.00    +0.000 C 
BRANCH  26  27
ATOM     27  O   UNL     1       5.878   4.044  17.863  0.00  0.00    +0.000 OA
BRANCH  27  29
ATOM     28  N   UNL     1       5.931   4.137  15.585  0.00  0.00    +0.000 NA
ATOM     29  C   UNL     1       6.223   4.675  16.704  0.00  0.00    +0.000 C 
BRANCH  29  30
ATOM     30  S   UNL     1       7.045   6.212  16.923  0.00  0.00    +0.000 S 
ATOM     31  H   UNL     1       6.160   7.000  16.308  0.00  0.00    +0.000 HD
ENDBRANCH  29  30
BRANCH  28  32
ATOM     32  C   UNL     1       6.274   4.734  14.306  0.00  0.00    +0.000 C 
BRANCH  32  34
ATOM     33  C   UNL     1       6.959   3.804  12.059  0.00  0.00    +0.000 C 
ATOM     34  C   UNL     1       5.951   3.734  13.198  0.00  0.00    +0.000 C 
ENDBRANCH  32  34
ENDBRANCH  28  32
ENDBRANCH  27  29
ENDBRANCH  26  27
ENDBRANCH   1  26
TORSDOF 10
ENDMDL
MODEL 5
REMARK VINA RESULT:      -6.9      1.956      2.765
REMARK  Name = 
REMARK  11 active torsions:
REMARK  status: ('A' for Active; 'I' for Inactive)
REMARK    1  A    between atoms: C_1  and  C_2
REMARK    2  A    between atoms: C_2  and  C_3
REMARK    3  A    between atoms: C_3  and  N_4
REMARK    4  A    between atoms: C_5  and  S_6
REMARK    5  A    between atoms: C_5  and  O_7
REMARK    6  A    between atoms: O_7  and  C_8
REMARK    7  A    between atoms: C_8  and  C_9
REMARK    8  A    between atoms: C_11  and  N_12
REMARK    9  A    between atoms: N_17  and  C_18
REMARK   10  A    between atoms: C_27  and  O_28
REMARK   11  A    between atoms: C_29  and  O_30
REMARK                            x       y       z     vdW  Elec       q    Type
REMARK                         _______ _______ _______ _____ _____    ______ ____
ROOT
ATOM      1  C   UNL     1       4.264   4.239  18.757  0.00  0.00    +0.000 C 
ATOM      2  O   UNL     1       4.167   5.571  19.324  0.00  0.00    +0.000 OA
ATOM      3  C   UNL     1       2.815   5.796  19.796  0.00  0.00    +0.000 C 
ATOM      4  C   UNL     1       1.963   4.629  19.292  0.00  0.00    +0.000 C 
ATOM      5  C   UNL     1       2.996   3.513  19.204  0.00  0.00    +0.000 C 
ENDROOT
BRANCH   3   6
ATOM      6  N   UNL     1       2.360   7.103  19.357  0.00  0.00    +0.000 N 
ATOM      7  C   UNL     1       2.579   7.691  18.140  0.00  0.00    +0.000 A 
ATOM      8  N   UNL     1       2.092   8.916  18.087  0.00  0.00    +0.000 NA
ATOM      9  C   UNL     1       1.524   9.129  19.329  0.00  0.00    +0.000 A 
ATOM     10  C   UNL     1       0.886  10.256  19.905  0.00  0.00    +0.000 A 
ATOM     11  N   UNL     1       0.758  11.472  19.220  0.00  0.00    +0.000 N 
ATOM     12  N   UNL     1       0.425  10.123  21.180  0.00  0.00    +0.000 NA
ATOM     13  C   UNL     1       0.628   8.954  21.831  0.00  0.00    +0.000 A 
ATOM     14  N   UNL     1       1.262   7.848  21.396  0.00  0.00    +0.000 NA
ATOM     15  C   UNL     1       1.674   8.006  20.127  0.00  0.00    +0.000 A 
ATOM     16  H   UNL     1       1.374  11.499  18.412  0.00  0.00    +0.000 HD
BRANCH  11  17
ATOM     17  C   UNL     1       0.625  12.696  20.020  0.00  0.00    +0.000 C 
ATOM     18  C   UNL     1      -0.668  13.426  19.693  0.00  0.00    +0.000 C 
ATOM     19  C   UNL     1      -0.277  14.424  18.624  0.00  0.00    +0.000 C 
ATOM     20  O   UNL     1       1.106  14.721  18.794  0.00  0.00    +0.000 OA
ATOM     21  C   UNL     1       1.668  13.774  19.716  0.00  0.00    +0.000 C 
ENDBRANCH  11  17
ENDBRANCH   3   6
BRANCH   4  22
ATOM     22  O   UNL     1       0.901   4.276  20.175  0.00  0.00    +0.000 OA
ATOM     23  H   UNL     1       0.338   3.634  19.693  0.00  0.00    +0.000 HD
ENDBRANCH   4  22
BRANCH   5  24
ATOM     24  O   UNL     1       3.150   2.956  20.525  0.00  0.00    +0.000 OA
ATOM     25  H   UNL     1       2.384   2.383  20.722  0.00  0.00    +0.000 HD
ENDBRANCH   5  24
BRANCH   1  26
ATOM     26  C   UNL     1       4.407   4.341  17.231  0.00  0.00    +0.000 C 
BRANCH  26  27
ATOM     27  O   UNL     1       4.852   5.664  16.844  0.00  0.00    +0.000 OA
BRANCH  27  29
ATOM     28  N   UNL     1       6.475   7.207  17.275  0.00  0.00    +0.000 NA
ATOM     29  C   UNL     1       6.157   5.989  17.070  0.00  0.00    +0.000 C 
BRANCH  29  30
ATOM     30  S   UNL     1       7.265   4.625  17.059  0.00  0.00    +0.000 S 
ATOM     31  H   UNL     1       6.711   3.927  16.065  0.00  0.00    +0.000 HD
ENDBRANCH  29  30
BRANCH  28  32
ATOM     32  C   UNL     1       7.841   7.640  17.511  0.00  0.00    +0.000 C 
BRANCH  32  34
ATOM     33  C   UNL     1       8.903   9.556  18.770  0.00  0.00    +0.000 C 
ATOM     34  C   UNL     1       7.839   9.147  17.761  0.00  0.00    +0.000 C 
ENDBRANCH  32  34
ENDBRANCH  28  32
ENDBRANCH  27  29
ENDBRANCH  26  27
ENDBRANCH   1  26
TORSDOF 10
ENDMDL
MODEL 6
REMARK VINA RESULT:      -6.8      1.375      1.612
REMARK  Name = 
REMARK  11 active torsions:
REMARK  status: ('A' for Active; 'I' for Inactive)
REMARK    1  A    between atoms: C_1  and  C_2
REMARK    2  A    between atoms: C_2  and  C_3
REMARK    3  A    between atoms: C_3  and  N_4
REMARK    4  A    between atoms: C_5  and  S_6
REMARK    5  A    between atoms: C_5  and  O_7
REMARK    6  A    between atoms: O_7  and  C_8
REMARK    7  A    between atoms: C_8  and  C_9
REMARK    8  A    between atoms: C_11  and  N_12
REMARK    9  A    between atoms: N_17  and  C_18
REMARK   10  A    between atoms: C_27  and  O_28
REMARK   11  A    between atoms: C_29  and  O_30
REMARK                            x       y       z     vdW  Elec       q    Type
REMARK                         _______ _______ _______ _____ _____    ______ ____
ROOT
ATOM      1  C   UNL     1       5.332   4.558  17.126  0.00  0.00    +0.000 C 
ATOM      2  O   UNL     1       5.078   5.734  17.937  0.00  0.00    +0.000 OA
ATOM      3  C   UNL     1       3.768   5.624  18.549  0.00  0.00    +0.000 C 
ATOM      4  C   UNL     1       3.072   4.423  17.906  0.00  0.00    +0.000 C 
ATOM      5  C   UNL     1       4.261   3.546  17.529  0.00  0.00    +0.000 C 
ENDROOT
BRANCH   3   6
ATOM      6  N   UNL     1       3.056   6.880  18.399  0.00  0.00    +0.000 N 
ATOM      7  C   UNL     1       3.109   7.741  17.336  0.00  0.00    +0.000 A 
ATOM      8  N   UNL     1       2.397   8.831  17.545  0.00  0.00    +0.000 NA
ATOM      9  C   UNL     1       1.851   8.665  18.804  0.00  0.00    +0.000 A 
ATOM     10  C   UNL     1       1.035   9.501  19.607  0.00  0.00    +0.000 A 
ATOM     11  N   UNL     1       0.651  10.785  19.197  0.00  0.00    +0.000 N 
ATOM     12  N   UNL     1       0.661   9.018  20.824  0.00  0.00    +0.000 NA
ATOM     13  C   UNL     1       1.109   7.800  21.211  0.00  0.00    +0.000 A 
ATOM     14  N   UNL     1       1.923   6.955  20.550  0.00  0.00    +0.000 NA
ATOM     15  C   UNL     1       2.245   7.451  19.344  0.00  0.00    +0.000 A 
ATOM     16  H   UNL     1       1.217  11.100  18.413  0.00  0.00    +0.000 HD
BRANCH  11  17
ATOM     17  C   UNL     1       0.322  11.765  20.239  0.00  0.00    +0.000 C 
ATOM     18  C   UNL     1      -1.182  11.966  20.346  0.00  0.00    +0.000 C 
ATOM     19  C   UNL     1      -1.469  13.149  19.446  0.00  0.00    +0.000 C 
ATOM     20  O   UNL     1      -0.286  13.939  19.379  0.00  0.00    +0.000 OA
ATOM     21  C   UNL     1       0.799  13.190  19.951  0.00  0.00    +0.000 C 
ENDBRANCH  11  17
ENDBRANCH   3   6
BRANCH   4  22
ATOM     22  O   UNL     1       2.189   3.736  18.790  0.00  0.00    +0.000 OA
ATOM     23  H   UNL     1       2.177   4.248  19.626  0.00  0.00    +0.000 HD
ENDBRANCH   4  22
BRANCH   5  24
ATOM     24  O   UNL     1       4.651   2.812  18.707  0.00  0.00    +0.000 OA
ATOM     25  H   UNL     1       4.237   3.221  19.491  0.00  0.00    +0.000 HD
ENDBRANCH   5  24
BRANCH   1  26
ATOM     26  C   UNL     1       5.285   4.942  15.640  0.00  0.00    +0.000 C 
BRANCH  26  27
ATOM     27  O   UNL     1       6.618   5.186  15.129  0.00  0.00    +0.000 OA
BRANCH  27  29
ATOM     28  N   UNL     1       6.259   3.761  13.385  0.00  0.00    +0.000 NA
ATOM     29  C   UNL     1       6.910   4.744  13.872  0.00  0.00    +0.000 C 
BRANCH  29  30
ATOM     30  S   UNL     1       8.188   5.636  13.060  0.00  0.00    +0.000 S 
ATOM     31  H   UNL     1       7.559   5.879  11.907  0.00  0.00    +0.000 HD
ENDBRANCH  29  30
BRANCH  28  32
ATOM     32  C   UNL     1       6.516   3.221  12.061  0.00  0.00    +0.000 C 
BRANCH  32  34
ATOM     33  C   UNL     1       4.101   3.321  11.324  0.00  0.00    +0.000 C 
ATOM     34  C   UNL     1       5.293   2.421  11.615  0.00  0.00    +0.000 C 
ENDBRANCH  32  34
ENDBRANCH  28  32
ENDBRANCH  27  29
ENDBRANCH  26  27
ENDBRANCH   1  26
TORSDOF 10
ENDMDL
MODEL 7
REMARK VINA RESULT:      -6.8      1.121      1.293
REMARK  Name = 
REMARK  11 active torsions:
REMARK  status: ('A' for Active; 'I' for Inactive)
REMARK    1  A    between atoms: C_1  and  C_2
REMARK    2  A    between atoms: C_2  and  C_3
REMARK    3  A    between atoms: C_3  and  N_4
REMARK    4  A    between atoms: C_5  and  S_6
REMARK    5  A    between atoms: C_5  and  O_7
REMARK    6  A    between atoms: O_7  and  C_8
REMARK    7  A    between atoms: C_8  and  C_9
REMARK    8  A    between atoms: C_11  and  N_12
REMARK    9  A    between atoms: N_17  and  C_18
REMARK   10  A    between atoms: C_27  and  O_28
REMARK   11  A    between atoms: C_29  and  O_30
REMARK                            x       y       z     vdW  Elec       q    Type
REMARK                         _______ _______ _______ _____ _____    ______ ____
ROOT
ATOM      1  C   UNL     1       4.849   4.978  17.901  0.00  0.00    +0.000 C 
ATOM      2  O   UNL     1       4.459   6.132  18.688  0.00  0.00    +0.000 OA
ATOM      3  C   UNL     1       3.035   6.076  18.953  0.00  0.00    +0.000 C 
ATOM      4  C   UNL     1       2.463   4.946  18.095  0.00  0.00    +0.000 C 
ATOM      5  C   UNL     1       3.664   4.016  17.973  0.00  0.00    +0.000 C 
ENDROOT
BRANCH   3   6
ATOM      6  N   UNL     1       2.443   7.377  18.703  0.00  0.00    +0.000 N 
ATOM      7  C   UNL     1       2.528   8.119  17.555  0.00  0.00    +0.000 A 
ATOM      8  N   UNL     1       1.938   9.292  17.679  0.00  0.00    +0.000 NA
ATOM      9  C   UNL     1       1.441   9.308  18.969  0.00  0.00    +0.000 A 
ATOM     10  C   UNL     1       0.752  10.298  19.713  0.00  0.00    +0.000 A 
ATOM     11  N   UNL     1       0.475  11.568  19.188  0.00  0.00    +0.000 N 
ATOM     12  N   UNL     1       0.392   9.978  20.986  0.00  0.00    +0.000 NA
ATOM     13  C   UNL     1       0.736   8.765  21.479  0.00  0.00    +0.000 A 
ATOM     14  N   UNL     1       1.429   7.779  20.877  0.00  0.00    +0.000 NA
ATOM     15  C   UNL     1       1.739   8.119  19.615  0.00  0.00    +0.000 A 
ATOM     16  H   UNL     1       1.030  11.744  18.354  0.00  0.00    +0.000 HD
BRANCH  11  17
ATOM     17  C   UNL     1       0.296  12.675  20.136  0.00  0.00    +0.000 C 
ATOM     18  C   UNL     1      -0.813  13.610  19.680  0.00  0.00    +0.000 C 
ATOM     19  C   UNL     1      -0.097  14.687  18.892  0.00  0.00    +0.000 C 
ATOM     20  O   UNL     1       1.237  14.769  19.383  0.00  0.00    +0.000 OA
ATOM     21  C   UNL     1       1.484  13.635  20.230  0.00  0.00    +0.000 C 
ENDBRANCH  11  17
ENDBRANCH   3   6
BRANCH   4  22
ATOM     22  O   UNL     1       1.356   4.278  18.696  0.00  0.00    +0.000 OA
ATOM     23  H   UNL     1       1.458   3.325  18.487  0.00  0.00    +0.000 HD
ENDBRANCH   4  22
BRANCH   5  24
ATOM     24  O   UNL     1       3.715   3.211  19.169  0.00  0.00    +0.000 OA
ATOM     25  H   UNL     1       3.102   2.457  19.072  0.00  0.00    +0.000 HD
ENDBRANCH   5  24
BRANCH   1  26
ATOM     26  C   UNL     1       5.190   5.424  16.471  0.00  0.00    +0.000 C 
BRANCH  26  27
ATOM     27  O   UNL     1       4.871   4.382  15.517  0.00  0.00    +0.000 OA
BRANCH  27  29
ATOM     28  N   UNL     1       5.278   3.628  13.404  0.00  0.00    +0.000 NA
ATOM     29  C   UNL     1       5.706   4.216  14.451  0.00  0.00    +0.000 C 
BRANCH  29  30
ATOM     30  S   UNL     1       7.319   4.876  14.675  0.00  0.00    +0.000 S 
ATOM     31  H   UNL     1       8.001   3.981  13.955  0.00  0.00    +0.000 HD
ENDBRANCH  29  30
BRANCH  28  32
ATOM     32  C   UNL     1       6.105   3.399  12.232  0.00  0.00    +0.000 C 
BRANCH  32  34
ATOM     33  C   UNL     1       6.686   1.259  11.021  0.00  0.00    +0.000 C 
ATOM     34  C   UNL     1       5.566   2.179  11.486  0.00  0.00    +0.000 C 
ENDBRANCH  32  34
ENDBRANCH  28  32
ENDBRANCH  27  29
ENDBRANCH  26  27
ENDBRANCH   1  26
TORSDOF 10
ENDMDL
MODEL 8
REMARK VINA RESULT:      -6.8      2.451      3.239
REMARK  Name = 
REMARK  11 active torsions:
REMARK  status: ('A' for Active; 'I' for Inactive)
REMARK    1  A    between atoms: C_1  and  C_2
REMARK    2  A    between atoms: C_2  and  C_3
REMARK    3  A    between atoms: C_3  and  N_4
REMARK    4  A    between atoms: C_5  and  S_6
REMARK    5  A    between atoms: C_5  and  O_7
REMARK    6  A    between atoms: O_7  and  C_8
REMARK    7  A    between atoms: C_8  and  C_9
REMARK    8  A    between atoms: C_11  and  N_12
REMARK    9  A    between atoms: N_17  and  C_18
REMARK   10  A    between atoms: C_27  and  O_28
REMARK   11  A    between atoms: C_29  and  O_30
REMARK                            x       y       z     vdW  Elec       q    Type
REMARK                         _______ _______ _______ _____ _____    ______ ____
ROOT
ATOM      1  C   UNL     1       4.773   3.961  19.154  0.00  0.00    +0.000 C 
ATOM      2  O   UNL     1       4.192   5.141  19.765  0.00  0.00    +0.000 OA
ATOM      3  C   UNL     1       2.781   5.208  19.438  0.00  0.00    +0.000 C 
ATOM      4  C   UNL     1       2.514   4.136  18.379  0.00  0.00    +0.000 C 
ATOM      5  C   UNL     1       3.588   3.106  18.710  0.00  0.00    +0.000 C 
ENDROOT
BRANCH   3   6
ATOM      6  N   UNL     1       2.443   6.557  19.023  0.00  0.00    +0.000 N 
ATOM      7  C   UNL     1       2.723   7.149  17.821  0.00  0.00    +0.000 A 
ATOM      8  N   UNL     1       2.342   8.412  17.790  0.00  0.00    +0.000 NA
ATOM      9  C   UNL     1       1.781   8.647  19.032  0.00  0.00    +0.000 A 
ATOM     10  C   UNL     1       1.235   9.812  19.626  0.00  0.00    +0.000 A 
ATOM     11  N   UNL     1       1.218  11.048  18.966  0.00  0.00    +0.000 N 
ATOM     12  N   UNL     1       0.752   9.692  20.893  0.00  0.00    +0.000 NA
ATOM     13  C   UNL     1       0.848   8.497  21.521  0.00  0.00    +0.000 A 
ATOM     14  N   UNL     1       1.391   7.350  21.068  0.00  0.00    +0.000 NA
ATOM     15  C   UNL     1       1.828   7.498  19.806  0.00  0.00    +0.000 A 
ATOM     16  H   UNL     1       1.842  11.039  18.164  0.00  0.00    +0.000 HD
BRANCH  11  17
ATOM     17  C   UNL     1       1.181  12.262  19.790  0.00  0.00    +0.000 C 
ATOM     18  C   UNL     1      -0.186  12.927  19.723  0.00  0.00    +0.000 C 
ATOM     19  C   UNL     1      -0.054  13.946  18.611  0.00  0.00    +0.000 C 
ATOM     20  O   UNL     1       1.320  14.311  18.518  0.00  0.00    +0.000 OA
ATOM     21  C   UNL     1       2.093  13.392  19.306  0.00  0.00    +0.000 C 
ENDBRANCH  11  17
ENDBRANCH   3   6
BRANCH   4  22
ATOM     22  O   UNL     1       1.212   3.564  18.462  0.00  0.00    +0.000 OA
ATOM     23  H   UNL     1       1.196   2.812  17.834  0.00  0.00    +0.000 HD
ENDBRANCH   4  22
BRANCH   5  24
ATOM     24  O   UNL     1       3.092   2.294  19.794  0.00  0.00    +0.000 OA
ATOM     25  H   UNL     1       3.010   2.846  20.595  0.00  0.00    +0.000 HD
ENDBRANCH   5  24
BRANCH   1  26
ATOM     26  C   UNL     1       5.692   4.383  17.998  0.00  0.00    +0.000 C 
BRANCH  26  27
ATOM     27  O   UNL     1       6.772   5.220  18.479  0.00  0.00    +0.000 OA
BRANCH  27  29
ATOM     28  N   UNL     1       7.846   7.226  18.327  0.00  0.00    +0.000 NA
ATOM     29  C   UNL     1       6.955   6.432  17.879  0.00  0.00    +0.000 C 
BRANCH  29  30
ATOM     30  S   UNL     1       5.901   6.736  16.506  0.00  0.00    +0.000 S 
ATOM     31  H   UNL     1       6.046   8.062  16.435  0.00  0.00    +0.000 HD
ENDBRANCH  29  30
BRANCH  28  32
ATOM     32  C   UNL     1       8.096   8.538  17.756  0.00  0.00    +0.000 C 
BRANCH  32  34
ATOM     33  C   UNL     1       9.091  10.800  18.282  0.00  0.00    +0.000 C 
ATOM     34  C   UNL     1       8.826   9.390  18.792  0.00  0.00    +0.000 C 
ENDBRANCH  32  34
ENDBRANCH  28  32
ENDBRANCH  27  29
ENDBRANCH  26  27
ENDBRANCH   1  26
TORSDOF 10
ENDMDL
MODEL 9
REMARK VINA RESULT:      -6.7      1.459      2.294
REMARK  Name = 
REMARK  11 active torsions:
REMARK  status: ('A' for Active; 'I' for Inactive)
REMARK    1  A    between atoms: C_1  and  C_2
REMARK    2  A    between atoms: C_2  and  C_3
REMARK    3  A    between atoms: C_3  and  N_4
REMARK    4  A    between atoms: C_5  and  S_6
REMARK    5  A    between atoms: C_5  and  O_7
REMARK    6  A    between atoms: O_7  and  C_8
REMARK    7  A    between atoms: C_8  and  C_9
REMARK    8  A    between atoms: C_11  and  N_12
REMARK    9  A    between atoms: N_17  and  C_18
REMARK   10  A    between atoms: C_27  and  O_28
REMARK   11  A    between atoms: C_29  and  O_30
REMARK                            x       y       z     vdW  Elec       q    Type
REMARK                         _______ _______ _______ _____ _____    ______ ____
ROOT
ATOM      1  C   UNL     1       4.945   3.905  18.035  0.00  0.00    +0.000 C 
ATOM      2  O   UNL     1       4.475   4.478  19.282  0.00  0.00    +0.000 OA
ATOM      3  C   UNL     1       3.035   4.332  19.366  0.00  0.00    +0.000 C 
ATOM      4  C   UNL     1       2.552   3.847  17.997  0.00  0.00    +0.000 C 
ATOM      5  C   UNL     1       3.774   3.088  17.493  0.00  0.00    +0.000 C 
ENDROOT
BRANCH   3   6
ATOM      6  N   UNL     1       2.445   5.585  19.799  0.00  0.00    +0.000 N 
ATOM      7  C   UNL     1       1.719   5.809  20.938  0.00  0.00    +0.000 A 
ATOM      8  N   UNL     1       1.262   7.045  21.000  0.00  0.00    +0.000 NA
ATOM      9  C   UNL     1       1.722   7.653  19.846  0.00  0.00    +0.000 A 
ATOM     10  C   UNL     1       1.533   8.954  19.314  0.00  0.00    +0.000 A 
ATOM     11  N   UNL     1       0.726   9.909  19.947  0.00  0.00    +0.000 N 
ATOM     12  N   UNL     1       2.146   9.234  18.131  0.00  0.00    +0.000 NA
ATOM     13  C   UNL     1       2.862   8.262  17.518  0.00  0.00    +0.000 A 
ATOM     14  N   UNL     1       3.060   6.989  17.910  0.00  0.00    +0.000 NA
ATOM     15  C   UNL     1       2.467   6.759  19.094  0.00  0.00    +0.000 A 
ATOM     16  H   UNL     1       0.136   9.475  20.653  0.00  0.00    +0.000 HD
BRANCH  11  17
ATOM     17  C   UNL     1       0.133  10.962  19.114  0.00  0.00    +0.000 C 
ATOM     18  C   UNL     1       0.614  12.338  19.548  0.00  0.00    +0.000 C 
ATOM     19  C   UNL     1      -0.441  12.815  20.524  0.00  0.00    +0.000 C 
ATOM     20  O   UNL     1      -1.664  12.165  20.192  0.00  0.00    +0.000 OA
ATOM     21  C   UNL     1      -1.383  11.112  19.256  0.00  0.00    +0.000 C 
ENDBRANCH  11  17
ENDBRANCH   3   6
BRANCH   4  22
ATOM     22  O   UNL     1       1.411   2.995  18.064  0.00  0.00    +0.000 OA
ATOM     23  H   UNL     1       0.691   3.453  17.581  0.00  0.00    +0.000 HD
ENDBRANCH   4  22
BRANCH   5  24
ATOM     24  O   UNL     1       3.740   1.770  18.079  0.00  0.00    +0.000 OA
ATOM     25  H   UNL     1       2.858   1.617  18.469  0.00  0.00    +0.000 HD
ENDBRANCH   5  24
BRANCH   1  26
ATOM     26  C   UNL     1       5.394   5.032  17.092  0.00  0.00    +0.000 C 
BRANCH  26  27
ATOM     27  O   UNL     1       4.882   4.817  15.754  0.00  0.00    +0.000 OA
BRANCH  27  29
ATOM     28  N   UNL     1       5.362   3.941  13.703  0.00  0.00    +0.000 NA
ATOM     29  C   UNL     1       5.776   4.500  14.773  0.00  0.00    +0.000 C 
BRANCH  29  30
ATOM     30  S   UNL     1       7.440   4.937  15.128  0.00  0.00    +0.000 S 
ATOM     31  H   UNL     1       7.451   6.150  14.570  0.00  0.00    +0.000 HD
ENDBRANCH  29  30
BRANCH  28  32
ATOM     32  C   UNL     1       6.247   3.560  12.617  0.00  0.00    +0.000 C 
BRANCH  32  34
ATOM     33  C   UNL     1       4.127   3.208  11.288  0.00  0.00    +0.000 C 
ATOM     34  C   UNL     1       5.486   2.636  11.668  0.00  0.00    +0.000 C 
ENDBRANCH  32  34
ENDBRANCH  28  32
ENDBRANCH  27  29
ENDBRANCH  26  27
ENDBRANCH   1  26
TORSDOF 10
ENDMDL
