MODEL 1
REMARK VINA RESULT:      -6.4      0.000      0.000
REMARK  Name = 
REMARK  7 active torsions:
REMARK  status: ('A' for Active; 'I' for Inactive)
REMARK    1  A    between atoms: C_1  and  O_2
REMARK    2  A    between atoms: O_2  and  C_3
REMARK    3  A    between atoms: C_10  and  N_11
REMARK    4  A    between atoms: C_12  and  C_13
REMARK    5  A    between atoms: C_15  and  C_16
REMARK    6  A    between atoms: C_18  and  O_19
REMARK    7  A    between atoms: O_19  and  C_20
REMARK                            x       y       z     vdW  Elec       q    Type
REMARK                         _______ _______ _______ _____ _____    ______ ____
ROOT
ATOM      1  C   UNL     1       2.328   7.985  18.536  0.00  0.00    +0.000 A 
ATOM      2  C   UNL     1       1.984   9.120  17.803  0.00  0.00    +0.000 A 
ATOM      3  C   UNL     1       1.203  10.123  18.385  0.00  0.00    +0.000 A 
ATOM      4  C   UNL     1       0.775  10.019  19.719  0.00  0.00    +0.000 A 
ATOM      5  C   UNL     1       1.116   8.876  20.439  0.00  0.00    +0.000 A 
ATOM      6  C   UNL     1       1.881   7.865  19.852  0.00  0.00    +0.000 A 
ATOM      7  O   UNL     1       0.741   8.680  21.743  0.00  0.00    +0.000 OA
ATOM      8  C   UNL     1       0.064   9.677  22.431  0.00  0.00    +0.000 C 
ATOM      9  C   UNL     1      -0.335  10.823  21.837  0.00  0.00    +0.000 C 
ATOM     10  C   UNL     1      -0.056  11.105  20.375  0.00  0.00    +0.000 C 
ENDROOT
BRANCH  10  11
ATOM     11  C   UNL     1       0.550  12.493  20.158  0.00  0.00    +0.000 A 
ATOM     12  C   UNL     1       1.876  12.778  20.528  0.00  0.00    +0.000 A 
ATOM     13  C   UNL     1       2.441  14.048  20.334  0.00  0.00    +0.000 A 
ATOM     14  C   UNL     1       1.665  15.058  19.749  0.00  0.00    +0.000 A 
ATOM     15  C   UNL     1       0.350  14.769  19.346  0.00  0.00    +0.000 A 
ATOM     16  C   UNL     1      -0.208  13.508  19.564  0.00  0.00    +0.000 A 
ATOM     17  O   UNL     1      -0.477  15.675  18.726  0.00  0.00    +0.000 OA
ATOM     18  C   UNL     1       0.241  16.819  18.258  0.00  0.00    +0.000 C 
ATOM     19  C   UNL     1       1.208  17.302  19.318  0.00  0.00    +0.000 C 
ATOM     20  O   UNL     1       2.204  16.306  19.557  0.00  0.00    +0.000 OA
BRANCH  13  21
ATOM     21  O   UNL     1       3.736  14.110  20.777  0.00  0.00    +0.000 OA
ATOM     22  C   UNL     1       3.987  14.615  22.079  0.00  0.00    +0.000 C 
ENDBRANCH  13  21
ENDBRANCH  10  11
BRANCH   8  23
ATOM     23  N   UNL     1      -0.153   9.348  23.751  0.00  0.00    +0.000 N 
ATOM     24  H   UNL     1      -0.803   8.572  23.851  0.00  0.00    +0.000 HD
ATOM     25  H   UNL     1      -0.340  10.121  24.383  0.00  0.00    +0.000 HD
ENDBRANCH   8  23
BRANCH   1  27
ATOM     26  C   UNL     1       3.423   5.938  19.037  0.00  0.00    +0.000 C 
ATOM     27  O   UNL     1       3.087   6.940  18.084  0.00  0.00    +0.000 OA
ENDBRANCH   1  27
BRANCH   9  28
ATOM     28  C   UNL     1      -1.061  11.802  22.577  0.00  0.00    +0.000 C 
ATOM     29  N   UNL     1      -1.671  12.601  23.160  0.00  0.00    +0.000 NA
ENDBRANCH   9  28
TORSDOF 5
ENDMDL
MODEL 2
REMARK VINA RESULT:      -6.4      0.698      2.311
REMARK  Name = 
REMARK  7 active torsions:
REMARK  status: ('A' for Active; 'I' for Inactive)
REMARK    1  A    between atoms: C_1  and  O_2
REMARK    2  A    between atoms: O_2  and  C_3
REMARK    3  A    between atoms: C_10  and  N_11
REMARK    4  A    between atoms: C_12  and  C_13
REMARK    5  A    between atoms: C_15  and  C_16
REMARK    6  A    between atoms: C_18  and  O_19
REMARK    7  A    between atoms: O_19  and  C_20
REMARK                            x       y       z     vdW  Elec       q    Type
REMARK                         _______ _______ _______ _____ _____    ______ ____
ROOT
ATOM      1  C   UNL     1       2.341   7.855  18.584  0.00  0.00    +0.000 A 
ATOM      2  C   UNL     1       2.036   8.985  17.828  0.00  0.00    +0.000 A 
ATOM      3  C   UNL     1       1.277  10.019  18.385  0.00  0.00    +0.000 A 
ATOM      4  C   UNL     1       0.833   9.951  19.715  0.00  0.00    +0.000 A 
ATOM      5  C   UNL     1       1.137   8.812  20.459  0.00  0.00    +0.000 A 
ATOM      6  C   UNL     1       1.879   7.770  19.898  0.00  0.00    +0.000 A 
ATOM      7  O   UNL     1       0.744   8.650  21.763  0.00  0.00    +0.000 OA
ATOM      8  C   UNL     1       0.089   9.677  22.427  0.00  0.00    +0.000 C 
ATOM      9  C   UNL     1      -0.274  10.823  21.808  0.00  0.00    +0.000 C 
ATOM     10  C   UNL     1       0.027  11.071  20.344  0.00  0.00    +0.000 C 
ENDROOT
BRANCH  10  11
ATOM     11  C   UNL     1       0.672  12.438  20.109  0.00  0.00    +0.000 A 
ATOM     12  C   UNL     1      -0.012  13.463  19.433  0.00  0.00    +0.000 A 
ATOM     13  C   UNL     1       0.572  14.721  19.212  0.00  0.00    +0.000 A 
ATOM     14  C   UNL     1       1.869  14.964  19.685  0.00  0.00    +0.000 A 
ATOM     15  C   UNL     1       2.544  13.953  20.392  0.00  0.00    +0.000 A 
ATOM     16  C   UNL     1       1.962  12.700  20.586  0.00  0.00    +0.000 A 
ATOM     17  O   UNL     1       3.799  14.105  20.932  0.00  0.00    +0.000 OA
ATOM     18  C   UNL     1       4.199  15.476  20.973  0.00  0.00    +0.000 C 
ATOM     19  C   UNL     1       3.869  16.159  19.662  0.00  0.00    +0.000 C 
ATOM     20  O   UNL     1       2.453  16.188  19.473  0.00  0.00    +0.000 OA
BRANCH  13  21
ATOM     21  O   UNL     1      -0.261  15.563  18.524  0.00  0.00    +0.000 OA
ATOM     22  C   UNL     1      -0.980  16.551  19.245  0.00  0.00    +0.000 C 
ENDBRANCH  13  21
ENDBRANCH  10  11
BRANCH   8  23
ATOM     23  N   UNL     1      -0.149   9.378  23.749  0.00  0.00    +0.000 N 
ATOM     24  H   UNL     1       0.415   9.944  24.379  0.00  0.00    +0.000 HD
ATOM     25  H   UNL     1      -0.165   8.392  23.993  0.00  0.00    +0.000 HD
ENDBRANCH   8  23
BRANCH   1  27
ATOM     26  C   UNL     1       2.423   5.517  18.176  0.00  0.00    +0.000 C 
ATOM     27  O   UNL     1       3.076   6.782  18.158  0.00  0.00    +0.000 OA
ENDBRANCH   1  27
BRANCH   9  28
ATOM     28  C   UNL     1      -0.979  11.835  22.523  0.00  0.00    +0.000 C 
ATOM     29  N   UNL     1      -1.533  12.659  23.125  0.00  0.00    +0.000 NA
ENDBRANCH   9  28
TORSDOF 5
ENDMDL
MODEL 3
REMARK VINA RESULT:      -6.2      3.071      6.762
REMARK  Name = 
REMARK  7 active torsions:
REMARK  status: ('A' for Active; 'I' for Inactive)
REMARK    1  A    between atoms: C_1  and  O_2
REMARK    2  A    between atoms: O_2  and  C_3
REMARK    3  A    between atoms: C_10  and  N_11
REMARK    4  A    between atoms: C_12  and  C_13
REMARK    5  A    between atoms: C_15  and  C_16
REMARK    6  A    between atoms: C_18  and  O_19
REMARK    7  A    between atoms: O_19  and  C_20
REMARK                            x       y       z     vdW  Elec       q    Type
REMARK                         _______ _______ _______ _____ _____    ______ ____
ROOT
ATOM      1  C   UNL     1      -4.469  10.791  18.066  0.00  0.00    +0.000 A 
ATOM      2  C   UNL     1      -3.561   9.904  17.490  0.00  0.00    +0.000 A 
ATOM      3  C   UNL     1      -2.186  10.111  17.638  0.00  0.00    +0.000 A 
ATOM      4  C   UNL     1      -1.697  11.194  18.386  0.00  0.00    +0.000 A 
ATOM      5  C   UNL     1      -2.614  12.080  18.950  0.00  0.00    +0.000 A 
ATOM      6  C   UNL     1      -3.988  11.884  18.787  0.00  0.00    +0.000 A 
ATOM      7  O   UNL     1      -2.235  13.169  19.691  0.00  0.00    +0.000 OA
ATOM      8  C   UNL     1      -0.896  13.383  19.984  0.00  0.00    +0.000 C 
ATOM      9  C   UNL     1       0.087  12.601  19.483  0.00  0.00    +0.000 C 
ATOM     10  C   UNL     1      -0.210  11.425  18.575  0.00  0.00    +0.000 C 
ENDROOT
BRANCH  10  11
ATOM     11  C   UNL     1       0.510  10.152  19.024  0.00  0.00    +0.000 A 
ATOM     12  C   UNL     1       0.412   9.683  20.345  0.00  0.00    +0.000 A 
ATOM     13  C   UNL     1       1.069   8.516  20.766  0.00  0.00    +0.000 A 
ATOM     14  C   UNL     1       1.837   7.794  19.843  0.00  0.00    +0.000 A 
ATOM     15  C   UNL     1       1.910   8.240  18.511  0.00  0.00    +0.000 A 
ATOM     16  C   UNL     1       1.271   9.414  18.110  0.00  0.00    +0.000 A 
ATOM     17  O   UNL     1       2.600   7.582  17.521  0.00  0.00    +0.000 OA
ATOM     18  C   UNL     1       2.960   6.256  17.914  0.00  0.00    +0.000 C 
ATOM     19  C   UNL     1       3.509   6.256  19.325  0.00  0.00    +0.000 C 
ATOM     20  O   UNL     1       2.488   6.653  20.242  0.00  0.00    +0.000 OA
BRANCH  13  21
ATOM     21  O   UNL     1       0.851   8.251  22.093  0.00  0.00    +0.000 OA
ATOM     22  C   UNL     1       0.260   9.256  22.901  0.00  0.00    +0.000 C 
ENDBRANCH  13  21
ENDBRANCH  10  11
BRANCH   8  23
ATOM     23  N   UNL     1      -0.706  14.467  20.811  0.00  0.00    +0.000 N 
ATOM     24  H   UNL     1      -0.468  15.308  20.292  0.00  0.00    +0.000 HD
ATOM     25  H   UNL     1      -0.123  14.313  21.629  0.00  0.00    +0.000 HD
ENDBRANCH   8  23
BRANCH   1  27
ATOM     26  C   UNL     1      -6.563  11.907  18.162  0.00  0.00    +0.000 C 
ATOM     27  O   UNL     1      -5.832  10.697  17.997  0.00  0.00    +0.000 OA
ENDBRANCH   1  27
BRANCH   9  28
ATOM     28  C   UNL     1       1.452  12.882  19.783  0.00  0.00    +0.000 C 
ATOM     29  N   UNL     1       2.563  13.095  20.049  0.00  0.00    +0.000 NA
ENDBRANCH   9  28
TORSDOF 5
ENDMDL
MODEL 4
REMARK VINA RESULT:      -6.1      3.879      5.821
REMARK  Name = 
REMARK  7 active torsions:
REMARK  status: ('A' for Active; 'I' for Inactive)
REMARK    1  A    between atoms: C_1  and  O_2
REMARK    2  A    between atoms: O_2  and  C_3
REMARK    3  A    between atoms: C_10  and  N_11
REMARK    4  A    between atoms: C_12  and  C_13
REMARK    5  A    between atoms: C_15  and  C_16
REMARK    6  A    between atoms: C_18  and  O_19
REMARK    7  A    between atoms: O_19  and  C_20
REMARK                            x       y       z     vdW  Elec       q    Type
REMARK                         _______ _______ _______ _____ _____    ______ ____
ROOT
ATOM      1  C   UNL     1       0.322   8.840  21.423  0.00  0.00    +0.000 A 
ATOM      2  C   UNL     1      -0.083   9.398  22.634  0.00  0.00    +0.000 A 
ATOM      3  C   UNL     1      -0.468  10.741  22.696  0.00  0.00    +0.000 A 
ATOM      4  C   UNL     1      -0.479  11.541  21.541  0.00  0.00    +0.000 A 
ATOM      5  C   UNL     1      -0.064  10.975  20.337  0.00  0.00    +0.000 A 
ATOM      6  C   UNL     1       0.339   9.639  20.278  0.00  0.00    +0.000 A 
ATOM      7  O   UNL     1      -0.034  11.675  19.159  0.00  0.00    +0.000 OA
ATOM      8  C   UNL     1      -0.509  12.978  19.109  0.00  0.00    +0.000 C 
ATOM      9  C   UNL     1      -0.924  13.639  20.213  0.00  0.00    +0.000 C 
ATOM     10  C   UNL     1      -0.912  12.994  21.583  0.00  0.00    +0.000 C 
ENDROOT
BRANCH  10  11
ATOM     11  C   UNL     1      -2.243  13.169  22.317  0.00  0.00    +0.000 A 
ATOM     12  C   UNL     1      -2.332  13.920  23.502  0.00  0.00    +0.000 A 
ATOM     13  C   UNL     1      -3.548  14.087  24.183  0.00  0.00    +0.000 A 
ATOM     14  C   UNL     1      -4.707  13.496  23.663  0.00  0.00    +0.000 A 
ATOM     15  C   UNL     1      -4.631  12.773  22.459  0.00  0.00    +0.000 A 
ATOM     16  C   UNL     1      -3.412  12.595  21.804  0.00  0.00    +0.000 A 
ATOM     17  O   UNL     1      -5.715  12.192  21.846  0.00  0.00    +0.000 OA
ATOM     18  C   UNL     1      -6.951  12.666  22.386  0.00  0.00    +0.000 C 
ATOM     19  C   UNL     1      -6.884  12.699  23.898  0.00  0.00    +0.000 C 
ATOM     20  O   UNL     1      -5.903  13.647  24.320  0.00  0.00    +0.000 OA
BRANCH  13  21
ATOM     21  O   UNL     1      -3.405  14.839  25.319  0.00  0.00    +0.000 OA
ATOM     22  C   UNL     1      -2.118  15.337  25.650  0.00  0.00    +0.000 C 
ENDBRANCH  13  21
ENDBRANCH  10  11
BRANCH   8  23
ATOM     23  N   UNL     1      -0.488  13.495  17.833  0.00  0.00    +0.000 N 
ATOM     24  H   UNL     1      -0.806  12.821  17.140  0.00  0.00    +0.000 HD
ATOM     25  H   UNL     1       0.356  13.990  17.562  0.00  0.00    +0.000 HD
ENDBRANCH   8  23
BRANCH   1  27
ATOM     26  C   UNL     1       1.833   7.339  20.374  0.00  0.00    +0.000 C 
ATOM     27  O   UNL     1       0.716   7.544  21.231  0.00  0.00    +0.000 OA
ENDBRANCH   1  27
BRANCH   9  28
ATOM     28  C   UNL     1      -1.370  14.990  20.117  0.00  0.00    +0.000 C 
ATOM     29  N   UNL     1      -1.723  16.092  20.013  0.00  0.00    +0.000 NA
ENDBRANCH   9  28
TORSDOF 5
ENDMDL
MODEL 5
REMARK VINA RESULT:      -6.1      5.747      8.667
REMARK  Name = 
REMARK  7 active torsions:
REMARK  status: ('A' for Active; 'I' for Inactive)
REMARK    1  A    between atoms: C_1  and  O_2
REMARK    2  A    between atoms: O_2  and  C_3
REMARK    3  A    between atoms: C_10  and  N_11
REMARK    4  A    between atoms: C_12  and  C_13
REMARK    5  A    between atoms: C_15  and  C_16
REMARK    6  A    between atoms: C_18  and  O_19
REMARK    7  A    between atoms: O_19  and  C_20
REMARK                            x       y       z     vdW  Elec       q    Type
REMARK                         _______ _______ _______ _____ _____    ______ ____
ROOT
ATOM      1  C   UNL     1       2.213   2.700  21.133  0.00  0.00    +0.000 A 
ATOM      2  C   UNL     1       2.631   2.372  19.845  0.00  0.00    +0.000 A 
ATOM      3  C   UNL     1       2.760   3.369  18.872  0.00  0.00    +0.000 A 
ATOM      4  C   UNL     1       2.497   4.714  19.181  0.00  0.00    +0.000 A 
ATOM      5  C   UNL     1       2.071   5.028  20.470  0.00  0.00    +0.000 A 
ATOM      6  C   UNL     1       1.924   4.031  21.436  0.00  0.00    +0.000 A 
ATOM      7  O   UNL     1       1.785   6.310  20.866  0.00  0.00    +0.000 OA
ATOM      8  C   UNL     1       1.997   7.372  19.998  0.00  0.00    +0.000 C 
ATOM      9  C   UNL     1       2.394   7.192  18.718  0.00  0.00    +0.000 C 
ATOM     10  C   UNL     1       2.650   5.812  18.147  0.00  0.00    +0.000 C 
ENDROOT
BRANCH  10  11
ATOM     11  C   UNL     1       3.993   5.727  17.421  0.00  0.00    +0.000 A 
ATOM     12  C   UNL     1       5.175   6.209  18.010  0.00  0.00    +0.000 A 
ATOM     13  C   UNL     1       6.413   6.135  17.352  0.00  0.00    +0.000 A 
ATOM     14  C   UNL     1       6.475   5.558  16.077  0.00  0.00    +0.000 A 
ATOM     15  C   UNL     1       5.302   5.044  15.497  0.00  0.00    +0.000 A 
ATOM     16  C   UNL     1       4.073   5.143  16.151  0.00  0.00    +0.000 A 
ATOM     17  O   UNL     1       5.263   4.422  14.272  0.00  0.00    +0.000 OA
ATOM     18  C   UNL     1       6.571   4.079  13.807  0.00  0.00    +0.000 C 
ATOM     19  C   UNL     1       7.524   5.235  14.021  0.00  0.00    +0.000 C 
ATOM     20  O   UNL     1       7.678   5.483  15.420  0.00  0.00    +0.000 OA
BRANCH  13  21
ATOM     21  O   UNL     1       7.428   6.675  18.099  0.00  0.00    +0.000 OA
ATOM     22  C   UNL     1       7.908   5.952  19.221  0.00  0.00    +0.000 C 
ENDBRANCH  13  21
ENDBRANCH  10  11
BRANCH   8  23
ATOM     23  N   UNL     1       1.744   8.589  20.589  0.00  0.00    +0.000 N 
ATOM     24  H   UNL     1       2.518   9.240  20.476  0.00  0.00    +0.000 HD
ATOM     25  H   UNL     1       1.369   8.563  21.532  0.00  0.00    +0.000 HD
ENDBRANCH   8  23
BRANCH   1  27
ATOM     26  C   UNL     1       0.805   1.862  22.852  0.00  0.00    +0.000 C 
ATOM     27  O   UNL     1       2.053   1.821  22.170  0.00  0.00    +0.000 OA
ENDBRANCH   1  27
BRANCH   9  28
ATOM     28  C   UNL     1       2.564   8.313  17.854  0.00  0.00    +0.000 C 
ATOM     29  N   UNL     1       2.699   9.243  17.171  0.00  0.00    +0.000 NA
ENDBRANCH   9  28
TORSDOF 5
ENDMDL
MODEL 6
REMARK VINA RESULT:      -6.1      3.748      5.365
REMARK  Name = 
REMARK  7 active torsions:
REMARK  status: ('A' for Active; 'I' for Inactive)
REMARK    1  A    between atoms: C_1  and  O_2
REMARK    2  A    between atoms: O_2  and  C_3
REMARK    3  A    between atoms: C_10  and  N_11
REMARK    4  A    between atoms: C_12  and  C_13
REMARK    5  A    between atoms: C_15  and  C_16
REMARK    6  A    between atoms: C_18  and  O_19
REMARK    7  A    between atoms: O_19  and  C_20
REMARK                            x       y       z     vdW  Elec       q    Type
REMARK                         _______ _______ _______ _____ _____    ______ ____
ROOT
ATOM      1  C   UNL     1       0.979   8.014  20.803  0.00  0.00    +0.000 A 
ATOM      2  C   UNL     1      -0.085   8.504  21.557  0.00  0.00    +0.000 A 
ATOM      3  C   UNL     1      -0.498   9.833  21.411  0.00  0.00    +0.000 A 
ATOM      4  C   UNL     1       0.132  10.685  20.489  0.00  0.00    +0.000 A 
ATOM      5  C   UNL     1       1.201  10.187  19.748  0.00  0.00    +0.000 A 
ATOM      6  C   UNL     1       1.626   8.865  19.906  0.00  0.00    +0.000 A 
ATOM      7  O   UNL     1       1.883  10.942  18.828  0.00  0.00    +0.000 OA
ATOM      8  C   UNL     1       1.465  12.232  18.537  0.00  0.00    +0.000 C 
ATOM      9  C   UNL     1       0.450  12.830  19.201  0.00  0.00    +0.000 C 
ATOM     10  C   UNL     1      -0.313  12.122  20.301  0.00  0.00    +0.000 C 
ENDROOT
BRANCH  10  11
ATOM     11  C   UNL     1      -1.828  12.229  20.116  0.00  0.00    +0.000 A 
ATOM     12  C   UNL     1      -2.647  12.809  21.100  0.00  0.00    +0.000 A 
ATOM     13  C   UNL     1      -4.038  12.911  20.939  0.00  0.00    +0.000 A 
ATOM     14  C   UNL     1      -4.625  12.429  19.762  0.00  0.00    +0.000 A 
ATOM     15  C   UNL     1      -3.807  11.879  18.760  0.00  0.00    +0.000 A 
ATOM     16  C   UNL     1      -2.429  11.763  18.940  0.00  0.00    +0.000 A 
ATOM     17  O   UNL     1      -4.280  11.417  17.554  0.00  0.00    +0.000 OA
ATOM     18  C   UNL     1      -5.622  11.844  17.309  0.00  0.00    +0.000 C 
ATOM     19  C   UNL     1      -6.466  11.664  18.554  0.00  0.00    +0.000 C 
ATOM     20  O   UNL     1      -5.985  12.519  19.593  0.00  0.00    +0.000 OA
BRANCH  13  21
ATOM     21  O   UNL     1      -4.641  13.494  22.022  0.00  0.00    +0.000 OA
ATOM     22  C   UNL     1      -4.422  12.936  23.308  0.00  0.00    +0.000 C 
ENDBRANCH  13  21
ENDBRANCH  10  11
BRANCH   8  23
ATOM     23  N   UNL     1       2.205  12.809  17.530  0.00  0.00    +0.000 N 
ATOM     24  H   UNL     1       1.886  12.524  16.607  0.00  0.00    +0.000 HD
ATOM     25  H   UNL     1       3.215  12.778  17.639  0.00  0.00    +0.000 HD
ENDBRANCH   8  23
BRANCH   1  27
ATOM     26  C   UNL     1       2.325   6.346  19.781  0.00  0.00    +0.000 C 
ATOM     27  O   UNL     1       1.473   6.739  20.851  0.00  0.00    +0.000 OA
ENDBRANCH   1  27
BRANCH   9  28
ATOM     28  C   UNL     1       0.081  14.172  18.891  0.00  0.00    +0.000 C 
ATOM     29  N   UNL     1      -0.247  15.258  18.642  0.00  0.00    +0.000 NA
ENDBRANCH   9  28
TORSDOF 5
ENDMDL
MODEL 7
REMARK VINA RESULT:      -5.9      7.804      9.975
REMARK  Name = 
REMARK  7 active torsions:
REMARK  status: ('A' for Active; 'I' for Inactive)
REMARK    1  A    between atoms: C_1  and  O_2
REMARK    2  A    between atoms: O_2  and  C_3
REMARK    3  A    between atoms: C_10  and  N_11
REMARK    4  A    between atoms: C_12  and  C_13
REMARK    5  A    between atoms: C_15  and  C_16
REMARK    6  A    between atoms: C_18  and  O_19
REMARK    7  A    between atoms: O_19  and  C_20
REMARK                            x       y       z     vdW  Elec       q    Type
REMARK                         _______ _______ _______ _____ _____    ______ ____
ROOT
ATOM      1  C   UNL     1       9.367  10.346  19.236  0.00  0.00    +0.000 A 
ATOM      2  C   UNL     1       9.492  10.833  20.536  0.00  0.00    +0.000 A 
ATOM      3  C   UNL     1       9.986  12.122  20.760  0.00  0.00    +0.000 A 
ATOM      4  C   UNL     1      10.340  12.954  19.686  0.00  0.00    +0.000 A 
ATOM      5  C   UNL     1      10.220  12.454  18.391  0.00  0.00    +0.000 A 
ATOM      6  C   UNL     1       9.744  11.160  18.167  0.00  0.00    +0.000 A 
ATOM      7  O   UNL     1      10.545  13.187  17.279  0.00  0.00    +0.000 OA
ATOM      8  C   UNL     1      10.932  14.514  17.406  0.00  0.00    +0.000 C 
ATOM      9  C   UNL     1      11.099  15.106  18.610  0.00  0.00    +0.000 C 
ATOM     10  C   UNL     1      10.859  14.362  19.907  0.00  0.00    +0.000 C 
ENDROOT
BRANCH  10  11
ATOM     11  C   UNL     1       9.970  15.150  20.870  0.00  0.00    +0.000 A 
ATOM     12  C   UNL     1       8.650  15.496  20.531  0.00  0.00    +0.000 A 
ATOM     13  C   UNL     1       7.826  16.220  21.407  0.00  0.00    +0.000 A 
ATOM     14  C   UNL     1       8.330  16.601  22.658  0.00  0.00    +0.000 A 
ATOM     15  C   UNL     1       9.637  16.229  23.017  0.00  0.00    +0.000 A 
ATOM     16  C   UNL     1      10.454  15.528  22.128  0.00  0.00    +0.000 A 
ATOM     17  O   UNL     1      10.208  16.516  24.233  0.00  0.00    +0.000 OA
ATOM     18  C   UNL     1       9.237  16.946  25.190  0.00  0.00    +0.000 C 
ATOM     19  C   UNL     1       8.288  17.945  24.562  0.00  0.00    +0.000 C 
ATOM     20  O   UNL     1       7.536  17.313  23.524  0.00  0.00    +0.000 OA
BRANCH  13  21
ATOM     21  O   UNL     1       6.588  16.461  20.872  0.00  0.00    +0.000 OA
ATOM     22  C   UNL     1       6.403  17.622  20.078  0.00  0.00    +0.000 C 
ENDBRANCH  13  21
ENDBRANCH  10  11
BRANCH   8  23
ATOM     23  N   UNL     1      11.132  15.121  16.187  0.00  0.00    +0.000 N 
ATOM     24  H   UNL     1      11.796  14.611  15.608  0.00  0.00    +0.000 HD
ATOM     25  H   UNL     1      11.292  16.124  16.203  0.00  0.00    +0.000 HD
ENDBRANCH   8  23
BRANCH   1  27
ATOM     26  C   UNL     1       7.986   9.063  17.792  0.00  0.00    +0.000 C 
ATOM     27  O   UNL     1       8.895   9.111  18.886  0.00  0.00    +0.000 OA
ENDBRANCH   1  27
BRANCH   9  28
ATOM     28  C   UNL     1      11.535  16.461  18.690  0.00  0.00    +0.000 C 
ATOM     29  N   UNL     1      11.912  17.558  18.742  0.00  0.00    +0.000 NA
ENDBRANCH   9  28
TORSDOF 5
ENDMDL
MODEL 8
REMARK VINA RESULT:      -5.9      3.209      6.591
REMARK  Name = 
REMARK  7 active torsions:
REMARK  status: ('A' for Active; 'I' for Inactive)
REMARK    1  A    between atoms: C_1  and  O_2
REMARK    2  A    between atoms: O_2  and  C_3
REMARK    3  A    between atoms: C_10  and  N_11
REMARK    4  A    between atoms: C_12  and  C_13
REMARK    5  A    between atoms: C_15  and  C_16
REMARK    6  A    between atoms: C_18  and  O_19
REMARK    7  A    between atoms: O_19  and  C_20
REMARK                            x       y       z     vdW  Elec       q    Type
REMARK                         _______ _______ _______ _____ _____    ______ ____
ROOT
ATOM      1  C   UNL     1      -5.026  11.269  18.281  0.00  0.00    +0.000 A 
ATOM      2  C   UNL     1      -4.000  10.616  17.600  0.00  0.00    +0.000 A 
ATOM      3  C   UNL     1      -2.664  10.899  17.901  0.00  0.00    +0.000 A 
ATOM      4  C   UNL     1      -2.333  11.822  18.906  0.00  0.00    +0.000 A 
ATOM      5  C   UNL     1      -3.366  12.476  19.574  0.00  0.00    +0.000 A 
ATOM      6  C   UNL     1      -4.701  12.207  19.261  0.00  0.00    +0.000 A 
ATOM      7  O   UNL     1      -3.144  13.396  20.566  0.00  0.00    +0.000 OA
ATOM      8  C   UNL     1      -1.853  13.650  21.006  0.00  0.00    +0.000 C 
ATOM      9  C   UNL     1      -0.768  13.088  20.427  0.00  0.00    +0.000 C 
ATOM     10  C   UNL     1      -0.891  12.128  19.262  0.00  0.00    +0.000 C 
ENDROOT
BRANCH  10  11
ATOM     11  C   UNL     1      -0.075  10.852  19.475  0.00  0.00    +0.000 A 
ATOM     12  C   UNL     1      -0.088  10.173  20.706  0.00  0.00    +0.000 A 
ATOM     13  C   UNL     1       0.658   9.001  20.912  0.00  0.00    +0.000 A 
ATOM     14  C   UNL     1       1.430   8.490  19.861  0.00  0.00    +0.000 A 
ATOM     15  C   UNL     1       1.419   9.146  18.617  0.00  0.00    +0.000 A 
ATOM     16  C   UNL     1       0.692  10.322  18.431  0.00  0.00    +0.000 A 
ATOM     17  O   UNL     1       2.107   8.703  17.513  0.00  0.00    +0.000 OA
ATOM     18  C   UNL     1       2.565   7.358  17.674  0.00  0.00    +0.000 C 
ATOM     19  C   UNL     1       3.171   7.171  19.049  0.00  0.00    +0.000 C 
ATOM     20  O   UNL     1       2.167   7.347  20.050  0.00  0.00    +0.000 OA
BRANCH  13  21
ATOM     21  O   UNL     1       0.512   8.514  22.185  0.00  0.00    +0.000 OA
ATOM     22  C   UNL     1       0.090   9.399  23.210  0.00  0.00    +0.000 C 
ENDBRANCH  13  21
ENDBRANCH  10  11
BRANCH   8  23
ATOM     23  N   UNL     1      -1.823  14.530  22.065  0.00  0.00    +0.000 N 
ATOM     24  H   UNL     1      -1.081  15.218  21.971  0.00  0.00    +0.000 HD
ATOM     25  H   UNL     1      -1.885  14.121  22.993  0.00  0.00    +0.000 HD
ENDBRANCH   8  23
BRANCH   1  27
ATOM     26  C   UNL     1      -7.165  12.250  17.960  0.00  0.00    +0.000 C 
ATOM     27  O   UNL     1      -6.366  11.078  18.082  0.00  0.00    +0.000 OA
ENDBRANCH   1  27
BRANCH   9  28
ATOM     28  C   UNL     1       0.542  13.408  20.891  0.00  0.00    +0.000 C 
ATOM     29  N   UNL     1       1.600  13.663  21.295  0.00  0.00    +0.000 NA
ENDBRANCH   9  28
TORSDOF 5
ENDMDL
MODEL 9
REMARK VINA RESULT:      -5.9      3.711      5.488
REMARK  Name = 
REMARK  7 active torsions:
REMARK  status: ('A' for Active; 'I' for Inactive)
REMARK    1  A    between atoms: C_1  and  O_2
REMARK    2  A    between atoms: O_2  and  C_3
REMARK    3  A    between atoms: C_10  and  N_11
REMARK    4  A    between atoms: C_12  and  C_13
REMARK    5  A    between atoms: C_15  and  C_16
REMARK    6  A    between atoms: C_18  and  O_19
REMARK    7  A    between atoms: O_19  and  C_20
REMARK                            x       y       z     vdW  Elec       q    Type
REMARK                         _______ _______ _______ _____ _____    ______ ____
ROOT
ATOM      1  C   UNL     1       0.953   8.088  20.812  0.00  0.00    +0.000 A 
ATOM      2  C   UNL     1      -0.084   8.579  21.602  0.00  0.00    +0.000 A 
ATOM      3  C   UNL     1      -0.498   9.909  21.472  0.00  0.00    +0.000 A 
ATOM      4  C   UNL     1       0.103  10.761  20.531  0.00  0.00    +0.000 A 
ATOM      5  C   UNL     1       1.145  10.261  19.753  0.00  0.00    +0.000 A 
ATOM      6  C   UNL     1       1.571   8.939  19.896  0.00  0.00    +0.000 A 
ATOM      7  O   UNL     1       1.798  11.016  18.813  0.00  0.00    +0.000 OA
ATOM      8  C   UNL     1       1.374  12.309  18.538  0.00  0.00    +0.000 C 
ATOM      9  C   UNL     1       0.383  12.908  19.237  0.00  0.00    +0.000 C 
ATOM     10  C   UNL     1      -0.345  12.200  20.361  0.00  0.00    +0.000 C 
ENDROOT
BRANCH  10  11
ATOM     11  C   UNL     1      -1.864  12.311  20.226  0.00  0.00    +0.000 A 
ATOM     12  C   UNL     1      -2.527  11.903  19.055  0.00  0.00    +0.000 A 
ATOM     13  C   UNL     1      -3.921  12.001  18.922  0.00  0.00    +0.000 A 
ATOM     14  C   UNL     1      -4.674  12.511  19.988  0.00  0.00    +0.000 A 
ATOM     15  C   UNL     1      -4.020  12.888  21.174  0.00  0.00    +0.000 A 
ATOM     16  C   UNL     1      -2.632  12.807  21.286  0.00  0.00    +0.000 A 
ATOM     17  O   UNL     1      -4.671  13.359  22.289  0.00  0.00    +0.000 OA
ATOM     18  C   UNL     1      -6.080  13.125  22.223  0.00  0.00    +0.000 C 
ATOM     19  C   UNL     1      -6.608  13.484  20.851  0.00  0.00    +0.000 C 
ATOM     20  O   UNL     1      -6.038  12.616  19.869  0.00  0.00    +0.000 OA
BRANCH  13  21
ATOM     21  O   UNL     1      -4.354  11.563  17.697  0.00  0.00    +0.000 OA
ATOM     22  C   UNL     1      -3.438  10.886  16.852  0.00  0.00    +0.000 C 
ENDBRANCH  13  21
ENDBRANCH  10  11
BRANCH   8  23
ATOM     23  N   UNL     1       2.082  12.885  17.508  0.00  0.00    +0.000 N 
ATOM     24  H   UNL     1       2.761  13.565  17.841  0.00  0.00    +0.000 HD
ATOM     25  H   UNL     1       1.537  13.208  16.713  0.00  0.00    +0.000 HD
ENDBRANCH   8  23
BRANCH   1  27
ATOM     26  C   UNL     1       2.356   6.457  19.808  0.00  0.00    +0.000 C 
ATOM     27  O   UNL     1       1.444   6.811  20.841  0.00  0.00    +0.000 OA
ENDBRANCH   1  27
BRANCH   9  28
ATOM     28  C   UNL     1       0.007  14.251  18.942  0.00  0.00    +0.000 C 
ATOM     29  N   UNL     1      -0.287  15.354  18.725  0.00  0.00    +0.000 NA
ENDBRANCH   9  28
TORSDOF 5
ENDMDL
