MODEL 1
REMARK VINA RESULT:      -8.5      0.000      0.000
REMARK  Name = 
REMARK  7 active torsions:
REMARK  status: ('A' for Active; 'I' for Inactive)
REMARK    1  A    between atoms: C_1  and  C_2
REMARK    2  A    between atoms: N_4  and  C_5
REMARK    3  A    between atoms: C_10  and  N_11
REMARK    4  A    between atoms: N_11  and  S_12
REMARK    5  A    between atoms: S_12  and  C_15
REMARK    6  A    between atoms: C_18  and  C_19
REMARK    7  A    between atoms: C_29  and  C_30
REMARK                            x       y       z     vdW  Elec       q    Type
REMARK                         _______ _______ _______ _____ _____    ______ ____
ROOT
ATOM      1  N   UNL     1      -0.423   9.899  20.694  0.00  0.00    +0.000 N 
ATOM      2  H   UNL     1      -1.174   9.274  20.985  0.00  0.00    +0.000 HD
ENDROOT
BRANCH   1   8
ATOM      3  C   UNL     1       2.206   7.603  19.289  0.00  0.00    +0.000 A 
ATOM      4  C   UNL     1       2.516   8.311  18.118  0.00  0.00    +0.000 A 
ATOM      5  C   UNL     1       1.897   9.523  17.809  0.00  0.00    +0.000 A 
ATOM      6  C   UNL     1       0.946  10.047  18.672  0.00  0.00    +0.000 A 
ATOM      7  F   UNL     1       0.347  11.202  18.346  0.00  0.00    +0.000 F 
ATOM      8  C   UNL     1       0.590   9.368  19.836  0.00  0.00    +0.000 A 
ATOM      9  C   UNL     1       1.222   8.154  20.138  0.00  0.00    +0.000 A 
BRANCH   3  13
ATOM     10  C   UNL     1       1.227   3.077  20.705  0.00  0.00    +0.000 C 
ATOM     11  C   UNL     1       1.733   4.133  19.723  0.00  0.00    +0.000 C 
ATOM     12  C   UNL     1       2.175   5.407  20.488  0.00  0.00    +0.000 C 
ATOM     13  N   UNL     1       2.814   6.394  19.599  0.00  0.00    +0.000 N 
ATOM     14  C   UNL     1       3.841   5.851  18.685  0.00  0.00    +0.000 C 
ATOM     15  C   UNL     1       3.353   4.548  17.982  0.00  0.00    +0.000 C 
ATOM     16  C   UNL     1       4.502   3.909  17.199  0.00  0.00    +0.000 C 
ATOM     17  N   UNL     1       2.825   3.535  18.924  0.00  0.00    +0.000 NA
ATOM     18  H   UNL     1       3.578   3.262  19.557  0.00  0.00    +0.000 HD
ENDBRANCH   3  13
ENDBRANCH   1   8
BRANCH   1  19
ATOM     19  S   UNL     1       0.005  10.973  21.918  0.00  0.00    +0.000 S 
ATOM     20  O   UNL     1       0.251  10.166  23.092  0.00  0.00    +0.000 OA
ATOM     21  O   UNL     1       1.019  11.873  21.412  0.00  0.00    +0.000 OA
BRANCH  19  22
ATOM     22  C   UNL     1      -1.471  11.904  22.242  0.00  0.00    +0.000 A 
ATOM     23  C   UNL     1      -1.862  12.939  21.387  0.00  0.00    +0.000 A 
ATOM     24  C   UNL     1      -3.011  13.682  21.684  0.00  0.00    +0.000 A 
ATOM     25  C   UNL     1      -3.770  13.402  22.834  0.00  0.00    +0.000 A 
ATOM     26  C   UNL     1      -3.336  12.371  23.681  0.00  0.00    +0.000 A 
ATOM     27  F   UNL     1      -4.017  12.070  24.797  0.00  0.00    +0.000 F 
ATOM     28  C   UNL     1      -2.196  11.624  23.399  0.00  0.00    +0.000 A 
BRANCH  25  29
ATOM     29  C   UNL     1      -4.961  14.177  23.152  0.00  0.00    +0.000 A 
ATOM     30  C   UNL     1      -6.338  13.822  23.085  0.00  0.00    +0.000 A 
ATOM     31  C   UNL     1      -7.051  14.924  23.496  0.00  0.00    +0.000 A 
ATOM     32  O   UNL     1      -6.209  15.945  23.795  0.00  0.00    +0.000 OA
ATOM     33  C   UNL     1      -4.949  15.491  23.578  0.00  0.00    +0.000 A 
ENDBRANCH  25  29
ENDBRANCH  19  22
ENDBRANCH   1  19
TORSDOF 5
ENDMDL
MODEL 2
REMARK VINA RESULT:      -8.3      3.242     10.083
REMARK  Name = 
REMARK  7 active torsions:
REMARK  status: ('A' for Active; 'I' for Inactive)
REMARK    1  A    between atoms: C_1  and  C_2
REMARK    2  A    between atoms: N_4  and  C_5
REMARK    3  A    between atoms: C_10  and  N_11
REMARK    4  A    between atoms: N_11  and  S_12
REMARK    5  A    between atoms: S_12  and  C_15
REMARK    6  A    between atoms: C_18  and  C_19
REMARK    7  A    between atoms: C_29  and  C_30
REMARK                            x       y       z     vdW  Elec       q    Type
REMARK                         _______ _______ _______ _____ _____    ______ ____
ROOT
ATOM      1  N   UNL     1       0.732  10.452  20.268  0.00  0.00    +0.000 N 
ATOM      2  H   UNL     1       1.340  11.192  20.619  0.00  0.00    +0.000 HD
ENDROOT
BRANCH   1   8
ATOM      3  C   UNL     1      -2.632  12.055  19.754  0.00  0.00    +0.000 A 
ATOM      4  C   UNL     1      -2.880  11.633  18.439  0.00  0.00    +0.000 A 
ATOM      5  C   UNL     1      -1.978  10.824  17.747  0.00  0.00    +0.000 A 
ATOM      6  C   UNL     1      -0.802  10.424  18.364  0.00  0.00    +0.000 A 
ATOM      7  F   UNL     1       0.060   9.664  17.674  0.00  0.00    +0.000 F 
ATOM      8  C   UNL     1      -0.504  10.836  19.661  0.00  0.00    +0.000 A 
ATOM      9  C   UNL     1      -1.418  11.646  20.348  0.00  0.00    +0.000 A 
BRANCH   3  13
ATOM     10  C   UNL     1      -7.333  12.560  20.800  0.00  0.00    +0.000 C 
ATOM     11  C   UNL     1      -5.865  12.306  21.145  0.00  0.00    +0.000 C 
ATOM     12  C   UNL     1      -4.946  12.951  20.075  0.00  0.00    +0.000 C 
ATOM     13  N   UNL     1      -3.522  12.866  20.445  0.00  0.00    +0.000 N 
ATOM     14  C   UNL     1      -3.204  13.261  21.834  0.00  0.00    +0.000 C 
ATOM     15  C   UNL     1      -4.191  12.618  22.854  0.00  0.00    +0.000 C 
ATOM     16  C   UNL     1      -3.958  13.198  24.251  0.00  0.00    +0.000 C 
ATOM     17  N   UNL     1      -5.614  12.825  22.506  0.00  0.00    +0.000 NA
ATOM     18  H   UNL     1      -5.803  13.829  22.511  0.00  0.00    +0.000 HD
ENDBRANCH   3  13
ENDBRANCH   1   8
BRANCH   1  19
ATOM     19  S   UNL     1       0.787   9.085  21.249  0.00  0.00    +0.000 S 
ATOM     20  O   UNL     1       1.679   9.408  22.339  0.00  0.00    +0.000 OA
ATOM     21  O   UNL     1      -0.569   8.645  21.505  0.00  0.00    +0.000 OA
BRANCH  19  22
ATOM     22  C   UNL     1       1.607   7.854  20.268  0.00  0.00    +0.000 A 
ATOM     23  C   UNL     1       1.733   6.541  20.733  0.00  0.00    +0.000 A 
ATOM     24  C   UNL     1       2.416   5.597  19.955  0.00  0.00    +0.000 A 
ATOM     25  C   UNL     1       2.980   5.957  18.719  0.00  0.00    +0.000 A 
ATOM     26  C   UNL     1       2.852   7.289  18.294  0.00  0.00    +0.000 A 
ATOM     27  F   UNL     1       3.380   7.688  17.127  0.00  0.00    +0.000 F 
ATOM     28  C   UNL     1       2.176   8.238  19.056  0.00  0.00    +0.000 A 
BRANCH  25  29
ATOM     29  C   UNL     1       3.697   4.981  17.910  0.00  0.00    +0.000 A 
ATOM     30  C   UNL     1       4.608   5.167  16.832  0.00  0.00    +0.000 A 
ATOM     31  C   UNL     1       4.995   3.913  16.422  0.00  0.00    +0.000 A 
ATOM     32  O   UNL     1       4.371   2.961  17.162  0.00  0.00    +0.000 OA
ATOM     33  C   UNL     1       3.582   3.612  18.054  0.00  0.00    +0.000 A 
ENDBRANCH  25  29
ENDBRANCH  19  22
ENDBRANCH   1  19
TORSDOF 5
ENDMDL
MODEL 3
REMARK VINA RESULT:      -8.3      0.977      1.415
REMARK  Name = 
REMARK  7 active torsions:
REMARK  status: ('A' for Active; 'I' for Inactive)
REMARK    1  A    between atoms: C_1  and  C_2
REMARK    2  A    between atoms: N_4  and  C_5
REMARK    3  A    between atoms: C_10  and  N_11
REMARK    4  A    between atoms: N_11  and  S_12
REMARK    5  A    between atoms: S_12  and  C_15
REMARK    6  A    between atoms: C_18  and  C_19
REMARK    7  A    between atoms: C_29  and  C_30
REMARK                            x       y       z     vdW  Elec       q    Type
REMARK                         _______ _______ _______ _____ _____    ______ ____
ROOT
ATOM      1  N   UNL     1      -0.363   9.781  20.744  0.00  0.00    +0.000 N 
ATOM      2  H   UNL     1      -1.113   9.166  21.058  0.00  0.00    +0.000 HD
ENDROOT
BRANCH   1   8
ATOM      3  C   UNL     1       2.236   7.447  19.348  0.00  0.00    +0.000 A 
ATOM      4  C   UNL     1       2.530   8.129  18.157  0.00  0.00    +0.000 A 
ATOM      5  C   UNL     1       1.910   9.337  17.833  0.00  0.00    +0.000 A 
ATOM      6  C   UNL     1       0.974   9.882  18.699  0.00  0.00    +0.000 A 
ATOM      7  F   UNL     1       0.374  11.032  18.358  0.00  0.00    +0.000 F 
ATOM      8  C   UNL     1       0.635   9.229  19.882  0.00  0.00    +0.000 A 
ATOM      9  C   UNL     1       1.267   8.020  20.200  0.00  0.00    +0.000 A 
BRANCH   3  13
ATOM     10  C   UNL     1       1.272   2.976  20.937  0.00  0.00    +0.000 C 
ATOM     11  C   UNL     1       1.752   3.997  19.905  0.00  0.00    +0.000 C 
ATOM     12  C   UNL     1       2.231   5.290  20.614  0.00  0.00    +0.000 C 
ATOM     13  N   UNL     1       2.845   6.243  19.673  0.00  0.00    +0.000 N 
ATOM     14  C   UNL     1       3.834   5.662  18.740  0.00  0.00    +0.000 C 
ATOM     15  C   UNL     1       3.312   4.343  18.096  0.00  0.00    +0.000 C 
ATOM     16  C   UNL     1       4.426   3.670  17.292  0.00  0.00    +0.000 C 
ATOM     17  N   UNL     1       2.809   3.365  19.087  0.00  0.00    +0.000 NA
ATOM     18  H   UNL     1       3.582   3.104  19.701  0.00  0.00    +0.000 HD
ENDBRANCH   3  13
ENDBRANCH   1   8
BRANCH   1  19
ATOM     19  S   UNL     1       0.088  10.875  21.943  0.00  0.00    +0.000 S 
ATOM     20  O   UNL     1       0.331  10.090  23.132  0.00  0.00    +0.000 OA
ATOM     21  O   UNL     1       1.111  11.750  21.410  0.00  0.00    +0.000 OA
BRANCH  19  22
ATOM     22  C   UNL     1      -1.372  11.833  22.255  0.00  0.00    +0.000 A 
ATOM     23  C   UNL     1      -2.140  11.609  23.403  0.00  0.00    +0.000 A 
ATOM     24  C   UNL     1      -3.307  12.355  23.609  0.00  0.00    +0.000 A 
ATOM     25  C   UNL     1      -3.717  13.320  22.672  0.00  0.00    +0.000 A 
ATOM     26  C   UNL     1      -2.935  13.503  21.522  0.00  0.00    +0.000 A 
ATOM     27  F   UNL     1      -3.288  14.403  20.591  0.00  0.00    +0.000 F 
ATOM     28  C   UNL     1      -1.773  12.770  21.304  0.00  0.00    +0.000 A 
BRANCH  25  29
ATOM     29  C   UNL     1      -4.935  14.093  22.878  0.00  0.00    +0.000 A 
ATOM     30  C   UNL     1      -5.156  15.284  23.626  0.00  0.00    +0.000 A 
ATOM     31  C   UNL     1      -6.490  15.593  23.489  0.00  0.00    +0.000 A 
ATOM     32  O   UNL     1      -7.113  14.664  22.721  0.00  0.00    +0.000 OA
ATOM     33  C   UNL     1      -6.171  13.755  22.362  0.00  0.00    +0.000 A 
ENDBRANCH  25  29
ENDBRANCH  19  22
ENDBRANCH   1  19
TORSDOF 5
ENDMDL
MODEL 4
REMARK VINA RESULT:      -8.3      3.403     10.198
REMARK  Name = 
REMARK  7 active torsions:
REMARK  status: ('A' for Active; 'I' for Inactive)
REMARK    1  A    between atoms: C_1  and  C_2
REMARK    2  A    between atoms: N_4  and  C_5
REMARK    3  A    between atoms: C_10  and  N_11
REMARK    4  A    between atoms: N_11  and  S_12
REMARK    5  A    between atoms: S_12  and  C_15
REMARK    6  A    between atoms: C_18  and  C_19
REMARK    7  A    between atoms: C_29  and  C_30
REMARK                            x       y       z     vdW  Elec       q    Type
REMARK                         _______ _______ _______ _____ _____    ______ ____
ROOT
ATOM      1  N   UNL     1      -0.242  10.740  18.436  0.00  0.00    +0.000 N 
ATOM      2  H   UNL     1       0.354  11.437  17.990  0.00  0.00    +0.000 HD
ENDROOT
BRANCH   1   8
ATOM      3  C   UNL     1      -3.652  12.114  19.235  0.00  0.00    +0.000 A 
ATOM      4  C   UNL     1      -4.404  11.408  18.283  0.00  0.00    +0.000 A 
ATOM      5  C   UNL     1      -3.811  10.488  17.417  0.00  0.00    +0.000 A 
ATOM      6  C   UNL     1      -2.444  10.260  17.489  0.00  0.00    +0.000 A 
ATOM      7  F   UNL     1      -1.892   9.388  16.633  0.00  0.00    +0.000 F 
ATOM      8  C   UNL     1      -1.655  10.953  18.404  0.00  0.00    +0.000 A 
ATOM      9  C   UNL     1      -2.261  11.872  19.271  0.00  0.00    +0.000 A 
BRANCH   3  13
ATOM     10  C   UNL     1      -7.916  13.439  21.107  0.00  0.00    +0.000 C 
ATOM     11  C   UNL     1      -6.491  12.890  21.180  0.00  0.00    +0.000 C 
ATOM     12  C   UNL     1      -5.655  13.412  19.983  0.00  0.00    +0.000 C 
ATOM     13  N   UNL     1      -4.235  13.035  20.094  0.00  0.00    +0.000 N 
ATOM     14  C   UNL     1      -3.617  13.277  21.415  0.00  0.00    +0.000 C 
ATOM     15  C   UNL     1      -4.526  12.772  22.576  0.00  0.00    +0.000 C 
ATOM     16  C   UNL     1      -3.952  13.209  23.925  0.00  0.00    +0.000 C 
ATOM     17  N   UNL     1      -5.918  13.267  22.490  0.00  0.00    +0.000 NA
ATOM     18  H   UNL     1      -5.901  14.286  22.555  0.00  0.00    +0.000 HD
ENDBRANCH   3  13
ENDBRANCH   1   8
BRANCH   1  19
ATOM     19  S   UNL     1       0.471  10.108  19.824  0.00  0.00    +0.000 S 
ATOM     20  O   UNL     1       1.316  11.154  20.355  0.00  0.00    +0.000 OA
ATOM     21  O   UNL     1      -0.560   9.502  20.640  0.00  0.00    +0.000 OA
BRANCH  19  22
ATOM     22  C   UNL     1       1.553   8.830  19.238  0.00  0.00    +0.000 A 
ATOM     23  C   UNL     1       2.135   8.915  17.969  0.00  0.00    +0.000 A 
ATOM     24  C   UNL     1       2.958   7.877  17.515  0.00  0.00    +0.000 A 
ATOM     25  C   UNL     1       3.198   6.748  18.319  0.00  0.00    +0.000 A 
ATOM     26  C   UNL     1       2.581   6.686  19.577  0.00  0.00    +0.000 A 
ATOM     27  F   UNL     1       2.769   5.627  20.379  0.00  0.00    +0.000 F 
ATOM     28  C   UNL     1       1.762   7.710  20.042  0.00  0.00    +0.000 A 
BRANCH  25  29
ATOM     29  C   UNL     1       4.046   5.661  17.849  0.00  0.00    +0.000 A 
ATOM     30  C   UNL     1       3.708   4.446  17.189  0.00  0.00    +0.000 A 
ATOM     31  C   UNL     1       4.889   3.775  16.968  0.00  0.00    +0.000 A 
ATOM     32  O   UNL     1       5.934   4.485  17.463  0.00  0.00    +0.000 OA
ATOM     33  C   UNL     1       5.419   5.620  18.001  0.00  0.00    +0.000 A 
ENDBRANCH  25  29
ENDBRANCH  19  22
ENDBRANCH   1  19
TORSDOF 5
ENDMDL
MODEL 5
REMARK VINA RESULT:      -8.2      1.569      2.054
REMARK  Name = 
REMARK  7 active torsions:
REMARK  status: ('A' for Active; 'I' for Inactive)
REMARK    1  A    between atoms: C_1  and  C_2
REMARK    2  A    between atoms: N_4  and  C_5
REMARK    3  A    between atoms: C_10  and  N_11
REMARK    4  A    between atoms: N_11  and  S_12
REMARK    5  A    between atoms: S_12  and  C_15
REMARK    6  A    between atoms: C_18  and  C_19
REMARK    7  A    between atoms: C_29  and  C_30
REMARK                            x       y       z     vdW  Elec       q    Type
REMARK                         _______ _______ _______ _____ _____    ______ ____
ROOT
ATOM      1  N   UNL     1       0.229   8.944  20.929  0.00  0.00    +0.000 N 
ATOM      2  H   UNL     1      -0.311   8.236  21.426  0.00  0.00    +0.000 HD
ENDROOT
BRANCH   1   8
ATOM      3  C   UNL     1       2.817   6.856  19.170  0.00  0.00    +0.000 A 
ATOM      4  C   UNL     1       2.944   7.606  17.991  0.00  0.00    +0.000 A 
ATOM      5  C   UNL     1       2.217   8.780  17.789  0.00  0.00    +0.000 A 
ATOM      6  C   UNL     1       1.341   9.223  18.769  0.00  0.00    +0.000 A 
ATOM      7  F   UNL     1       0.637  10.342  18.545  0.00  0.00    +0.000 F 
ATOM      8  C   UNL     1       1.167   8.499  19.946  0.00  0.00    +0.000 A 
ATOM      9  C   UNL     1       1.905   7.324  20.141  0.00  0.00    +0.000 A 
BRANCH   3  13
ATOM     10  C   UNL     1       2.852   2.146  18.047  0.00  0.00    +0.000 C 
ATOM     11  C   UNL     1       3.409   3.569  18.030  0.00  0.00    +0.000 C 
ATOM     12  C   UNL     1       2.900   4.357  19.265  0.00  0.00    +0.000 C 
ATOM     13  N   UNL     1       3.532   5.684  19.375  0.00  0.00    +0.000 N 
ATOM     14  C   UNL     1       5.001   5.700  19.210  0.00  0.00    +0.000 C 
ATOM     15  C   UNL     1       5.451   4.855  17.981  0.00  0.00    +0.000 C 
ATOM     16  C   UNL     1       6.976   4.733  17.953  0.00  0.00    +0.000 C 
ATOM     17  N   UNL     1       4.884   3.487  17.969  0.00  0.00    +0.000 NA
ATOM     18  H   UNL     1       5.216   2.995  18.800  0.00  0.00    +0.000 HD
ENDBRANCH   3  13
ENDBRANCH   1   8
BRANCH   1  19
ATOM     19  S   UNL     1       0.624  10.241  21.927  0.00  0.00    +0.000 S 
ATOM     20  O   UNL     1       0.857   9.681  23.240  0.00  0.00    +0.000 OA
ATOM     21  O   UNL     1       1.638  11.038  21.271  0.00  0.00    +0.000 OA
BRANCH  19  22
ATOM     22  C   UNL     1      -0.866  11.198  22.040  0.00  0.00    +0.000 A 
ATOM     23  C   UNL     1      -1.559  11.297  23.251  0.00  0.00    +0.000 A 
ATOM     24  C   UNL     1      -2.751  12.030  23.306  0.00  0.00    +0.000 A 
ATOM     25  C   UNL     1      -3.261  12.659  22.156  0.00  0.00    +0.000 A 
ATOM     26  C   UNL     1      -2.551  12.520  20.954  0.00  0.00    +0.000 A 
ATOM     27  F   UNL     1      -2.999  13.091  19.825  0.00  0.00    +0.000 F 
ATOM     28  C   UNL     1      -1.365  11.796  20.884  0.00  0.00    +0.000 A 
BRANCH  25  29
ATOM     29  C   UNL     1      -4.505  13.415  22.205  0.00  0.00    +0.000 A 
ATOM     30  C   UNL     1      -4.773  14.719  22.712  0.00  0.00    +0.000 A 
ATOM     31  C   UNL     1      -6.114  14.951  22.513  0.00  0.00    +0.000 A 
ATOM     32  O   UNL     1      -6.699  13.873  21.933  0.00  0.00    +0.000 OA
ATOM     33  C   UNL     1      -5.724  12.945  21.757  0.00  0.00    +0.000 A 
ENDBRANCH  25  29
ENDBRANCH  19  22
ENDBRANCH   1  19
TORSDOF 5
ENDMDL
MODEL 6
REMARK VINA RESULT:      -8.2      3.814      9.410
REMARK  Name = 
REMARK  7 active torsions:
REMARK  status: ('A' for Active; 'I' for Inactive)
REMARK    1  A    between atoms: C_1  and  C_2
REMARK    2  A    between atoms: N_4  and  C_5
REMARK    3  A    between atoms: C_10  and  N_11
REMARK    4  A    between atoms: N_11  and  S_12
REMARK    5  A    between atoms: S_12  and  C_15
REMARK    6  A    between atoms: C_18  and  C_19
REMARK    7  A    between atoms: C_29  and  C_30
REMARK                            x       y       z     vdW  Elec       q    Type
REMARK                         _______ _______ _______ _____ _____    ______ ____
ROOT
ATOM      1  N   UNL     1       1.112  10.392  20.394  0.00  0.00    +0.000 N 
ATOM      2  H   UNL     1       2.011  10.872  20.424  0.00  0.00    +0.000 HD
ENDROOT
BRANCH   1   8
ATOM      3  C   UNL     1      -2.257  11.399  19.056  0.00  0.00    +0.000 A 
ATOM      4  C   UNL     1      -2.343  12.683  19.616  0.00  0.00    +0.000 A 
ATOM      5  C   UNL     1      -1.312  13.214  20.392  0.00  0.00    +0.000 A 
ATOM      6  C   UNL     1      -0.171  12.461  20.626  0.00  0.00    +0.000 A 
ATOM      7  F   UNL     1       0.798  12.982  21.392  0.00  0.00    +0.000 F 
ATOM      8  C   UNL     1      -0.051  11.173  20.108  0.00  0.00    +0.000 A 
ATOM      9  C   UNL     1      -1.090  10.651  19.327  0.00  0.00    +0.000 A 
BRANCH   3  13
ATOM     10  C   UNL     1      -6.599  12.454  17.190  0.00  0.00    +0.000 C 
ATOM     11  C   UNL     1      -5.112  12.106  17.108  0.00  0.00    +0.000 C 
ATOM     12  C   UNL     1      -4.667  11.353  18.389  0.00  0.00    +0.000 C 
ATOM     13  N   UNL     1      -3.281  10.862  18.289  0.00  0.00    +0.000 N 
ATOM     14  C   UNL     1      -2.947  10.163  17.030  0.00  0.00    +0.000 C 
ATOM     15  C   UNL     1      -3.460  10.946  15.784  0.00  0.00    +0.000 C 
ATOM     16  C   UNL     1      -3.272  10.108  14.518  0.00  0.00    +0.000 C 
ATOM     17  N   UNL     1      -4.889  11.322  15.874  0.00  0.00    +0.000 NA
ATOM     18  H   UNL     1      -5.443  10.466  15.929  0.00  0.00    +0.000 HD
ENDBRANCH   3  13
ENDBRANCH   1   8
BRANCH   1  19
ATOM     19  S   UNL     1       1.025   9.161  21.539  0.00  0.00    +0.000 S 
ATOM     20  O   UNL     1       2.055   9.445  22.514  0.00  0.00    +0.000 OA
ATOM     21  O   UNL     1      -0.355   9.002  21.945  0.00  0.00    +0.000 OA
BRANCH  19  22
ATOM     22  C   UNL     1       1.534   7.698  20.674  0.00  0.00    +0.000 A 
ATOM     23  C   UNL     1       2.156   7.789  19.424  0.00  0.00    +0.000 A 
ATOM     24  C   UNL     1       2.516   6.618  18.746  0.00  0.00    +0.000 A 
ATOM     25  C   UNL     1       2.253   5.355  19.304  0.00  0.00    +0.000 A 
ATOM     26  C   UNL     1       1.608   5.301  20.549  0.00  0.00    +0.000 A 
ATOM     27  F   UNL     1       1.324   4.121  21.121  0.00  0.00    +0.000 F 
ATOM     28  C   UNL     1       1.245   6.455  21.235  0.00  0.00    +0.000 A 
BRANCH  25  29
ATOM     29  C   UNL     1       2.618   4.134  18.598  0.00  0.00    +0.000 A 
ATOM     30  C   UNL     1       3.726   3.259  18.781  0.00  0.00    +0.000 A 
ATOM     31  C   UNL     1       3.594   2.256  17.849  0.00  0.00    +0.000 A 
ATOM     32  O   UNL     1       2.489   2.460  17.089  0.00  0.00    +0.000 OA
ATOM     33  C   UNL     1       1.908   3.600  17.541  0.00  0.00    +0.000 A 
ENDBRANCH  25  29
ENDBRANCH  19  22
ENDBRANCH   1  19
TORSDOF 5
ENDMDL
MODEL 7
REMARK VINA RESULT:      -8.1      3.126     10.086
REMARK  Name = 
REMARK  7 active torsions:
REMARK  status: ('A' for Active; 'I' for Inactive)
REMARK    1  A    between atoms: C_1  and  C_2
REMARK    2  A    between atoms: N_4  and  C_5
REMARK    3  A    between atoms: C_10  and  N_11
REMARK    4  A    between atoms: N_11  and  S_12
REMARK    5  A    between atoms: S_12  and  C_15
REMARK    6  A    between atoms: C_18  and  C_19
REMARK    7  A    between atoms: C_29  and  C_30
REMARK                            x       y       z     vdW  Elec       q    Type
REMARK                         _______ _______ _______ _____ _____    ______ ____
ROOT
ATOM      1  N   UNL     1       0.607  10.668  20.699  0.00  0.00    +0.000 N 
ATOM      2  H   UNL     1       1.334  11.320  20.992  0.00  0.00    +0.000 HD
ENDROOT
BRANCH   1   8
ATOM      3  C   UNL     1      -2.597  12.635  20.857  0.00  0.00    +0.000 A 
ATOM      4  C   UNL     1      -3.119  12.309  19.595  0.00  0.00    +0.000 A 
ATOM      5  C   UNL     1      -2.449  11.447  18.726  0.00  0.00    +0.000 A 
ATOM      6  C   UNL     1      -1.234  10.897  19.106  0.00  0.00    +0.000 A 
ATOM      7  F   UNL     1      -0.597  10.088  18.246  0.00  0.00    +0.000 F 
ATOM      8  C   UNL     1      -0.667  11.209  20.339  0.00  0.00    +0.000 A 
ATOM      9  C   UNL     1      -1.350  12.072  21.206  0.00  0.00    +0.000 A 
BRANCH   3  13
ATOM     10  C   UNL     1      -6.142  12.782  24.151  0.00  0.00    +0.000 C 
ATOM     11  C   UNL     1      -4.689  12.880  23.687  0.00  0.00    +0.000 C 
ATOM     12  C   UNL     1      -4.632  13.239  22.179  0.00  0.00    +0.000 C 
ATOM     13  N   UNL     1      -3.255  13.496  21.723  0.00  0.00    +0.000 N 
ATOM     14  C   UNL     1      -2.458  14.392  22.588  0.00  0.00    +0.000 C 
ATOM     15  C   UNL     1      -2.594  14.008  24.092  0.00  0.00    +0.000 C 
ATOM     16  C   UNL     1      -1.920  15.065  24.970  0.00  0.00    +0.000 C 
ATOM     17  N   UNL     1      -3.998  13.872  24.540  0.00  0.00    +0.000 NA
ATOM     18  H   UNL     1      -4.460  14.775  24.427  0.00  0.00    +0.000 HD
ENDBRANCH   3  13
ENDBRANCH   1   8
BRANCH   1  19
ATOM     19  S   UNL     1       0.683   9.223  21.559  0.00  0.00    +0.000 S 
ATOM     20  O   UNL     1       1.603   9.453  22.651  0.00  0.00    +0.000 OA
ATOM     21  O   UNL     1      -0.666   8.763  21.811  0.00  0.00    +0.000 OA
BRANCH  19  22
ATOM     22  C   UNL     1       1.476   8.080  20.458  0.00  0.00    +0.000 A 
ATOM     23  C   UNL     1       1.747   6.770  20.864  0.00  0.00    +0.000 A 
ATOM     24  C   UNL     1       2.405   5.898  19.989  0.00  0.00    +0.000 A 
ATOM     25  C   UNL     1       2.803   6.328  18.711  0.00  0.00    +0.000 A 
ATOM     26  C   UNL     1       2.535   7.655  18.344  0.00  0.00    +0.000 A 
ATOM     27  F   UNL     1       2.902   8.120  17.140  0.00  0.00    +0.000 F 
ATOM     28  C   UNL     1       1.881   8.533  19.203  0.00  0.00    +0.000 A 
BRANCH  25  29
ATOM     29  C   UNL     1       3.495   5.427  17.799  0.00  0.00    +0.000 A 
ATOM     30  C   UNL     1       4.670   5.627  17.019  0.00  0.00    +0.000 A 
ATOM     31  C   UNL     1       4.892   4.455  16.334  0.00  0.00    +0.000 A 
ATOM     32  O   UNL     1       3.925   3.549  16.623  0.00  0.00    +0.000 OA
ATOM     33  C   UNL     1       3.079   4.144  17.502  0.00  0.00    +0.000 A 
ENDBRANCH  25  29
ENDBRANCH  19  22
ENDBRANCH   1  19
TORSDOF 5
ENDMDL
MODEL 8
REMARK VINA RESULT:      -8.1      3.101      9.917
REMARK  Name = 
REMARK  7 active torsions:
REMARK  status: ('A' for Active; 'I' for Inactive)
REMARK    1  A    between atoms: C_1  and  C_2
REMARK    2  A    between atoms: N_4  and  C_5
REMARK    3  A    between atoms: C_10  and  N_11
REMARK    4  A    between atoms: N_11  and  S_12
REMARK    5  A    between atoms: S_12  and  C_15
REMARK    6  A    between atoms: C_18  and  C_19
REMARK    7  A    between atoms: C_29  and  C_30
REMARK                            x       y       z     vdW  Elec       q    Type
REMARK                         _______ _______ _______ _____ _____    ______ ____
ROOT
ATOM      1  N   UNL     1       0.677  10.759  20.804  0.00  0.00    +0.000 N 
ATOM      2  H   UNL     1       1.408  11.434  21.030  0.00  0.00    +0.000 HD
ENDROOT
BRANCH   1   8
ATOM      3  C   UNL     1      -2.565  12.667  20.884  0.00  0.00    +0.000 A 
ATOM      4  C   UNL     1      -3.066  12.305  19.624  0.00  0.00    +0.000 A 
ATOM      5  C   UNL     1      -2.369  11.439  18.780  0.00  0.00    +0.000 A 
ATOM      6  C   UNL     1      -1.148  10.920  19.185  0.00  0.00    +0.000 A 
ATOM      7  F   UNL     1      -0.486  10.107  18.350  0.00  0.00    +0.000 F 
ATOM      8  C   UNL     1      -0.602  11.268  20.418  0.00  0.00    +0.000 A 
ATOM      9  C   UNL     1      -1.312  12.135  21.260  0.00  0.00    +0.000 A 
BRANCH   3  13
ATOM     10  C   UNL     1      -6.220  12.833  24.056  0.00  0.00    +0.000 C 
ATOM     11  C   UNL     1      -4.752  12.926  23.641  0.00  0.00    +0.000 C 
ATOM     12  C   UNL     1      -4.643  13.280  22.135  0.00  0.00    +0.000 C 
ATOM     13  N   UNL     1      -3.250  13.532  21.726  0.00  0.00    +0.000 N 
ATOM     14  C   UNL     1      -2.480  14.428  22.615  0.00  0.00    +0.000 C 
ATOM     15  C   UNL     1      -2.668  14.049  24.115  0.00  0.00    +0.000 C 
ATOM     16  C   UNL     1      -2.022  15.106  25.012  0.00  0.00    +0.000 C 
ATOM     17  N   UNL     1      -4.088  13.918  24.514  0.00  0.00    +0.000 NA
ATOM     18  H   UNL     1      -4.543  14.822  24.383  0.00  0.00    +0.000 HD
ENDBRANCH   3  13
ENDBRANCH   1   8
BRANCH   1  19
ATOM     19  S   UNL     1       0.767   9.392  21.782  0.00  0.00    +0.000 S 
ATOM     20  O   UNL     1       1.802   9.661  22.755  0.00  0.00    +0.000 OA
ATOM     21  O   UNL     1      -0.571   9.035  22.203  0.00  0.00    +0.000 OA
BRANCH  19  22
ATOM     22  C   UNL     1       1.388   8.114  20.719  0.00  0.00    +0.000 A 
ATOM     23  C   UNL     1       1.877   8.420  19.446  0.00  0.00    +0.000 A 
ATOM     24  C   UNL     1       2.329   7.389  18.613  0.00  0.00    +0.000 A 
ATOM     25  C   UNL     1       2.289   6.050  19.041  0.00  0.00    +0.000 A 
ATOM     26  C   UNL     1       1.772   5.777  20.317  0.00  0.00    +0.000 A 
ATOM     27  F   UNL     1       1.702   4.516  20.770  0.00  0.00    +0.000 F 
ATOM     28  C   UNL     1       1.320   6.791  21.155  0.00  0.00    +0.000 A 
BRANCH  25  29
ATOM     29  C   UNL     1       2.750   4.973  18.176  0.00  0.00    +0.000 A 
ATOM     30  C   UNL     1       4.063   4.642  17.735  0.00  0.00    +0.000 A 
ATOM     31  C   UNL     1       3.940   3.532  16.932  0.00  0.00    +0.000 A 
ATOM     32  O   UNL     1       2.638   3.164  16.832  0.00  0.00    +0.000 OA
ATOM     33  C   UNL     1       1.923   4.042  17.579  0.00  0.00    +0.000 A 
ENDBRANCH  25  29
ENDBRANCH  19  22
ENDBRANCH   1  19
TORSDOF 5
ENDMDL
MODEL 9
REMARK VINA RESULT:      -8.0      3.558     10.096
REMARK  Name = 
REMARK  7 active torsions:
REMARK  status: ('A' for Active; 'I' for Inactive)
REMARK    1  A    between atoms: C_1  and  C_2
REMARK    2  A    between atoms: N_4  and  C_5
REMARK    3  A    between atoms: C_10  and  N_11
REMARK    4  A    between atoms: N_11  and  S_12
REMARK    5  A    between atoms: S_12  and  C_15
REMARK    6  A    between atoms: C_18  and  C_19
REMARK    7  A    between atoms: C_29  and  C_30
REMARK                            x       y       z     vdW  Elec       q    Type
REMARK                         _______ _______ _______ _____ _____    ______ ____
ROOT
ATOM      1  N   UNL     1      -0.405  11.591  19.117  0.00  0.00    +0.000 N 
ATOM      2  H   UNL     1      -0.099  12.556  18.992  0.00  0.00    +0.000 HD
ENDROOT
BRANCH   1   8
ATOM      3  C   UNL     1      -4.157  11.624  18.838  0.00  0.00    +0.000 A 
ATOM      4  C   UNL     1      -4.314  10.639  17.852  0.00  0.00    +0.000 A 
ATOM      5  C   UNL     1      -3.220   9.963  17.310  0.00  0.00    +0.000 A 
ATOM      6  C   UNL     1      -1.940  10.270  17.746  0.00  0.00    +0.000 A 
ATOM      7  F   UNL     1      -0.901   9.624  17.197  0.00  0.00    +0.000 F 
ATOM      8  C   UNL     1      -1.733  11.256  18.708  0.00  0.00    +0.000 A 
ATOM      9  C   UNL     1      -2.840  11.925  19.249  0.00  0.00    +0.000 A 
BRANCH   3  13
ATOM     10  C   UNL     1      -5.309  15.532  21.455  0.00  0.00    +0.000 C 
ATOM     11  C   UNL     1      -5.300  14.678  20.187  0.00  0.00    +0.000 C 
ATOM     12  C   UNL     1      -5.102  13.183  20.551  0.00  0.00    +0.000 C 
ATOM     13  N   UNL     1      -5.240  12.304  19.376  0.00  0.00    +0.000 N 
ATOM     14  C   UNL     1      -6.419  12.568  18.524  0.00  0.00    +0.000 C 
ATOM     15  C   UNL     1      -6.589  14.089  18.233  0.00  0.00    +0.000 C 
ATOM     16  C   UNL     1      -7.917  14.345  17.517  0.00  0.00    +0.000 C 
ATOM     17  N   UNL     1      -6.559  14.928  19.452  0.00  0.00    +0.000 NA
ATOM     18  H   UNL     1      -7.342  14.656  20.048  0.00  0.00    +0.000 HD
ENDBRANCH   3  13
ENDBRANCH   1   8
BRANCH   1  19
ATOM     19  S   UNL     1       0.228  10.913  20.522  0.00  0.00    +0.000 S 
ATOM     20  O   UNL     1       1.268  11.812  20.969  0.00  0.00    +0.000 OA
ATOM     21  O   UNL     1      -0.868  10.555  21.397  0.00  0.00    +0.000 OA
BRANCH  19  22
ATOM     22  C   UNL     1       1.036   9.427  19.986  0.00  0.00    +0.000 A 
ATOM     23  C   UNL     1       1.149   8.328  20.843  0.00  0.00    +0.000 A 
ATOM     24  C   UNL     1       1.822   7.180  20.408  0.00  0.00    +0.000 A 
ATOM     25  C   UNL     1       2.390   7.124  19.124  0.00  0.00    +0.000 A 
ATOM     26  C   UNL     1       2.277   8.253  18.298  0.00  0.00    +0.000 A 
ATOM     27  F   UNL     1       2.810   8.256  17.067  0.00  0.00    +0.000 F 
ATOM     28  C   UNL     1       1.611   9.401  18.716  0.00  0.00    +0.000 A 
BRANCH  25  29
ATOM     29  C   UNL     1       3.099   5.935  18.669  0.00  0.00    +0.000 A 
ATOM     30  C   UNL     1       4.491   5.641  18.652  0.00  0.00    +0.000 A 
ATOM     31  C   UNL     1       4.621   4.379  18.120  0.00  0.00    +0.000 A 
ATOM     32  O   UNL     1       3.404   3.878  17.791  0.00  0.00    +0.000 OA
ATOM     33  C   UNL     1       2.489   4.826  18.117  0.00  0.00    +0.000 A 
ENDBRANCH  25  29
ENDBRANCH  19  22
ENDBRANCH   1  19
TORSDOF 5
ENDMDL
