MODEL 1
REMARK VINA RESULT:      -7.3      0.000      0.000
REMARK  Name = 
REMARK  2 active torsions:
REMARK  status: ('A' for Active; 'I' for Inactive)
REMARK    1  A    between atoms: C_14  and  O_15
REMARK    2  A    between atoms: O_15  and  C_16
REMARK                            x       y       z     vdW  Elec       q    Type
REMARK                         _______ _______ _______ _____ _____    ______ ____
ROOT
ATOM      1  O   UNL     1       1.496   5.033  17.406  0.00  0.00    +0.000 OA
ATOM      2  C   UNL     1       2.367   4.881  18.270  0.00  0.00    +0.000 C 
ATOM      3  N   UNL     1       2.567   3.664  18.896  0.00  0.00    +0.000 N 
ATOM      4  C   UNL     1       1.826   2.494  18.439  0.00  0.00    +0.000 C 
ATOM      5  C   UNL     1       1.485   1.727  19.709  0.00  0.00    +0.000 C 
ATOM      6  C   UNL     1       2.657   2.036  20.619  0.00  0.00    +0.000 C 
ATOM      7  C   UNL     1       2.960   3.492  20.296  0.00  0.00    +0.000 C 
ATOM      8  N   UNL     1       3.190   5.933  18.652  0.00  0.00    +0.000 N 
ATOM      9  C   UNL     1       2.846   7.300  18.241  0.00  0.00    +0.000 C 
ATOM     10  C   UNL     1       3.790   7.862  17.171  0.00  0.00    +0.000 C 
ATOM     11  C   UNL     1       5.259   7.636  17.528  0.00  0.00    +0.000 C 
ATOM     12  C   UNL     1       5.538   6.164  17.838  0.00  0.00    +0.000 C 
ATOM     13  C   UNL     1       5.381   5.231  16.625  0.00  0.00    +0.000 C 
ATOM     14  C   UNL     1       6.686   4.466  16.524  0.00  0.00    +0.000 C 
ATOM     15  C   UNL     1       7.404   4.785  17.823  0.00  0.00    +0.000 C 
ATOM     16  O   UNL     1       6.900   6.045  18.286  0.00  0.00    +0.000 OA
ATOM     17  C   UNL     1       4.604   5.736  18.982  0.00  0.00    +0.000 C 
ENDROOT
BRANCH  14  18
ATOM     18  O   UNL     1       7.458   4.960  15.422  0.00  0.00    +0.000 OA
BRANCH  18  19
ATOM     19  C   UNL     1       7.020   4.512  14.190  0.00  0.00    +0.000 A 
ATOM     20  N   UNL     1       5.969   3.657  14.125  0.00  0.00    +0.000 NA
ATOM     21  C   UNL     1       5.602   3.235  12.895  0.00  0.00    +0.000 A 
ATOM     22  C   UNL     1       6.233   3.625  11.724  0.00  0.00    +0.000 A 
ATOM     23  C   UNL     1       7.304   4.511  11.816  0.00  0.00    +0.000 A 
ATOM     24  C   UNL     1       7.701   4.962  13.068  0.00  0.00    +0.000 A 
ATOM     25  F   UNL     1       8.733   5.812  13.169  0.00  0.00    +0.000 F 
ENDBRANCH  18  19
ENDBRANCH  14  18
TORSDOF 2
ENDMDL
MODEL 2
REMARK VINA RESULT:      -6.8      6.189      8.876
REMARK  Name = 
REMARK  2 active torsions:
REMARK  status: ('A' for Active; 'I' for Inactive)
REMARK    1  A    between atoms: C_14  and  O_15
REMARK    2  A    between atoms: O_15  and  C_16
REMARK                            x       y       z     vdW  Elec       q    Type
REMARK                         _______ _______ _______ _____ _____    ______ ____
ROOT
ATOM      1  O   UNL     1      -1.158  12.423  17.044  0.00  0.00    +0.000 OA
ATOM      2  C   UNL     1      -1.631  12.335  18.183  0.00  0.00    +0.000 C 
ATOM      3  N   UNL     1      -2.840  11.707  18.422  0.00  0.00    +0.000 N 
ATOM      4  C   UNL     1      -3.517  11.016  17.332  0.00  0.00    +0.000 C 
ATOM      5  C   UNL     1      -4.997  11.303  17.544  0.00  0.00    +0.000 C 
ATOM      6  C   UNL     1      -5.108  11.413  19.052  0.00  0.00    +0.000 C 
ATOM      7  C   UNL     1      -3.815  12.116  19.436  0.00  0.00    +0.000 C 
ATOM      8  N   UNL     1      -0.963  12.864  19.280  0.00  0.00    +0.000 N 
ATOM      9  C   UNL     1       0.164  13.778  19.062  0.00  0.00    +0.000 C 
ATOM     10  C   UNL     1       1.521  13.154  19.412  0.00  0.00    +0.000 C 
ATOM     11  C   UNL     1       1.498  12.458  20.772  0.00  0.00    +0.000 C 
ATOM     12  C   UNL     1       0.350  11.450  20.862  0.00  0.00    +0.000 C 
ATOM     13  C   UNL     1       0.502  10.246  19.916  0.00  0.00    +0.000 C 
ATOM     14  C   UNL     1       0.381   9.016  20.794  0.00  0.00    +0.000 C 
ATOM     15  C   UNL     1      -0.107   9.558  22.126  0.00  0.00    +0.000 C 
ATOM     16  O   UNL     1       0.310  10.927  22.203  0.00  0.00    +0.000 OA
ATOM     17  C   UNL     1      -0.962  12.201  20.586  0.00  0.00    +0.000 C 
ENDROOT
BRANCH  14  18
ATOM     18  O   UNL     1       1.669   8.413  20.970  0.00  0.00    +0.000 OA
BRANCH  18  19
ATOM     19  C   UNL     1       1.817   7.212  20.302  0.00  0.00    +0.000 A 
ATOM     20  N   UNL     1       1.438   6.059  20.908  0.00  0.00    +0.000 NA
ATOM     21  C   UNL     1       1.630   4.914  20.216  0.00  0.00    +0.000 A 
ATOM     22  C   UNL     1       2.183   4.864  18.946  0.00  0.00    +0.000 A 
ATOM     23  C   UNL     1       2.556   6.061  18.341  0.00  0.00    +0.000 A 
ATOM     24  C   UNL     1       2.368   7.253  19.030  0.00  0.00    +0.000 A 
ATOM     25  F   UNL     1       2.727   8.411  18.459  0.00  0.00    +0.000 F 
ENDBRANCH  18  19
ENDBRANCH  14  18
TORSDOF 2
ENDMDL
MODEL 3
REMARK VINA RESULT:      -6.7      4.260      8.119
REMARK  Name = 
REMARK  2 active torsions:
REMARK  status: ('A' for Active; 'I' for Inactive)
REMARK    1  A    between atoms: C_14  and  O_15
REMARK    2  A    between atoms: O_15  and  C_16
REMARK                            x       y       z     vdW  Elec       q    Type
REMARK                         _______ _______ _______ _____ _____    ______ ____
ROOT
ATOM      1  O   UNL     1       4.789   5.517  16.183  0.00  0.00    +0.000 OA
ATOM      2  C   UNL     1       4.916   5.344  17.401  0.00  0.00    +0.000 C 
ATOM      3  N   UNL     1       5.929   5.952  18.120  0.00  0.00    +0.000 N 
ATOM      4  C   UNL     1       6.792   6.925  17.461  0.00  0.00    +0.000 C 
ATOM      5  C   UNL     1       8.179   6.668  18.033  0.00  0.00    +0.000 C 
ATOM      6  C   UNL     1       7.884   6.193  19.442  0.00  0.00    +0.000 C 
ATOM      7  C   UNL     1       6.629   5.353  19.259  0.00  0.00    +0.000 C 
ATOM      8  N   UNL     1       4.040   4.527  18.104  0.00  0.00    +0.000 N 
ATOM      9  C   UNL     1       3.134   3.641  17.365  0.00  0.00    +0.000 C 
ATOM     10  C   UNL     1       1.669   4.091  17.427  0.00  0.00    +0.000 C 
ATOM     11  C   UNL     1       1.233   4.429  18.853  0.00  0.00    +0.000 C 
ATOM     12  C   UNL     1       2.183   5.439  19.500  0.00  0.00    +0.000 C 
ATOM     13  C   UNL     1       2.155   6.830  18.845  0.00  0.00    +0.000 C 
ATOM     14  C   UNL     1       1.882   7.808  19.970  0.00  0.00    +0.000 C 
ATOM     15  C   UNL     1       2.046   6.979  21.230  0.00  0.00    +0.000 C 
ATOM     16  O   UNL     1       1.791   5.614  20.874  0.00  0.00    +0.000 OA
ATOM     17  C   UNL     1       3.601   4.845  19.465  0.00  0.00    +0.000 C 
ENDROOT
BRANCH  14  18
ATOM     18  O   UNL     1       0.533   8.285  19.887  0.00  0.00    +0.000 OA
BRANCH  18  19
ATOM     19  C   UNL     1       0.350   9.539  20.439  0.00  0.00    +0.000 A 
ATOM     20  N   UNL     1       0.856  10.628  19.808  0.00  0.00    +0.000 NA
ATOM     21  C   UNL     1       0.667  11.823  20.408  0.00  0.00    +0.000 A 
ATOM     22  C   UNL     1      -0.003  11.986  21.611  0.00  0.00    +0.000 A 
ATOM     23  C   UNL     1      -0.521  10.854  22.235  0.00  0.00    +0.000 A 
ATOM     24  C   UNL     1      -0.343   9.613  21.639  0.00  0.00    +0.000 A 
ATOM     25  F   UNL     1      -0.835   8.516  22.233  0.00  0.00    +0.000 F 
ENDBRANCH  18  19
ENDBRANCH  14  18
TORSDOF 2
ENDMDL
MODEL 4
REMARK VINA RESULT:      -6.6      3.827      7.702
REMARK  Name = 
REMARK  2 active torsions:
REMARK  status: ('A' for Active; 'I' for Inactive)
REMARK    1  A    between atoms: C_14  and  O_15
REMARK    2  A    between atoms: O_15  and  C_16
REMARK                            x       y       z     vdW  Elec       q    Type
REMARK                         _______ _______ _______ _____ _____    ______ ____
ROOT
ATOM      1  O   UNL     1       4.703   5.556  16.185  0.00  0.00    +0.000 OA
ATOM      2  C   UNL     1       4.853   5.387  17.400  0.00  0.00    +0.000 C 
ATOM      3  N   UNL     1       5.878   5.998  18.099  0.00  0.00    +0.000 N 
ATOM      4  C   UNL     1       6.728   6.969  17.421  0.00  0.00    +0.000 C 
ATOM      5  C   UNL     1       8.126   6.715  17.968  0.00  0.00    +0.000 C 
ATOM      6  C   UNL     1       7.856   6.245  19.384  0.00  0.00    +0.000 C 
ATOM      7  C   UNL     1       6.599   5.404  19.227  0.00  0.00    +0.000 C 
ATOM      8  N   UNL     1       3.990   4.572  18.122  0.00  0.00    +0.000 N 
ATOM      9  C   UNL     1       3.072   3.682  17.402  0.00  0.00    +0.000 C 
ATOM     10  C   UNL     1       1.607   4.131  17.489  0.00  0.00    +0.000 C 
ATOM     11  C   UNL     1       1.198   4.473  18.921  0.00  0.00    +0.000 C 
ATOM     12  C   UNL     1       2.158   5.486  19.548  0.00  0.00    +0.000 C 
ATOM     13  C   UNL     1       2.117   6.876  18.888  0.00  0.00    +0.000 C 
ATOM     14  C   UNL     1       1.864   7.857  20.015  0.00  0.00    +0.000 C 
ATOM     15  C   UNL     1       2.051   7.033  21.275  0.00  0.00    +0.000 C 
ATOM     16  O   UNL     1       1.791   5.666  20.928  0.00  0.00    +0.000 OA
ATOM     17  C   UNL     1       3.576   4.894  19.490  0.00  0.00    +0.000 C 
ENDROOT
BRANCH  14  18
ATOM     18  O   UNL     1       0.513   8.332  19.954  0.00  0.00    +0.000 OA
BRANCH  18  19
ATOM     19  C   UNL     1       0.406   9.711  19.960  0.00  0.00    +0.000 A 
ATOM     20  N   UNL     1       0.604  10.392  21.117  0.00  0.00    +0.000 NA
ATOM     21  C   UNL     1       0.462  11.734  21.067  0.00  0.00    +0.000 A 
ATOM     22  C   UNL     1       0.132  12.433  19.915  0.00  0.00    +0.000 A 
ATOM     23  C   UNL     1      -0.057  11.713  18.738  0.00  0.00    +0.000 A 
ATOM     24  C   UNL     1       0.085  10.331  18.762  0.00  0.00    +0.000 A 
ATOM     25  F   UNL     1      -0.098   9.627  17.635  0.00  0.00    +0.000 F 
ENDBRANCH  18  19
ENDBRANCH  14  18
TORSDOF 2
ENDMDL
MODEL 5
REMARK VINA RESULT:      -6.5      6.594      9.708
REMARK  Name = 
REMARK  2 active torsions:
REMARK  status: ('A' for Active; 'I' for Inactive)
REMARK    1  A    between atoms: C_14  and  O_15
REMARK    2  A    between atoms: O_15  and  C_16
REMARK                            x       y       z     vdW  Elec       q    Type
REMARK                         _______ _______ _______ _____ _____    ______ ____
ROOT
ATOM      1  O   UNL     1       2.256  14.392  22.196  0.00  0.00    +0.000 OA
ATOM      2  C   UNL     1       1.633  14.373  21.128  0.00  0.00    +0.000 C 
ATOM      3  N   UNL     1       2.215  14.778  19.940  0.00  0.00    +0.000 N 
ATOM      4  C   UNL     1       3.634  15.110  19.913  0.00  0.00    +0.000 C 
ATOM      5  C   UNL     1       3.740  16.303  18.973  0.00  0.00    +0.000 C 
ATOM      6  C   UNL     1       2.621  16.054  17.982  0.00  0.00    +0.000 C 
ATOM      7  C   UNL     1       1.519  15.474  18.855  0.00  0.00    +0.000 C 
ATOM      8  N   UNL     1       0.314  13.942  21.074  0.00  0.00    +0.000 N 
ATOM      9  C   UNL     1      -0.439  13.775  22.322  0.00  0.00    +0.000 C 
ATOM     10  C   UNL     1      -0.700  12.306  22.676  0.00  0.00    +0.000 C 
ATOM     11  C   UNL     1      -1.232  11.515  21.481  0.00  0.00    +0.000 C 
ATOM     12  C   UNL     1      -0.322  11.670  20.260  0.00  0.00    +0.000 C 
ATOM     13  C   UNL     1       1.070  11.039  20.436  0.00  0.00    +0.000 C 
ATOM     14  C   UNL     1       1.249  10.105  19.257  0.00  0.00    +0.000 C 
ATOM     15  C   UNL     1       0.096  10.450  18.331  0.00  0.00    +0.000 C 
ATOM     16  O   UNL     1      -0.944  11.009  19.144  0.00  0.00    +0.000 OA
ATOM     17  C   UNL     1      -0.207  13.170  19.943  0.00  0.00    +0.000 C 
ENDROOT
BRANCH  14  18
ATOM     18  O   UNL     1       1.120   8.744  19.687  0.00  0.00    +0.000 OA
BRANCH  18  19
ATOM     19  C   UNL     1       2.079   7.899  19.160  0.00  0.00    +0.000 A 
ATOM     20  N   UNL     1       2.729   8.253  18.023  0.00  0.00    +0.000 NA
ATOM     21  C   UNL     1       3.637   7.377  17.541  0.00  0.00    +0.000 A 
ATOM     22  C   UNL     1       3.930   6.161  18.141  0.00  0.00    +0.000 A 
ATOM     23  C   UNL     1       3.257   5.824  19.313  0.00  0.00    +0.000 A 
ATOM     24  C   UNL     1       2.319   6.708  19.830  0.00  0.00    +0.000 A 
ATOM     25  F   UNL     1       1.662   6.393  20.955  0.00  0.00    +0.000 F 
ENDBRANCH  18  19
ENDBRANCH  14  18
TORSDOF 2
ENDMDL
MODEL 6
REMARK VINA RESULT:      -6.5      6.443      9.079
REMARK  Name = 
REMARK  2 active torsions:
REMARK  status: ('A' for Active; 'I' for Inactive)
REMARK    1  A    between atoms: C_14  and  O_15
REMARK    2  A    between atoms: O_15  and  C_16
REMARK                            x       y       z     vdW  Elec       q    Type
REMARK                         _______ _______ _______ _____ _____    ______ ____
ROOT
ATOM      1  O   UNL     1      -1.653  11.825  17.002  0.00  0.00    +0.000 OA
ATOM      2  C   UNL     1      -2.030  11.988  18.168  0.00  0.00    +0.000 C 
ATOM      3  N   UNL     1      -3.256  11.524  18.608  0.00  0.00    +0.000 N 
ATOM      4  C   UNL     1      -4.074  10.707  17.720  0.00  0.00    +0.000 C 
ATOM      5  C   UNL     1      -5.505  11.157  17.981  0.00  0.00    +0.000 C 
ATOM      6  C   UNL     1      -5.476  11.551  19.444  0.00  0.00    +0.000 C 
ATOM      7  C   UNL     1      -4.106  12.196  19.594  0.00  0.00    +0.000 C 
ATOM      8  N   UNL     1      -1.232  12.648  19.093  0.00  0.00    +0.000 N 
ATOM      9  C   UNL     1      -0.064  13.404  18.626  0.00  0.00    +0.000 C 
ATOM     10  C   UNL     1       1.269  12.738  18.989  0.00  0.00    +0.000 C 
ATOM     11  C   UNL     1       1.314  12.307  20.454  0.00  0.00    +0.000 C 
ATOM     12  C   UNL     1       0.108  11.438  20.816  0.00  0.00    +0.000 C 
ATOM     13  C   UNL     1       0.088  10.072  20.107  0.00  0.00    +0.000 C 
ATOM     14  C   UNL     1      -0.046   9.040  21.208  0.00  0.00    +0.000 C 
ATOM     15  C   UNL     1      -0.374   9.856  22.445  0.00  0.00    +0.000 C 
ATOM     16  O   UNL     1       0.146  11.175  22.231  0.00  0.00    +0.000 OA
ATOM     17  C   UNL     1      -1.166  12.238  20.499  0.00  0.00    +0.000 C 
ENDROOT
BRANCH  14  18
ATOM     18  O   UNL     1       1.205   8.368  21.402  0.00  0.00    +0.000 OA
BRANCH  18  19
ATOM     19  C   UNL     1       1.719   7.802  20.250  0.00  0.00    +0.000 A 
ATOM     20  N   UNL     1       1.983   8.591  19.179  0.00  0.00    +0.000 NA
ATOM     21  C   UNL     1       2.459   7.979  18.073  0.00  0.00    +0.000 A 
ATOM     22  C   UNL     1       2.685   6.613  17.983  0.00  0.00    +0.000 A 
ATOM     23  C   UNL     1       2.415   5.826  19.099  0.00  0.00    +0.000 A 
ATOM     24  C   UNL     1       1.926   6.430  20.250  0.00  0.00    +0.000 A 
ATOM     25  F   UNL     1       1.659   5.681  21.329  0.00  0.00    +0.000 F 
ENDBRANCH  18  19
ENDBRANCH  14  18
TORSDOF 2
ENDMDL
MODEL 7
REMARK VINA RESULT:      -6.4      3.853      7.346
REMARK  Name = 
REMARK  2 active torsions:
REMARK  status: ('A' for Active; 'I' for Inactive)
REMARK    1  A    between atoms: C_14  and  O_15
REMARK    2  A    between atoms: O_15  and  C_16
REMARK                            x       y       z     vdW  Elec       q    Type
REMARK                         _______ _______ _______ _____ _____    ______ ____
ROOT
ATOM      1  O   UNL     1       4.122   3.284  16.999  0.00  0.00    +0.000 OA
ATOM      2  C   UNL     1       4.423   3.930  18.008  0.00  0.00    +0.000 C 
ATOM      3  N   UNL     1       5.591   4.668  18.078  0.00  0.00    +0.000 N 
ATOM      4  C   UNL     1       6.428   4.799  16.892  0.00  0.00    +0.000 C 
ATOM      5  C   UNL     1       7.858   4.737  17.413  0.00  0.00    +0.000 C 
ATOM      6  C   UNL     1       7.745   5.362  18.789  0.00  0.00    +0.000 C 
ATOM      7  C   UNL     1       6.402   4.848  19.285  0.00  0.00    +0.000 C 
ATOM      8  N   UNL     1       3.595   3.945  19.123  0.00  0.00    +0.000 N 
ATOM      9  C   UNL     1       2.502   2.971  19.220  0.00  0.00    +0.000 C 
ATOM     10  C   UNL     1       1.115   3.602  19.043  0.00  0.00    +0.000 C 
ATOM     11  C   UNL     1       0.946   4.861  19.894  0.00  0.00    +0.000 C 
ATOM     12  C   UNL     1       2.080   5.858  19.644  0.00  0.00    +0.000 C 
ATOM     13  C   UNL     1       2.082   6.458  18.227  0.00  0.00    +0.000 C 
ATOM     14  C   UNL     1       2.087   7.961  18.418  0.00  0.00    +0.000 C 
ATOM     15  C   UNL     1       2.367   8.147  19.898  0.00  0.00    +0.000 C 
ATOM     16  O   UNL     1       1.929   6.955  20.563  0.00  0.00    +0.000 OA
ATOM     17  C   UNL     1       3.410   5.147  19.940  0.00  0.00    +0.000 C 
ENDROOT
BRANCH  14  18
ATOM     18  O   UNL     1       0.794   8.497  18.109  0.00  0.00    +0.000 OA
BRANCH  18  19
ATOM     19  C   UNL     1       0.702   9.865  18.282  0.00  0.00    +0.000 A 
ATOM     20  N   UNL     1       1.831  10.617  18.277  0.00  0.00    +0.000 NA
ATOM     21  C   UNL     1       1.681  11.945  18.476  0.00  0.00    +0.000 A 
ATOM     22  C   UNL     1       0.456  12.561  18.680  0.00  0.00    +0.000 A 
ATOM     23  C   UNL     1      -0.690  11.770  18.672  0.00  0.00    +0.000 A 
ATOM     24  C   UNL     1      -0.564  10.401  18.468  0.00  0.00    +0.000 A 
ATOM     25  F   UNL     1      -1.660   9.629  18.462  0.00  0.00    +0.000 F 
ENDBRANCH  18  19
ENDBRANCH  14  18
TORSDOF 2
ENDMDL
MODEL 8
REMARK VINA RESULT:      -6.4      3.910      7.947
REMARK  Name = 
REMARK  2 active torsions:
REMARK  status: ('A' for Active; 'I' for Inactive)
REMARK    1  A    between atoms: C_14  and  O_15
REMARK    2  A    between atoms: O_15  and  C_16
REMARK                            x       y       z     vdW  Elec       q    Type
REMARK                         _______ _______ _______ _____ _____    ______ ____
ROOT
ATOM      1  O   UNL     1       4.552   5.771  16.120  0.00  0.00    +0.000 OA
ATOM      2  C   UNL     1       4.814   5.437  17.281  0.00  0.00    +0.000 C 
ATOM      3  N   UNL     1       5.833   6.038  17.998  0.00  0.00    +0.000 N 
ATOM      4  C   UNL     1       6.533   7.182  17.428  0.00  0.00    +0.000 C 
ATOM      5  C   UNL     1       7.988   6.994  17.834  0.00  0.00    +0.000 C 
ATOM      6  C   UNL     1       7.878   6.290  19.172  0.00  0.00    +0.000 C 
ATOM      7  C   UNL     1       6.695   5.357  18.968  0.00  0.00    +0.000 C 
ATOM      8  N   UNL     1       4.091   4.438  17.920  0.00  0.00    +0.000 N 
ATOM      9  C   UNL     1       3.202   3.577  17.132  0.00  0.00    +0.000 C 
ATOM     10  C   UNL     1       1.715   3.855  17.385  0.00  0.00    +0.000 C 
ATOM     11  C   UNL     1       1.394   3.933  18.877  0.00  0.00    +0.000 C 
ATOM     12  C   UNL     1       2.306   4.933  19.592  0.00  0.00    +0.000 C 
ATOM     13  C   UNL     1       2.085   6.395  19.164  0.00  0.00    +0.000 C 
ATOM     14  C   UNL     1       1.835   7.164  20.446  0.00  0.00    +0.000 C 
ATOM     15  C   UNL     1       2.199   6.182  21.545  0.00  0.00    +0.000 C 
ATOM     16  O   UNL     1       2.037   4.864  21.004  0.00  0.00    +0.000 OA
ATOM     17  C   UNL     1       3.762   4.506  19.346  0.00  0.00    +0.000 C 
ENDROOT
BRANCH  14  18
ATOM     18  O   UNL     1       0.446   7.501  20.551  0.00  0.00    +0.000 OA
BRANCH  18  19
ATOM     19  C   UNL     1       0.217   8.764  21.064  0.00  0.00    +0.000 A 
ATOM     20  N   UNL     1      -0.118   8.904  22.371  0.00  0.00    +0.000 NA
ATOM     21  C   UNL     1      -0.354  10.161  22.809  0.00  0.00    +0.000 A 
ATOM     22  C   UNL     1      -0.272  11.287  22.005  0.00  0.00    +0.000 A 
ATOM     23  C   UNL     1       0.084  11.119  20.669  0.00  0.00    +0.000 A 
ATOM     24  C   UNL     1       0.333   9.838  20.193  0.00  0.00    +0.000 A 
ATOM     25  F   UNL     1       0.673   9.663  18.908  0.00  0.00    +0.000 F 
ENDBRANCH  18  19
ENDBRANCH  14  18
TORSDOF 2
ENDMDL
MODEL 9
REMARK VINA RESULT:      -6.4      6.144      8.712
REMARK  Name = 
REMARK  2 active torsions:
REMARK  status: ('A' for Active; 'I' for Inactive)
REMARK    1  A    between atoms: C_14  and  O_15
REMARK    2  A    between atoms: O_15  and  C_16
REMARK                            x       y       z     vdW  Elec       q    Type
REMARK                         _______ _______ _______ _____ _____    ______ ____
ROOT
ATOM      1  O   UNL     1      -0.783  12.835  17.305  0.00  0.00    +0.000 OA
ATOM      2  C   UNL     1      -1.442  12.387  18.250  0.00  0.00    +0.000 C 
ATOM      3  N   UNL     1      -2.567  11.610  18.049  0.00  0.00    +0.000 N 
ATOM      4  C   UNL     1      -2.918  11.193  16.696  0.00  0.00    +0.000 C 
ATOM      5  C   UNL     1      -4.438  11.272  16.644  0.00  0.00    +0.000 C 
ATOM      6  C   UNL     1      -4.844  10.944  18.067  0.00  0.00    +0.000 C 
ATOM      7  C   UNL     1      -3.765  11.627  18.893  0.00  0.00    +0.000 C 
ATOM      8  N   UNL     1      -1.076  12.647  19.565  0.00  0.00    +0.000 N 
ATOM      9  C   UNL     1      -0.077  13.685  19.842  0.00  0.00    +0.000 C 
ATOM     10  C   UNL     1       1.268  13.115  20.311  0.00  0.00    +0.000 C 
ATOM     11  C   UNL     1       1.094  12.066  21.409  0.00  0.00    +0.000 C 
ATOM     12  C   UNL     1       0.112  10.972  20.983  0.00  0.00    +0.000 C 
ATOM     13  C   UNL     1       0.615  10.101  19.819  0.00  0.00    +0.000 C 
ATOM     14  C   UNL     1       0.515   8.669  20.305  0.00  0.00    +0.000 C 
ATOM     15  C   UNL     1      -0.288   8.768  21.589  0.00  0.00    +0.000 C 
ATOM     16  O   UNL     1      -0.101  10.093  22.103  0.00  0.00    +0.000 OA
ATOM     17  C   UNL     1      -1.223  11.647  20.626  0.00  0.00    +0.000 C 
ENDROOT
BRANCH  14  18
ATOM     18  O   UNL     1       1.822   8.162  20.600  0.00  0.00    +0.000 OA
BRANCH  18  19
ATOM     19  C   UNL     1       2.282   7.237  19.681  0.00  0.00    +0.000 A 
ATOM     20  N   UNL     1       2.900   7.666  18.553  0.00  0.00    +0.000 NA
ATOM     21  C   UNL     1       3.305   6.717  17.680  0.00  0.00    +0.000 A 
ATOM     22  C   UNL     1       3.122   5.357  17.879  0.00  0.00    +0.000 A 
ATOM     23  C   UNL     1       2.493   4.940  19.049  0.00  0.00    +0.000 A 
ATOM     24  C   UNL     1       2.068   5.895  19.964  0.00  0.00    +0.000 A 
ATOM     25  F   UNL     1       1.458   5.506  21.093  0.00  0.00    +0.000 F 
ENDBRANCH  18  19
ENDBRANCH  14  18
TORSDOF 2
ENDMDL
