MODEL 1
REMARK VINA RESULT:      -8.5      0.000      0.000
REMARK  Name = 
REMARK  6 active torsions:
REMARK  status: ('A' for Active; 'I' for Inactive)
REMARK    1  A    between atoms: C_4  and  C_5
REMARK    2  A    between atoms: N_8  and  C_9
REMARK    3  A    between atoms: C_9  and  C_10
REMARK    4  A    between atoms: C_10  and  C_11
REMARK    5  A    between atoms: C_11  and  N_12
REMARK    6  A    between atoms: C_18  and  C_19
REMARK                            x       y       z     vdW  Elec       q    Type
REMARK                         _______ _______ _______ _____ _____    ______ ____
ROOT
ATOM      1  C   UNL     1       6.251   4.867  15.754  0.00  0.00    +0.000 A 
ATOM      2  N   UNL     1       7.037   5.790  16.344  0.00  0.00    +0.000 NA
ATOM      3  C   UNL     1       6.821   6.052  17.634  0.00  0.00    +0.000 A 
ATOM      4  N   UNL     1       7.522   7.064  18.291  0.00  0.00    +0.000 N 
ATOM      5  C   UNL     1       5.816   5.427  18.337  0.00  0.00    +0.000 A 
ATOM      6  C   UNL     1       5.025   4.522  17.663  0.00  0.00    +0.000 A 
ATOM      7  N   UNL     1       5.246   4.216  16.371  0.00  0.00    +0.000 NA
ATOM      8  H   UNL     1       7.979   6.758  19.144  0.00  0.00    +0.000 HD
ENDROOT
BRANCH   1  12
ATOM      9  C   UNL     1       6.982   3.971  11.611  0.00  0.00    +0.000 A 
ATOM     10  C   UNL     1       5.965   3.317  12.298  0.00  0.00    +0.000 A 
ATOM     11  C   UNL     1       5.724   3.619  13.640  0.00  0.00    +0.000 A 
ATOM     12  C   UNL     1       6.493   4.576  14.329  0.00  0.00    +0.000 A 
ATOM     13  C   UNL     1       7.507   5.232  13.604  0.00  0.00    +0.000 A 
ATOM     14  C   UNL     1       7.752   4.931  12.262  0.00  0.00    +0.000 A 
ENDBRANCH   1  12
BRANCH   6  15
ATOM     15  C   UNL     1       3.899   3.847  18.317  0.00  0.00    +0.000 A 
ATOM     16  C   UNL     1       2.611   3.825  17.756  0.00  0.00    +0.000 A 
ATOM     17  C   UNL     1       1.547   3.239  18.444  0.00  0.00    +0.000 A 
ATOM     18  C   UNL     1       1.804   2.678  19.676  0.00  0.00    +0.000 A 
ATOM     19  N   UNL     1       3.025   2.644  20.249  0.00  0.00    +0.000 NA
ATOM     20  C   UNL     1       4.039   3.221  19.555  0.00  0.00    +0.000 A 
ENDBRANCH   6  15
BRANCH   4  21
ATOM     21  C   UNL     1       8.233   8.042  17.484  0.00  0.00    +0.000 C 
BRANCH  21  22
ATOM     22  C   UNL     1       7.929   9.444  18.013  0.00  0.00    +0.000 C 
BRANCH  22  23
ATOM     23  C   UNL     1       9.109   9.976  18.823  0.00  0.00    +0.000 C 
BRANCH  23  24
ATOM     24  N   UNL     1       9.628  11.211  18.287  0.00  0.00    +0.000 N 
ATOM     25  C   UNL     1      10.945  11.535  18.138  0.00  0.00    +0.000 A 
ATOM     26  C   UNL     1      10.934  12.819  17.651  0.00  0.00    +0.000 A 
ATOM     27  N   UNL     1       9.646  13.274  17.499  0.00  0.00    +0.000 NA
ATOM     28  C   UNL     1       8.879  12.274  17.886  0.00  0.00    +0.000 A 
ENDBRANCH  23  24
ENDBRANCH  22  23
ENDBRANCH  21  22
ENDBRANCH   4  21
TORSDOF 6
ENDMDL
MODEL 2
REMARK VINA RESULT:      -8.4      0.877      1.035
REMARK  Name = 
REMARK  6 active torsions:
REMARK  status: ('A' for Active; 'I' for Inactive)
REMARK    1  A    between atoms: C_4  and  C_5
REMARK    2  A    between atoms: N_8  and  C_9
REMARK    3  A    between atoms: C_9  and  C_10
REMARK    4  A    between atoms: C_10  and  C_11
REMARK    5  A    between atoms: C_11  and  N_12
REMARK    6  A    between atoms: C_18  and  C_19
REMARK                            x       y       z     vdW  Elec       q    Type
REMARK                         _______ _______ _______ _____ _____    ______ ____
ROOT
ATOM      1  C   UNL     1       6.006   4.828  15.616  0.00  0.00    +0.000 A 
ATOM      2  N   UNL     1       6.729   5.752  16.280  0.00  0.00    +0.000 NA
ATOM      3  C   UNL     1       6.403   5.997  17.550  0.00  0.00    +0.000 A 
ATOM      4  N   UNL     1       7.035   7.008  18.273  0.00  0.00    +0.000 N 
ATOM      5  C   UNL     1       5.350   5.353  18.159  0.00  0.00    +0.000 A 
ATOM      6  C   UNL     1       4.629   4.447  17.411  0.00  0.00    +0.000 A 
ATOM      7  N   UNL     1       4.961   4.159  16.139  0.00  0.00    +0.000 NA
ATOM      8  H   UNL     1       7.422   6.698  19.158  0.00  0.00    +0.000 HD
ENDROOT
BRANCH   1  12
ATOM      9  C   UNL     1       7.091   3.989  11.539  0.00  0.00    +0.000 A 
ATOM     10  C   UNL     1       6.027   3.317  12.130  0.00  0.00    +0.000 A 
ATOM     11  C   UNL     1       5.672   3.600  13.450  0.00  0.00    +0.000 A 
ATOM     12  C   UNL     1       6.370   4.557  14.212  0.00  0.00    +0.000 A 
ATOM     13  C   UNL     1       7.434   5.231  13.582  0.00  0.00    +0.000 A 
ATOM     14  C   UNL     1       7.794   4.949  12.262  0.00  0.00    +0.000 A 
ENDBRANCH   1  12
BRANCH   6  15
ATOM     15  C   UNL     1       3.460   3.752  17.961  0.00  0.00    +0.000 A 
ATOM     16  C   UNL     1       2.154   4.248  17.810  0.00  0.00    +0.000 A 
ATOM     17  C   UNL     1       1.075   3.600  18.412  0.00  0.00    +0.000 A 
ATOM     18  C   UNL     1       1.330   2.462  19.145  0.00  0.00    +0.000 A 
ATOM     19  N   UNL     1       2.558   1.926  19.300  0.00  0.00    +0.000 NA
ATOM     20  C   UNL     1       3.587   2.577  18.701  0.00  0.00    +0.000 A 
ENDBRANCH   6  15
BRANCH   4  21
ATOM     21  C   UNL     1       7.798   8.003  17.540  0.00  0.00    +0.000 C 
BRANCH  21  22
ATOM     22  C   UNL     1       8.618   8.835  18.527  0.00  0.00    +0.000 C 
BRANCH  22  23
ATOM     23  C   UNL     1       8.651  10.299  18.093  0.00  0.00    +0.000 C 
BRANCH  23  24
ATOM     24  N   UNL     1       9.802  10.998  18.612  0.00  0.00    +0.000 N 
ATOM     25  C   UNL     1      10.073  11.238  19.928  0.00  0.00    +0.000 A 
ATOM     26  C   UNL     1      11.231  11.977  19.914  0.00  0.00    +0.000 A 
ATOM     27  N   UNL     1      11.664  12.183  18.626  0.00  0.00    +0.000 NA
ATOM     28  C   UNL     1      10.781  11.572  17.862  0.00  0.00    +0.000 A 
ENDBRANCH  23  24
ENDBRANCH  22  23
ENDBRANCH  21  22
ENDBRANCH   4  21
TORSDOF 6
ENDMDL
MODEL 3
REMARK VINA RESULT:      -8.4      0.499      1.211
REMARK  Name = 
REMARK  6 active torsions:
REMARK  status: ('A' for Active; 'I' for Inactive)
REMARK    1  A    between atoms: C_4  and  C_5
REMARK    2  A    between atoms: N_8  and  C_9
REMARK    3  A    between atoms: C_9  and  C_10
REMARK    4  A    between atoms: C_10  and  C_11
REMARK    5  A    between atoms: C_11  and  N_12
REMARK    6  A    between atoms: C_18  and  C_19
REMARK                            x       y       z     vdW  Elec       q    Type
REMARK                         _______ _______ _______ _____ _____    ______ ____
ROOT
ATOM      1  C   UNL     1       6.197   4.947  15.772  0.00  0.00    +0.000 A 
ATOM      2  N   UNL     1       7.004   5.848  16.369  0.00  0.00    +0.000 NA
ATOM      3  C   UNL     1       6.753   6.152  17.643  0.00  0.00    +0.000 A 
ATOM      4  N   UNL     1       7.477   7.147  18.301  0.00  0.00    +0.000 N 
ATOM      5  C   UNL     1       5.695   5.592  18.323  0.00  0.00    +0.000 A 
ATOM      6  C   UNL     1       4.888   4.707  17.641  0.00  0.00    +0.000 A 
ATOM      7  N   UNL     1       5.141   4.359  16.366  0.00  0.00    +0.000 NA
ATOM      8  H   UNL     1       7.887   6.843  19.178  0.00  0.00    +0.000 HD
ENDROOT
BRANCH   1  12
ATOM      9  C   UNL     1       6.989   4.009  11.649  0.00  0.00    +0.000 A 
ATOM     10  C   UNL     1       7.781   4.935  12.319  0.00  0.00    +0.000 A 
ATOM     11  C   UNL     1       7.527   5.228  13.660  0.00  0.00    +0.000 A 
ATOM     12  C   UNL     1       6.477   4.609  14.364  0.00  0.00    +0.000 A 
ATOM     13  C   UNL     1       5.700   3.665  13.664  0.00  0.00    +0.000 A 
ATOM     14  C   UNL     1       5.950   3.370  12.321  0.00  0.00    +0.000 A 
ENDBRANCH   1  12
BRANCH   6  15
ATOM     15  C   UNL     1       3.708   4.101  18.268  0.00  0.00    +0.000 A 
ATOM     16  C   UNL     1       2.624   3.619  17.515  0.00  0.00    +0.000 A 
ATOM     17  C   UNL     1       1.486   3.119  18.150  0.00  0.00    +0.000 A 
ATOM     18  C   UNL     1       1.467   3.104  19.528  0.00  0.00    +0.000 A 
ATOM     19  N   UNL     1       2.489   3.527  20.299  0.00  0.00    +0.000 NA
ATOM     20  C   UNL     1       3.583   4.006  19.654  0.00  0.00    +0.000 A 
ENDBRANCH   6  15
BRANCH   4  21
ATOM     21  C   UNL     1       8.260   8.071  17.499  0.00  0.00    +0.000 C 
BRANCH  21  22
ATOM     22  C   UNL     1       7.988   9.500  17.969  0.00  0.00    +0.000 C 
BRANCH  22  23
ATOM     23  C   UNL     1       9.136  10.001  18.844  0.00  0.00    +0.000 C 
BRANCH  23  24
ATOM     24  N   UNL     1       9.697  11.237  18.354  0.00  0.00    +0.000 N 
ATOM     25  C   UNL     1       8.997  12.319  17.906  0.00  0.00    +0.000 A 
ATOM     26  C   UNL     1       9.958  13.210  17.496  0.00  0.00    +0.000 A 
ATOM     27  N   UNL     1      11.217  12.694  17.690  0.00  0.00    +0.000 NA
ATOM     28  C   UNL     1      11.024  11.501  18.217  0.00  0.00    +0.000 A 
ENDBRANCH  23  24
ENDBRANCH  22  23
ENDBRANCH  21  22
ENDBRANCH   4  21
TORSDOF 6
ENDMDL
MODEL 4
REMARK VINA RESULT:      -8.3      3.750      8.504
REMARK  Name = 
REMARK  6 active torsions:
REMARK  status: ('A' for Active; 'I' for Inactive)
REMARK    1  A    between atoms: C_4  and  C_5
REMARK    2  A    between atoms: N_8  and  C_9
REMARK    3  A    between atoms: C_9  and  C_10
REMARK    4  A    between atoms: C_10  and  C_11
REMARK    5  A    between atoms: C_11  and  N_12
REMARK    6  A    between atoms: C_18  and  C_19
REMARK                            x       y       z     vdW  Elec       q    Type
REMARK                         _______ _______ _______ _____ _____    ______ ____
ROOT
ATOM      1  C   UNL     1       3.007   6.784  18.963  0.00  0.00    +0.000 A 
ATOM      2  N   UNL     1       2.896   5.918  19.990  0.00  0.00    +0.000 NA
ATOM      3  C   UNL     1       3.679   4.838  19.975  0.00  0.00    +0.000 A 
ATOM      4  N   UNL     1       3.554   3.844  20.946  0.00  0.00    +0.000 N 
ATOM      5  C   UNL     1       4.551   4.596  18.938  0.00  0.00    +0.000 A 
ATOM      6  C   UNL     1       4.587   5.504  17.901  0.00  0.00    +0.000 A 
ATOM      7  N   UNL     1       3.831   6.617  17.912  0.00  0.00    +0.000 NA
ATOM      8  H   UNL     1       4.426   3.616  21.412  0.00  0.00    +0.000 HD
ENDROOT
BRANCH   1  12
ATOM      9  C   UNL     1       0.442  10.237  19.021  0.00  0.00    +0.000 A 
ATOM     10  C   UNL     1       0.660   9.510  20.186  0.00  0.00    +0.000 A 
ATOM     11  C   UNL     1       1.502   8.396  20.165  0.00  0.00    +0.000 A 
ATOM     12  C   UNL     1       2.143   7.979  18.983  0.00  0.00    +0.000 A 
ATOM     13  C   UNL     1       1.913   8.742  17.822  0.00  0.00    +0.000 A 
ATOM     14  C   UNL     1       1.070   9.856  17.838  0.00  0.00    +0.000 A 
ENDBRANCH   1  12
BRANCH   6  15
ATOM     15  C   UNL     1       5.448   5.301  16.730  0.00  0.00    +0.000 A 
ATOM     16  C   UNL     1       5.124   4.390  15.711  0.00  0.00    +0.000 A 
ATOM     17  C   UNL     1       6.004   4.169  14.651  0.00  0.00    +0.000 A 
ATOM     18  C   UNL     1       7.186   4.876  14.633  0.00  0.00    +0.000 A 
ATOM     19  N   UNL     1       7.535   5.783  15.568  0.00  0.00    +0.000 NA
ATOM     20  C   UNL     1       6.659   5.978  16.586  0.00  0.00    +0.000 A 
ENDBRANCH   6  15
BRANCH   4  21
ATOM     21  C   UNL     1       2.353   3.829  21.763  0.00  0.00    +0.000 C 
BRANCH  21  22
ATOM     22  C   UNL     1       1.499   2.620  21.379  0.00  0.00    +0.000 C 
BRANCH  22  23
ATOM     23  C   UNL     1       0.601   2.956  20.191  0.00  0.00    +0.000 C 
BRANCH  23  24
ATOM     24  N   UNL     1       1.283   2.798  18.928  0.00  0.00    +0.000 N 
ATOM     25  C   UNL     1       2.155   1.800  18.602  0.00  0.00    +0.000 A 
ATOM     26  C   UNL     1       2.580   2.111  17.334  0.00  0.00    +0.000 A 
ATOM     27  N   UNL     1       1.983   3.265  16.887  0.00  0.00    +0.000 NA
ATOM     28  C   UNL     1       1.199   3.652  17.873  0.00  0.00    +0.000 A 
ENDBRANCH  23  24
ENDBRANCH  22  23
ENDBRANCH  21  22
ENDBRANCH   4  21
TORSDOF 6
ENDMDL
MODEL 5
REMARK VINA RESULT:      -8.3      0.942      1.597
REMARK  Name = 
REMARK  6 active torsions:
REMARK  status: ('A' for Active; 'I' for Inactive)
REMARK    1  A    between atoms: C_4  and  C_5
REMARK    2  A    between atoms: N_8  and  C_9
REMARK    3  A    between atoms: C_9  and  C_10
REMARK    4  A    between atoms: C_10  and  C_11
REMARK    5  A    between atoms: C_11  and  N_12
REMARK    6  A    between atoms: C_18  and  C_19
REMARK                            x       y       z     vdW  Elec       q    Type
REMARK                         _______ _______ _______ _____ _____    ______ ____
ROOT
ATOM      1  C   UNL     1       6.095   4.921  15.802  0.00  0.00    +0.000 A 
ATOM      2  N   UNL     1       6.845   5.852  16.425  0.00  0.00    +0.000 NA
ATOM      3  C   UNL     1       6.556   6.129  17.697  0.00  0.00    +0.000 A 
ATOM      4  N   UNL     1       7.218   7.150  18.380  0.00  0.00    +0.000 N 
ATOM      5  C   UNL     1       5.514   5.510  18.350  0.00  0.00    +0.000 A 
ATOM      6  C   UNL     1       4.765   4.595  17.643  0.00  0.00    +0.000 A 
ATOM      7  N   UNL     1       5.058   4.275  16.369  0.00  0.00    +0.000 NA
ATOM      8  H   UNL     1       7.626   6.855  19.261  0.00  0.00    +0.000 HD
ENDROOT
BRANCH   1  12
ATOM      9  C   UNL     1       7.009   4.073  11.686  0.00  0.00    +0.000 A 
ATOM     10  C   UNL     1       7.752   5.017  12.385  0.00  0.00    +0.000 A 
ATOM     11  C   UNL     1       7.459   5.281  13.724  0.00  0.00    +0.000 A 
ATOM     12  C   UNL     1       6.417   4.614  14.396  0.00  0.00    +0.000 A 
ATOM     13  C   UNL     1       5.690   3.654  13.666  0.00  0.00    +0.000 A 
ATOM     14  C   UNL     1       5.979   3.388  12.325  0.00  0.00    +0.000 A 
ENDBRANCH   1  12
BRANCH   6  15
ATOM     15  C   UNL     1       3.604   3.924  18.241  0.00  0.00    +0.000 A 
ATOM     16  C   UNL     1       3.488   3.723  19.627  0.00  0.00    +0.000 A 
ATOM     17  C   UNL     1       2.407   3.013  20.152  0.00  0.00    +0.000 A 
ATOM     18  C   UNL     1       1.461   2.532  19.274  0.00  0.00    +0.000 A 
ATOM     19  N   UNL     1       1.507   2.720  17.940  0.00  0.00    +0.000 NA
ATOM     20  C   UNL     1       2.569   3.415  17.458  0.00  0.00    +0.000 A 
ENDBRANCH   6  15
BRANCH   4  21
ATOM     21  C   UNL     1       7.970   8.120  17.603  0.00  0.00    +0.000 C 
BRANCH  21  22
ATOM     22  C   UNL     1       8.640   9.114  18.554  0.00  0.00    +0.000 C 
BRANCH  22  23
ATOM     23  C   UNL     1       8.896  10.441  17.844  0.00  0.00    +0.000 C 
BRANCH  23  24
ATOM     24  N   UNL     1      10.011  11.160  18.414  0.00  0.00    +0.000 N 
ATOM     25  C   UNL     1      10.947  11.874  17.725  0.00  0.00    +0.000 A 
ATOM     26  C   UNL     1      11.823  12.317  18.686  0.00  0.00    +0.000 A 
ATOM     27  N   UNL     1      11.435  11.892  19.933  0.00  0.00    +0.000 NA
ATOM     28  C   UNL     1      10.331  11.200  19.735  0.00  0.00    +0.000 A 
ENDBRANCH  23  24
ENDBRANCH  22  23
ENDBRANCH  21  22
ENDBRANCH   4  21
TORSDOF 6
ENDMDL
MODEL 6
REMARK VINA RESULT:      -8.2      1.017      1.483
REMARK  Name = 
REMARK  6 active torsions:
REMARK  status: ('A' for Active; 'I' for Inactive)
REMARK    1  A    between atoms: C_4  and  C_5
REMARK    2  A    between atoms: N_8  and  C_9
REMARK    3  A    between atoms: C_9  and  C_10
REMARK    4  A    between atoms: C_10  and  C_11
REMARK    5  A    between atoms: C_11  and  N_12
REMARK    6  A    between atoms: C_18  and  C_19
REMARK                            x       y       z     vdW  Elec       q    Type
REMARK                         _______ _______ _______ _____ _____    ______ ____
ROOT
ATOM      1  C   UNL     1       5.957   4.913  15.623  0.00  0.00    +0.000 A 
ATOM      2  N   UNL     1       6.760   5.790  16.258  0.00  0.00    +0.000 NA
ATOM      3  C   UNL     1       6.442   6.125  17.509  0.00  0.00    +0.000 A 
ATOM      4  N   UNL     1       7.163   7.100  18.199  0.00  0.00    +0.000 N 
ATOM      5  C   UNL     1       5.321   5.618  18.127  0.00  0.00    +0.000 A 
ATOM      6  C   UNL     1       4.523   4.756  17.408  0.00  0.00    +0.000 A 
ATOM      7  N   UNL     1       4.842   4.377  16.156  0.00  0.00    +0.000 NA
ATOM      8  H   UNL     1       7.504   6.794  19.104  0.00  0.00    +0.000 HD
ENDROOT
BRANCH   1  12
ATOM      9  C   UNL     1       6.967   3.878  11.572  0.00  0.00    +0.000 A 
ATOM     10  C   UNL     1       7.746   4.791  12.274  0.00  0.00    +0.000 A 
ATOM     11  C   UNL     1       7.421   5.116  13.592  0.00  0.00    +0.000 A 
ATOM     12  C   UNL     1       6.311   4.542  14.240  0.00  0.00    +0.000 A 
ATOM     13  C   UNL     1       5.548   3.610  13.509  0.00  0.00    +0.000 A 
ATOM     14  C   UNL     1       5.869   3.284  12.189  0.00  0.00    +0.000 A 
ENDBRANCH   1  12
BRANCH   6  15
ATOM     15  C   UNL     1       3.282   4.208  17.967  0.00  0.00    +0.000 A 
ATOM     16  C   UNL     1       2.565   4.863  18.981  0.00  0.00    +0.000 A 
ATOM     17  C   UNL     1       1.431   4.274  19.542  0.00  0.00    +0.000 A 
ATOM     18  C   UNL     1       1.036   3.044  19.062  0.00  0.00    +0.000 A 
ATOM     19  N   UNL     1       1.669   2.384  18.071  0.00  0.00    +0.000 NA
ATOM     20  C   UNL     1       2.767   2.982  17.545  0.00  0.00    +0.000 A 
ENDBRANCH   6  15
BRANCH   4  21
ATOM     21  C   UNL     1       8.033   7.979  17.435  0.00  0.00    +0.000 C 
BRANCH  21  22
ATOM     22  C   UNL     1       7.909   9.403  17.978  0.00  0.00    +0.000 C 
BRANCH  22  23
ATOM     23  C   UNL     1       9.107   9.743  18.863  0.00  0.00    +0.000 C 
BRANCH  23  24
ATOM     24  N   UNL     1       9.273  11.166  19.035  0.00  0.00    +0.000 N 
ATOM     25  C   UNL     1       9.479  11.817  20.216  0.00  0.00    +0.000 A 
ATOM     26  C   UNL     1       9.515  13.147  19.878  0.00  0.00    +0.000 A 
ATOM     27  N   UNL     1       9.341  13.313  18.526  0.00  0.00    +0.000 NA
ATOM     28  C   UNL     1       9.205  12.094  18.043  0.00  0.00    +0.000 A 
ENDBRANCH  23  24
ENDBRANCH  22  23
ENDBRANCH  21  22
ENDBRANCH   4  21
TORSDOF 6
ENDMDL
MODEL 7
REMARK VINA RESULT:      -7.9      0.938      1.637
REMARK  Name = 
REMARK  6 active torsions:
REMARK  status: ('A' for Active; 'I' for Inactive)
REMARK    1  A    between atoms: C_4  and  C_5
REMARK    2  A    between atoms: N_8  and  C_9
REMARK    3  A    between atoms: C_9  and  C_10
REMARK    4  A    between atoms: C_10  and  C_11
REMARK    5  A    between atoms: C_11  and  N_12
REMARK    6  A    between atoms: C_18  and  C_19
REMARK                            x       y       z     vdW  Elec       q    Type
REMARK                         _______ _______ _______ _____ _____    ______ ____
ROOT
ATOM      1  C   UNL     1       6.405   4.967  15.741  0.00  0.00    +0.000 A 
ATOM      2  N   UNL     1       7.119   5.916  16.379  0.00  0.00    +0.000 NA
ATOM      3  C   UNL     1       6.844   6.135  17.666  0.00  0.00    +0.000 A 
ATOM      4  N   UNL     1       7.467   7.166  18.370  0.00  0.00    +0.000 N 
ATOM      5  C   UNL     1       5.852   5.439  18.319  0.00  0.00    +0.000 A 
ATOM      6  C   UNL     1       5.136   4.510  17.597  0.00  0.00    +0.000 A 
ATOM      7  N   UNL     1       5.417   4.248  16.307  0.00  0.00    +0.000 NA
ATOM      8  H   UNL     1       7.910   6.865  19.231  0.00  0.00    +0.000 HD
ENDROOT
BRANCH   1  12
ATOM      9  C   UNL     1       7.268   4.305  11.579  0.00  0.00    +0.000 A 
ATOM     10  C   UNL     1       7.959   5.281  12.288  0.00  0.00    +0.000 A 
ATOM     11  C   UNL     1       7.683   5.485  13.642  0.00  0.00    +0.000 A 
ATOM     12  C   UNL     1       6.711   4.725  14.319  0.00  0.00    +0.000 A 
ATOM     13  C   UNL     1       6.037   3.735  13.578  0.00  0.00    +0.000 A 
ATOM     14  C   UNL     1       6.308   3.529  12.223  0.00  0.00    +0.000 A 
ENDBRANCH   1  12
BRANCH   6  15
ATOM     15  C   UNL     1       4.026   3.759  18.195  0.00  0.00    +0.000 A 
ATOM     16  C   UNL     1       3.999   3.423  19.559  0.00  0.00    +0.000 A 
ATOM     17  C   UNL     1       2.965   2.642  20.077  0.00  0.00    +0.000 A 
ATOM     18  C   UNL     1       1.975   2.225  19.215  0.00  0.00    +0.000 A 
ATOM     19  N   UNL     1       1.935   2.541  17.905  0.00  0.00    +0.000 NA
ATOM     20  C   UNL     1       2.953   3.303  17.430  0.00  0.00    +0.000 A 
ENDBRANCH   6  15
BRANCH   4  21
ATOM     21  C   UNL     1       8.149   8.201  17.611  0.00  0.00    +0.000 C 
BRANCH  21  22
ATOM     22  C   UNL     1       8.379   9.415  18.512  0.00  0.00    +0.000 C 
BRANCH  22  23
ATOM     23  C   UNL     1       9.368  10.381  17.863  0.00  0.00    +0.000 C 
BRANCH  23  24
ATOM     24  N   UNL     1       9.021  11.762  18.103  0.00  0.00    +0.000 N 
ATOM     25  C   UNL     1       8.107  12.497  17.406  0.00  0.00    +0.000 A 
ATOM     26  C   UNL     1       8.174  13.751  17.961  0.00  0.00    +0.000 A 
ATOM     27  N   UNL     1       9.100  13.788  18.976  0.00  0.00    +0.000 NA
ATOM     28  C   UNL     1       9.590  12.566  19.041  0.00  0.00    +0.000 A 
ENDBRANCH  23  24
ENDBRANCH  22  23
ENDBRANCH  21  22
ENDBRANCH   4  21
TORSDOF 6
ENDMDL
MODEL 8
REMARK VINA RESULT:      -7.8      1.364      1.812
REMARK  Name = 
REMARK  6 active torsions:
REMARK  status: ('A' for Active; 'I' for Inactive)
REMARK    1  A    between atoms: C_4  and  C_5
REMARK    2  A    between atoms: N_8  and  C_9
REMARK    3  A    between atoms: C_9  and  C_10
REMARK    4  A    between atoms: C_10  and  C_11
REMARK    5  A    between atoms: C_11  and  N_12
REMARK    6  A    between atoms: C_18  and  C_19
REMARK                            x       y       z     vdW  Elec       q    Type
REMARK                         _______ _______ _______ _____ _____    ______ ____
ROOT
ATOM      1  C   UNL     1       6.567   5.253  16.142  0.00  0.00    +0.000 A 
ATOM      2  N   UNL     1       7.314   6.290  16.572  0.00  0.00    +0.000 NA
ATOM      3  C   UNL     1       7.194   6.650  17.850  0.00  0.00    +0.000 A 
ATOM      4  N   UNL     1       7.856   7.774  18.346  0.00  0.00    +0.000 N 
ATOM      5  C   UNL     1       6.322   6.009  18.700  0.00  0.00    +0.000 A 
ATOM      6  C   UNL     1       5.561   4.981  18.187  0.00  0.00    +0.000 A 
ATOM      7  N   UNL     1       5.689   4.578  16.909  0.00  0.00    +0.000 NA
ATOM      8  H   UNL     1       8.416   7.588  19.171  0.00  0.00    +0.000 HD
ENDROOT
BRANCH   1  12
ATOM      9  C   UNL     1       6.933   4.136  12.005  0.00  0.00    +0.000 A 
ATOM     10  C   UNL     1       7.770   5.107  12.542  0.00  0.00    +0.000 A 
ATOM     11  C   UNL     1       7.654   5.459  13.888  0.00  0.00    +0.000 A 
ATOM     12  C   UNL     1       6.701   4.854  14.729  0.00  0.00    +0.000 A 
ATOM     13  C   UNL     1       5.876   3.864  14.161  0.00  0.00    +0.000 A 
ATOM     14  C   UNL     1       5.987   3.510  12.813  0.00  0.00    +0.000 A 
ENDBRANCH   1  12
BRANCH   6  15
ATOM     15  C   UNL     1       4.568   4.275  19.005  0.00  0.00    +0.000 A 
ATOM     16  C   UNL     1       3.502   4.943  19.629  0.00  0.00    +0.000 A 
ATOM     17  C   UNL     1       2.622   4.250  20.463  0.00  0.00    +0.000 A 
ATOM     18  C   UNL     1       2.827   2.900  20.641  0.00  0.00    +0.000 A 
ATOM     19  N   UNL     1       3.816   2.203  20.044  0.00  0.00    +0.000 NA
ATOM     20  C   UNL     1       4.654   2.903  19.239  0.00  0.00    +0.000 A 
ENDBRANCH   6  15
BRANCH   4  21
ATOM     21  C   UNL     1       8.393   8.731  17.394  0.00  0.00    +0.000 C 
BRANCH  21  22
ATOM     22  C   UNL     1       8.588  10.078  18.091  0.00  0.00    +0.000 C 
BRANCH  22  23
ATOM     23  C   UNL     1       9.308   9.888  19.425  0.00  0.00    +0.000 C 
BRANCH  23  24
ATOM     24  N   UNL     1       9.858  11.123  19.930  0.00  0.00    +0.000 N 
ATOM     25  C   UNL     1       9.273  11.954  20.840  0.00  0.00    +0.000 A 
ATOM     26  C   UNL     1      10.142  13.011  20.953  0.00  0.00    +0.000 A 
ATOM     27  N   UNL     1      11.235  12.836  20.140  0.00  0.00    +0.000 NA
ATOM     28  C   UNL     1      11.037  11.679  19.539  0.00  0.00    +0.000 A 
ENDBRANCH  23  24
ENDBRANCH  22  23
ENDBRANCH  21  22
ENDBRANCH   4  21
TORSDOF 6
ENDMDL
MODEL 9
REMARK VINA RESULT:      -7.8      3.845      6.893
REMARK  Name = 
REMARK  6 active torsions:
REMARK  status: ('A' for Active; 'I' for Inactive)
REMARK    1  A    between atoms: C_4  and  C_5
REMARK    2  A    between atoms: N_8  and  C_9
REMARK    3  A    between atoms: C_9  and  C_10
REMARK    4  A    between atoms: C_10  and  C_11
REMARK    5  A    between atoms: C_11  and  N_12
REMARK    6  A    between atoms: C_18  and  C_19
REMARK                            x       y       z     vdW  Elec       q    Type
REMARK                         _______ _______ _______ _____ _____    ______ ____
ROOT
ATOM      1  C   UNL     1       2.673   5.770  18.271  0.00  0.00    +0.000 A 
ATOM      2  N   UNL     1       3.679   5.710  17.375  0.00  0.00    +0.000 NA
ATOM      3  C   UNL     1       4.150   6.863  16.897  0.00  0.00    +0.000 A 
ATOM      4  N   UNL     1       5.119   6.884  15.894  0.00  0.00    +0.000 N 
ATOM      5  C   UNL     1       3.616   8.072  17.279  0.00  0.00    +0.000 A 
ATOM      6  C   UNL     1       2.565   8.059  18.170  0.00  0.00    +0.000 A 
ATOM      7  N   UNL     1       2.095   6.911  18.691  0.00  0.00    +0.000 NA
ATOM      8  H   UNL     1       5.933   7.445  16.122  0.00  0.00    +0.000 HD
ENDROOT
BRANCH   1  12
ATOM      9  C   UNL     1       1.117   2.056  19.784  0.00  0.00    +0.000 A 
ATOM     10  C   UNL     1       1.695   2.107  18.520  0.00  0.00    +0.000 A 
ATOM     11  C   UNL     1       2.209   3.313  18.038  0.00  0.00    +0.000 A 
ATOM     12  C   UNL     1       2.155   4.495  18.800  0.00  0.00    +0.000 A 
ATOM     13  C   UNL     1       1.576   4.409  20.081  0.00  0.00    +0.000 A 
ATOM     14  C   UNL     1       1.059   3.206  20.567  0.00  0.00    +0.000 A 
ENDBRANCH   1  12
BRANCH   6  15
ATOM     15  C   UNL     1       1.900   9.297  18.594  0.00  0.00    +0.000 A 
ATOM     16  C   UNL     1       2.176  10.538  17.996  0.00  0.00    +0.000 A 
ATOM     17  C   UNL     1       1.581  11.705  18.477  0.00  0.00    +0.000 A 
ATOM     18  C   UNL     1       0.712  11.598  19.541  0.00  0.00    +0.000 A 
ATOM     19  N   UNL     1       0.388  10.430  20.133  0.00  0.00    +0.000 NA
ATOM     20  C   UNL     1       0.981   9.313  19.643  0.00  0.00    +0.000 A 
ENDBRANCH   6  15
BRANCH   4  21
ATOM     21  C   UNL     1       5.358   5.662  15.144  0.00  0.00    +0.000 C 
BRANCH  21  22
ATOM     22  C   UNL     1       6.824   5.256  15.299  0.00  0.00    +0.000 C 
BRANCH  22  23
ATOM     23  C   UNL     1       6.967   4.173  16.367  0.00  0.00    +0.000 C 
BRANCH  23  24
ATOM     24  N   UNL     1       6.988   4.721  17.702  0.00  0.00    +0.000 N 
ATOM     25  C   UNL     1       7.871   5.644  18.181  0.00  0.00    +0.000 A 
ATOM     26  C   UNL     1       7.527   5.802  19.501  0.00  0.00    +0.000 A 
ATOM     27  N   UNL     1       6.458   5.002  19.827  0.00  0.00    +0.000 NA
ATOM     28  C   UNL     1       6.151   4.366  18.714  0.00  0.00    +0.000 A 
ENDBRANCH  23  24
ENDBRANCH  22  23
ENDBRANCH  21  22
ENDBRANCH   4  21
TORSDOF 6
ENDMDL
