MODEL 1
REMARK VINA RESULT:      -7.8      0.000      0.000
REMARK  Name = 
REMARK  8 active torsions:
REMARK  status: ('A' for Active; 'I' for Inactive)
REMARK    1  A    between atoms: C_1  and  O_2
REMARK    2  A    between atoms: O_2  and  C_3
REMARK    3  A    between atoms: C_7  and  N_8
REMARK    4  A    between atoms: C_14  and  C_15
REMARK    5  A    between atoms: N_17  and  C_18
REMARK    6  A    between atoms: C_18  and  C_19
REMARK    7  A    between atoms: C_19  and  C_20
REMARK    8  A    between atoms: C_20  and  N_21
REMARK                            x       y       z     vdW  Elec       q    Type
REMARK                         _______ _______ _______ _____ _____    ______ ____
ROOT
ATOM      1  N   UNL     1       5.456   5.001  15.682  0.00  0.00    +0.000 N 
ATOM      2  C   UNL     1       5.246   6.372  15.883  0.00  0.00    +0.000 A 
ATOM      3  O   UNL     1       4.962   7.203  15.026  0.00  0.00    +0.000 OA
ATOM      4  N   UNL     1       5.154   6.747  17.218  0.00  0.00    +0.000 N 
ATOM      5  C   UNL     1       4.179   6.027  17.930  0.00  0.00    +0.000 A 
ATOM      6  C   UNL     1       3.437   6.654  18.915  0.00  0.00    +0.000 A 
ATOM      7  C   UNL     1       2.300   6.019  19.443  0.00  0.00    +0.000 A 
ATOM      8  C   UNL     1       1.918   4.766  18.934  0.00  0.00    +0.000 A 
ATOM      9  C   UNL     1       2.733   4.104  17.996  0.00  0.00    +0.000 A 
ATOM     10  C   UNL     1       3.879   4.738  17.518  0.00  0.00    +0.000 A 
ATOM     11  C   UNL     1       4.847   4.116  16.587  0.00  0.00    +0.000 A 
ATOM     12  O   UNL     1       5.053   2.917  16.742  0.00  0.00    +0.000 OA
ATOM     13  H   UNL     1       6.056   6.656  17.679  0.00  0.00    +0.000 HD
ENDROOT
BRANCH   1  18
ATOM     14  C   UNL     1       5.787   3.379  12.279  0.00  0.00    +0.000 A 
ATOM     15  C   UNL     1       6.969   3.956  11.827  0.00  0.00    +0.000 A 
ATOM     16  C   UNL     1       7.727   4.740  12.685  0.00  0.00    +0.000 A 
ATOM     17  C   UNL     1       7.266   5.000  13.976  0.00  0.00    +0.000 A 
ATOM     18  C   UNL     1       6.012   4.540  14.424  0.00  0.00    +0.000 A 
ATOM     19  C   UNL     1       5.321   3.667  13.568  0.00  0.00    +0.000 A 
BRANCH  14  21
ATOM     20  C   UNL     1       3.830   3.045  10.989  0.00  0.00    +0.000 C 
ATOM     21  O   UNL     1       5.131   2.603  11.361  0.00  0.00    +0.000 OA
ENDBRANCH  14  21
ENDBRANCH   1  18
BRANCH   7  22
ATOM     22  C   UNL     1       1.629   6.750  20.548  0.00  0.00    +0.000 C 
ATOM     23  O   UNL     1       0.752   6.168  21.181  0.00  0.00    +0.000 OA
ATOM     24  N   UNL     1       1.982   8.054  20.840  0.00  0.00    +0.000 N 
ATOM     25  H   UNL     1       2.735   8.524  20.359  0.00  0.00    +0.000 HD
BRANCH  24  26
ATOM     26  C   UNL     1       1.247   8.778  21.870  0.00  0.00    +0.000 C 
BRANCH  26  27
ATOM     27  C   UNL     1       0.118   9.683  21.349  0.00  0.00    +0.000 C 
BRANCH  27  28
ATOM     28  C   UNL     1       0.640  10.964  20.684  0.00  0.00    +0.000 C 
BRANCH  28  29
ATOM     29  N   UNL     1       0.915  10.872  19.236  0.00  0.00    +0.000 NA
ATOM     30  C   UNL     1       1.144  12.237  18.689  0.00  0.00    +0.000 C 
ATOM     31  C   UNL     1      -0.131  13.099  18.625  0.00  0.00    +0.000 C 
ATOM     32  O   UNL     1      -1.147  12.459  17.842  0.00  0.00    +0.000 OA
ATOM     33  C   UNL     1      -1.449  11.156  18.357  0.00  0.00    +0.000 C 
ATOM     34  C   UNL     1      -0.189  10.275  18.452  0.00  0.00    +0.000 C 
ENDBRANCH  28  29
ENDBRANCH  27  28
ENDBRANCH  26  27
ENDBRANCH  24  26
ENDBRANCH   7  22
TORSDOF 7
ENDMDL
MODEL 2
REMARK VINA RESULT:      -7.8      3.006      9.759
REMARK  Name = 
REMARK  8 active torsions:
REMARK  status: ('A' for Active; 'I' for Inactive)
REMARK    1  A    between atoms: C_1  and  O_2
REMARK    2  A    between atoms: O_2  and  C_3
REMARK    3  A    between atoms: C_7  and  N_8
REMARK    4  A    between atoms: C_14  and  C_15
REMARK    5  A    between atoms: N_17  and  C_18
REMARK    6  A    between atoms: C_18  and  C_19
REMARK    7  A    between atoms: C_19  and  C_20
REMARK    8  A    between atoms: C_20  and  N_21
REMARK                            x       y       z     vdW  Elec       q    Type
REMARK                         _______ _______ _______ _____ _____    ______ ____
ROOT
ATOM      1  N   UNL     1       0.956  12.388  19.321  0.00  0.00    +0.000 N 
ATOM      2  C   UNL     1       1.795  11.765  18.388  0.00  0.00    +0.000 A 
ATOM      3  O   UNL     1       2.884  12.172  17.996  0.00  0.00    +0.000 OA
ATOM      4  N   UNL     1       1.421  10.468  18.057  0.00  0.00    +0.000 N 
ATOM      5  C   UNL     1       1.282   9.629  19.177  0.00  0.00    +0.000 A 
ATOM      6  C   UNL     1       1.647   8.298  19.094  0.00  0.00    +0.000 A 
ATOM      7  C   UNL     1       1.752   7.528  20.265  0.00  0.00    +0.000 A 
ATOM      8  C   UNL     1       1.516   8.139  21.508  0.00  0.00    +0.000 A 
ATOM      9  C   UNL     1       1.060   9.470  21.569  0.00  0.00    +0.000 A 
ATOM     10  C   UNL     1       0.923  10.200  20.388  0.00  0.00    +0.000 A 
ATOM     11  C   UNL     1       0.389  11.578  20.320  0.00  0.00    +0.000 A 
ATOM     12  O   UNL     1      -0.521  11.845  21.097  0.00  0.00    +0.000 OA
ATOM     13  H   UNL     1       0.558  10.470  17.518  0.00  0.00    +0.000 HD
ENDROOT
BRANCH   1  18
ATOM     14  C   UNL     1      -0.047  16.009  18.866  0.00  0.00    +0.000 A 
ATOM     15  C   UNL     1       0.683  16.613  19.885  0.00  0.00    +0.000 A 
ATOM     16  C   UNL     1       1.608  15.871  20.605  0.00  0.00    +0.000 A 
ATOM     17  C   UNL     1       1.755  14.508  20.349  0.00  0.00    +0.000 A 
ATOM     18  C   UNL     1       0.941  13.835  19.416  0.00  0.00    +0.000 A 
ATOM     19  C   UNL     1       0.089  14.634  18.635  0.00  0.00    +0.000 A 
BRANCH  14  21
ATOM     20  C   UNL     1      -0.314  17.876  17.436  0.00  0.00    +0.000 C 
ATOM     21  O   UNL     1      -0.912  16.836  18.202  0.00  0.00    +0.000 OA
ENDBRANCH  14  21
ENDBRANCH   1  18
BRANCH   7  22
ATOM     22  C   UNL     1       2.073   6.095  20.047  0.00  0.00    +0.000 C 
ATOM     23  O   UNL     1       1.452   5.256  20.694  0.00  0.00    +0.000 OA
ATOM     24  N   UNL     1       3.055   5.727  19.147  0.00  0.00    +0.000 N 
ATOM     25  H   UNL     1       3.537   6.405  18.575  0.00  0.00    +0.000 HD
BRANCH  24  26
ATOM     26  C   UNL     1       3.412   4.318  19.017  0.00  0.00    +0.000 C 
BRANCH  26  27
ATOM     27  C   UNL     1       4.921   4.036  18.939  0.00  0.00    +0.000 C 
BRANCH  27  28
ATOM     28  C   UNL     1       5.775   5.296  19.140  0.00  0.00    +0.000 C 
BRANCH  28  29
ATOM     29  N   UNL     1       7.207   5.164  18.802  0.00  0.00    +0.000 NA
ATOM     30  C   UNL     1       7.824   6.517  18.735  0.00  0.00    +0.000 C 
ATOM     31  C   UNL     1       7.375   7.342  17.513  0.00  0.00    +0.000 C 
ATOM     32  O   UNL     1       7.661   6.649  16.291  0.00  0.00    +0.000 OA
ATOM     33  C   UNL     1       7.044   5.356  16.276  0.00  0.00    +0.000 C 
ATOM     34  C   UNL     1       7.458   4.513  17.498  0.00  0.00    +0.000 C 
ENDBRANCH  28  29
ENDBRANCH  27  28
ENDBRANCH  26  27
ENDBRANCH  24  26
ENDBRANCH   7  22
TORSDOF 7
ENDMDL
MODEL 3
REMARK VINA RESULT:      -7.7      3.670      9.995
REMARK  Name = 
REMARK  8 active torsions:
REMARK  status: ('A' for Active; 'I' for Inactive)
REMARK    1  A    between atoms: C_1  and  O_2
REMARK    2  A    between atoms: O_2  and  C_3
REMARK    3  A    between atoms: C_7  and  N_8
REMARK    4  A    between atoms: C_14  and  C_15
REMARK    5  A    between atoms: N_17  and  C_18
REMARK    6  A    between atoms: C_18  and  C_19
REMARK    7  A    between atoms: C_19  and  C_20
REMARK    8  A    between atoms: C_20  and  N_21
REMARK                            x       y       z     vdW  Elec       q    Type
REMARK                         _______ _______ _______ _____ _____    ______ ____
ROOT
ATOM      1  N   UNL     1      -0.045  10.402  21.134  0.00  0.00    +0.000 N 
ATOM      2  C   UNL     1      -0.008   9.129  21.720  0.00  0.00    +0.000 A 
ATOM      3  O   UNL     1      -0.969   8.477  22.116  0.00  0.00    +0.000 OA
ATOM      4  N   UNL     1       1.226   8.495  21.634  0.00  0.00    +0.000 N 
ATOM      5  C   UNL     1       1.713   8.406  20.319  0.00  0.00    +0.000 A 
ATOM      6  C   UNL     1       2.422   7.289  19.918  0.00  0.00    +0.000 A 
ATOM      7  C   UNL     1       2.685   7.081  18.553  0.00  0.00    +0.000 A 
ATOM      8  C   UNL     1       2.189   8.001  17.614  0.00  0.00    +0.000 A 
ATOM      9  C   UNL     1       1.547   9.177  18.045  0.00  0.00    +0.000 A 
ATOM     10  C   UNL     1       1.335   9.381  19.408  0.00  0.00    +0.000 A 
ATOM     11  C   UNL     1       0.735  10.605  19.984  0.00  0.00    +0.000 A 
ATOM     12  O   UNL     1       1.027  11.661  19.433  0.00  0.00    +0.000 OA
ATOM     13  H   UNL     1       1.909   8.961  22.226  0.00  0.00    +0.000 HD
ENDROOT
BRANCH   1  18
ATOM     14  C   UNL     1      -3.072  12.670  21.022  0.00  0.00    +0.000 A 
ATOM     15  C   UNL     1      -3.296  12.876  22.379  0.00  0.00    +0.000 A 
ATOM     16  C   UNL     1      -2.378  12.409  23.309  0.00  0.00    +0.000 A 
ATOM     17  C   UNL     1      -1.268  11.680  22.882  0.00  0.00    +0.000 A 
ATOM     18  C   UNL     1      -1.078  11.341  21.529  0.00  0.00    +0.000 A 
ATOM     19  C   UNL     1      -1.969  11.914  20.606  0.00  0.00    +0.000 A 
BRANCH  14  21
ATOM     20  C   UNL     1      -4.956  14.086  20.793  0.00  0.00    +0.000 C 
ATOM     21  O   UNL     1      -4.025  13.193  20.190  0.00  0.00    +0.000 OA
ENDBRANCH  14  21
ENDBRANCH   1  18
BRANCH   7  22
ATOM     22  C   UNL     1       3.520   5.892  18.249  0.00  0.00    +0.000 C 
ATOM     23  O   UNL     1       3.275   5.257  17.226  0.00  0.00    +0.000 OA
ATOM     24  N   UNL     1       4.536   5.512  19.105  0.00  0.00    +0.000 N 
ATOM     25  H   UNL     1       4.778   6.055  19.921  0.00  0.00    +0.000 HD
BRANCH  24  26
ATOM     26  C   UNL     1       5.283   4.290  18.828  0.00  0.00    +0.000 C 
BRANCH  26  27
ATOM     27  C   UNL     1       4.809   3.049  19.601  0.00  0.00    +0.000 C 
BRANCH  27  28
ATOM     28  C   UNL     1       3.620   2.347  18.929  0.00  0.00    +0.000 C 
BRANCH  28  29
ATOM     29  N   UNL     1       2.564   1.857  19.839  0.00  0.00    +0.000 NA
ATOM     30  C   UNL     1       1.230   2.119  19.233  0.00  0.00    +0.000 C 
ATOM     31  C   UNL     1       0.843   3.611  19.216  0.00  0.00    +0.000 C 
ATOM     32  O   UNL     1       0.859   4.163  20.538  0.00  0.00    +0.000 OA
ATOM     33  C   UNL     1       2.142   3.986  21.153  0.00  0.00    +0.000 C 
ATOM     34  C   UNL     1       2.568   2.506  21.168  0.00  0.00    +0.000 C 
ENDBRANCH  28  29
ENDBRANCH  27  28
ENDBRANCH  26  27
ENDBRANCH  24  26
ENDBRANCH   7  22
TORSDOF 7
ENDMDL
MODEL 4
REMARK VINA RESULT:      -7.7      2.459      9.895
REMARK  Name = 
REMARK  8 active torsions:
REMARK  status: ('A' for Active; 'I' for Inactive)
REMARK    1  A    between atoms: C_1  and  O_2
REMARK    2  A    between atoms: O_2  and  C_3
REMARK    3  A    between atoms: C_7  and  N_8
REMARK    4  A    between atoms: C_14  and  C_15
REMARK    5  A    between atoms: N_17  and  C_18
REMARK    6  A    between atoms: C_18  and  C_19
REMARK    7  A    between atoms: C_19  and  C_20
REMARK    8  A    between atoms: C_20  and  N_21
REMARK                            x       y       z     vdW  Elec       q    Type
REMARK                         _______ _______ _______ _____ _____    ______ ____
ROOT
ATOM      1  N   UNL     1       0.790  12.570  19.270  0.00  0.00    +0.000 N 
ATOM      2  C   UNL     1       1.837  12.188  18.420  0.00  0.00    +0.000 A 
ATOM      3  O   UNL     1       2.924  12.744  18.302  0.00  0.00    +0.000 OA
ATOM      4  N   UNL     1       1.668  10.941  17.829  0.00  0.00    +0.000 N 
ATOM      5  C   UNL     1       1.439   9.913  18.759  0.00  0.00    +0.000 A 
ATOM      6  C   UNL     1       1.957   8.650  18.538  0.00  0.00    +0.000 A 
ATOM      7  C   UNL     1       1.949   7.702  19.574  0.00  0.00    +0.000 A 
ATOM      8  C   UNL     1       1.444   8.067  20.833  0.00  0.00    +0.000 A 
ATOM      9  C   UNL     1       0.840   9.326  21.016  0.00  0.00    +0.000 A 
ATOM     10  C   UNL     1       0.822  10.235  19.959  0.00  0.00    +0.000 A 
ATOM     11  C   UNL     1       0.158  11.557  20.010  0.00  0.00    +0.000 A 
ATOM     12  O   UNL     1      -0.893  11.610  20.640  0.00  0.00    +0.000 OA
ATOM     13  H   UNL     1       0.913  10.967  17.148  0.00  0.00    +0.000 HD
ENDROOT
BRANCH   1  18
ATOM     14  C   UNL     1      -0.353  16.173  19.079  0.00  0.00    +0.000 A 
ATOM     15  C   UNL     1      -0.078  16.604  20.372  0.00  0.00    +0.000 A 
ATOM     16  C   UNL     1       0.616  15.776  21.244  0.00  0.00    +0.000 A 
ATOM     17  C   UNL     1       0.977  14.491  20.840  0.00  0.00    +0.000 A 
ATOM     18  C   UNL     1       0.601  13.973  19.585  0.00  0.00    +0.000 A 
ATOM     19  C   UNL     1      -0.010  14.871  18.692  0.00  0.00    +0.000 A 
BRANCH  14  21
ATOM     20  C   UNL     1      -1.196  18.373  18.853  0.00  0.00    +0.000 C 
ATOM     21  O   UNL     1      -1.018  17.076  18.294  0.00  0.00    +0.000 OA
ENDBRANCH  14  21
ENDBRANCH   1  18
BRANCH   7  22
ATOM     22  C   UNL     1       2.459   6.358  19.198  0.00  0.00    +0.000 C 
ATOM     23  O   UNL     1       2.245   5.954  18.058  0.00  0.00    +0.000 OA
ATOM     24  N   UNL     1       3.146   5.587  20.117  0.00  0.00    +0.000 N 
ATOM     25  H   UNL     1       3.370   5.930  21.040  0.00  0.00    +0.000 HD
BRANCH  24  26
ATOM     26  C   UNL     1       3.558   4.238  19.750  0.00  0.00    +0.000 C 
BRANCH  26  27
ATOM     27  C   UNL     1       5.037   4.095  19.355  0.00  0.00    +0.000 C 
BRANCH  27  28
ATOM     28  C   UNL     1       5.243   4.018  17.835  0.00  0.00    +0.000 C 
BRANCH  28  29
ATOM     29  N   UNL     1       6.435   4.717  17.311  0.00  0.00    +0.000 NA
ATOM     30  C   UNL     1       6.268   6.184  17.496  0.00  0.00    +0.000 C 
ATOM     31  C   UNL     1       5.210   6.807  16.565  0.00  0.00    +0.000 C 
ATOM     32  O   UNL     1       5.521   6.554  15.189  0.00  0.00    +0.000 OA
ATOM     33  C   UNL     1       5.641   5.147  14.939  0.00  0.00    +0.000 C 
ATOM     34  C   UNL     1       6.678   4.490  15.869  0.00  0.00    +0.000 C 
ENDBRANCH  28  29
ENDBRANCH  27  28
ENDBRANCH  26  27
ENDBRANCH  24  26
ENDBRANCH   7  22
TORSDOF 7
ENDMDL
MODEL 5
REMARK VINA RESULT:      -7.6      3.196      9.716
REMARK  Name = 
REMARK  8 active torsions:
REMARK  status: ('A' for Active; 'I' for Inactive)
REMARK    1  A    between atoms: C_1  and  O_2
REMARK    2  A    between atoms: O_2  and  C_3
REMARK    3  A    between atoms: C_7  and  N_8
REMARK    4  A    between atoms: C_14  and  C_15
REMARK    5  A    between atoms: N_17  and  C_18
REMARK    6  A    between atoms: C_18  and  C_19
REMARK    7  A    between atoms: C_19  and  C_20
REMARK    8  A    between atoms: C_20  and  N_21
REMARK                            x       y       z     vdW  Elec       q    Type
REMARK                         _______ _______ _______ _____ _____    ______ ____
ROOT
ATOM      1  N   UNL     1       0.820  11.993  19.166  0.00  0.00    +0.000 N 
ATOM      2  C   UNL     1       1.826  11.593  18.276  0.00  0.00    +0.000 A 
ATOM      3  O   UNL     1       2.897  12.158  18.079  0.00  0.00    +0.000 OA
ATOM      4  N   UNL     1       1.645  10.323  17.742  0.00  0.00    +0.000 N 
ATOM      5  C   UNL     1       1.481   9.328  18.721  0.00  0.00    +0.000 A 
ATOM      6  C   UNL     1       2.006   8.064  18.519  0.00  0.00    +0.000 A 
ATOM      7  C   UNL     1       2.068   7.155  19.589  0.00  0.00    +0.000 A 
ATOM      8  C   UNL     1       1.624   7.562  20.859  0.00  0.00    +0.000 A 
ATOM      9  C   UNL     1       1.012   8.818  21.027  0.00  0.00    +0.000 A 
ATOM     10  C   UNL     1       0.924   9.687  19.939  0.00  0.00    +0.000 A 
ATOM     11  C   UNL     1       0.244  11.000  19.976  0.00  0.00    +0.000 A 
ATOM     12  O   UNL     1      -0.773  11.064  20.659  0.00  0.00    +0.000 OA
ATOM     13  H   UNL     1       0.855  10.313  17.102  0.00  0.00    +0.000 HD
ENDROOT
BRANCH   1  18
ATOM     14  C   UNL     1       1.238  15.464  20.617  0.00  0.00    +0.000 A 
ATOM     15  C   UNL     1       0.503  16.218  19.709  0.00  0.00    +0.000 A 
ATOM     16  C   UNL     1      -0.247  15.581  18.730  0.00  0.00    +0.000 A 
ATOM     17  C   UNL     1      -0.208  14.191  18.620  0.00  0.00    +0.000 A 
ATOM     18  C   UNL     1       0.626  13.404  19.438  0.00  0.00    +0.000 A 
ATOM     19  C   UNL     1       1.291  14.070  20.482  0.00  0.00    +0.000 A 
BRANCH  14  21
ATOM     20  C   UNL     1       1.313  17.412  21.960  0.00  0.00    +0.000 C 
ATOM     21  O   UNL     1       1.920  16.189  21.557  0.00  0.00    +0.000 OA
ENDBRANCH  14  21
ENDBRANCH   1  18
BRANCH   7  22
ATOM     22  C   UNL     1       2.577   5.805  19.236  0.00  0.00    +0.000 C 
ATOM     23  O   UNL     1       2.879   5.042  20.150  0.00  0.00    +0.000 OA
ATOM     24  N   UNL     1       2.714   5.433  17.913  0.00  0.00    +0.000 N 
ATOM     25  H   UNL     1       2.422   6.034  17.155  0.00  0.00    +0.000 HD
BRANCH  24  26
ATOM     26  C   UNL     1       3.299   4.135  17.594  0.00  0.00    +0.000 C 
BRANCH  26  27
ATOM     27  C   UNL     1       4.399   4.165  16.520  0.00  0.00    +0.000 C 
BRANCH  27  28
ATOM     28  C   UNL     1       5.707   4.791  17.025  0.00  0.00    +0.000 C 
BRANCH  28  29
ATOM     29  N   UNL     1       5.568   5.794  18.100  0.00  0.00    +0.000 NA
ATOM     30  C   UNL     1       6.006   7.123  17.594  0.00  0.00    +0.000 C 
ATOM     31  C   UNL     1       7.528   7.231  17.377  0.00  0.00    +0.000 C 
ATOM     32  O   UNL     1       8.243   6.945  18.586  0.00  0.00    +0.000 OA
ATOM     33  C   UNL     1       7.899   5.649  19.093  0.00  0.00    +0.000 C 
ATOM     34  C   UNL     1       6.380   5.503  19.302  0.00  0.00    +0.000 C 
ENDBRANCH  28  29
ENDBRANCH  27  28
ENDBRANCH  26  27
ENDBRANCH  24  26
ENDBRANCH   7  22
TORSDOF 7
ENDMDL
MODEL 6
REMARK VINA RESULT:      -7.6      3.102     10.494
REMARK  Name = 
REMARK  8 active torsions:
REMARK  status: ('A' for Active; 'I' for Inactive)
REMARK    1  A    between atoms: C_1  and  O_2
REMARK    2  A    between atoms: O_2  and  C_3
REMARK    3  A    between atoms: C_7  and  N_8
REMARK    4  A    between atoms: C_14  and  C_15
REMARK    5  A    between atoms: N_17  and  C_18
REMARK    6  A    between atoms: C_18  and  C_19
REMARK    7  A    between atoms: C_19  and  C_20
REMARK    8  A    between atoms: C_20  and  N_21
REMARK                            x       y       z     vdW  Elec       q    Type
REMARK                         _______ _______ _______ _____ _____    ______ ____
ROOT
ATOM      1  N   UNL     1       0.318  12.678  19.822  0.00  0.00    +0.000 N 
ATOM      2  C   UNL     1       1.382  12.695  18.911  0.00  0.00    +0.000 A 
ATOM      3  O   UNL     1       2.369  13.422  18.952  0.00  0.00    +0.000 OA
ATOM      4  N   UNL     1       1.385  11.633  18.014  0.00  0.00    +0.000 N 
ATOM      5  C   UNL     1       1.343  10.376  18.642  0.00  0.00    +0.000 A 
ATOM      6  C   UNL     1       2.038   9.309  18.104  0.00  0.00    +0.000 A 
ATOM      7  C   UNL     1       2.207   8.135  18.857  0.00  0.00    +0.000 A 
ATOM      8  C   UNL     1       1.692   8.080  20.163  0.00  0.00    +0.000 A 
ATOM      9  C   UNL     1       0.912   9.139  20.662  0.00  0.00    +0.000 A 
ATOM     10  C   UNL     1       0.723  10.277  19.879  0.00  0.00    +0.000 A 
ATOM     11  C   UNL     1      -0.131  11.423  20.267  0.00  0.00    +0.000 A 
ATOM     12  O   UNL     1      -1.157  11.149  20.880  0.00  0.00    +0.000 OA
ATOM     13  H   UNL     1       0.613  11.718  17.357  0.00  0.00    +0.000 HD
ENDROOT
BRANCH   1  18
ATOM     14  C   UNL     1       0.107  15.475  22.363  0.00  0.00    +0.000 A 
ATOM     15  C   UNL     1      -0.543  16.454  21.621  0.00  0.00    +0.000 A 
ATOM     16  C   UNL     1      -1.045  16.149  20.364  0.00  0.00    +0.000 A 
ATOM     17  C   UNL     1      -0.838  14.880  19.823  0.00  0.00    +0.000 A 
ATOM     18  C   UNL     1      -0.071  13.905  20.490  0.00  0.00    +0.000 A 
ATOM     19  C   UNL     1       0.334  14.212  21.800  0.00  0.00    +0.000 A 
BRANCH  14  21
ATOM     20  C   UNL     1       0.877  17.251  23.726  0.00  0.00    +0.000 C 
ATOM     21  O   UNL     1       0.540  15.873  23.599  0.00  0.00    +0.000 OA
ENDBRANCH  14  21
ENDBRANCH   1  18
BRANCH   7  22
ATOM     22  C   UNL     1       2.901   7.030  18.148  0.00  0.00    +0.000 C 
ATOM     23  O   UNL     1       3.608   7.312  17.184  0.00  0.00    +0.000 OA
ATOM     24  N   UNL     1       2.741   5.722  18.563  0.00  0.00    +0.000 N 
ATOM     25  H   UNL     1       2.202   5.484  19.384  0.00  0.00    +0.000 HD
BRANCH  24  26
ATOM     26  C   UNL     1       3.363   4.648  17.797  0.00  0.00    +0.000 C 
BRANCH  26  27
ATOM     27  C   UNL     1       4.523   3.932  18.506  0.00  0.00    +0.000 C 
BRANCH  27  28
ATOM     28  C   UNL     1       5.605   4.900  19.006  0.00  0.00    +0.000 C 
BRANCH  28  29
ATOM     29  N   UNL     1       6.977   4.635  18.528  0.00  0.00    +0.000 NA
ATOM     30  C   UNL     1       7.843   5.804  18.843  0.00  0.00    +0.000 C 
ATOM     31  C   UNL     1       7.538   7.048  17.985  0.00  0.00    +0.000 C 
ATOM     32  O   UNL     1       7.661   6.753  16.588  0.00  0.00    +0.000 OA
ATOM     33  C   UNL     1       6.806   5.665  16.215  0.00  0.00    +0.000 C 
ATOM     34  C   UNL     1       7.072   4.411  17.069  0.00  0.00    +0.000 C 
ENDBRANCH  28  29
ENDBRANCH  27  28
ENDBRANCH  26  27
ENDBRANCH  24  26
ENDBRANCH   7  22
TORSDOF 7
ENDMDL
MODEL 7
REMARK VINA RESULT:      -7.6      3.007      9.885
REMARK  Name = 
REMARK  8 active torsions:
REMARK  status: ('A' for Active; 'I' for Inactive)
REMARK    1  A    between atoms: C_1  and  O_2
REMARK    2  A    between atoms: O_2  and  C_3
REMARK    3  A    between atoms: C_7  and  N_8
REMARK    4  A    between atoms: C_14  and  C_15
REMARK    5  A    between atoms: N_17  and  C_18
REMARK    6  A    between atoms: C_18  and  C_19
REMARK    7  A    between atoms: C_19  and  C_20
REMARK    8  A    between atoms: C_20  and  N_21
REMARK                            x       y       z     vdW  Elec       q    Type
REMARK                         _______ _______ _______ _____ _____    ______ ____
ROOT
ATOM      1  N   UNL     1       0.758  12.498  19.395  0.00  0.00    +0.000 N 
ATOM      2  C   UNL     1       1.626  11.845  18.511  0.00  0.00    +0.000 A 
ATOM      3  O   UNL     1       2.724  12.243  18.134  0.00  0.00    +0.000 OA
ATOM      4  N   UNL     1       1.269  10.533  18.222  0.00  0.00    +0.000 N 
ATOM      5  C   UNL     1       1.104   9.738  19.369  0.00  0.00    +0.000 A 
ATOM      6  C   UNL     1       1.478   8.407  19.350  0.00  0.00    +0.000 A 
ATOM      7  C   UNL     1       1.554   7.685  20.553  0.00  0.00    +0.000 A 
ATOM      8  C   UNL     1       1.280   8.343  21.764  0.00  0.00    +0.000 A 
ATOM      9  C   UNL     1       0.815   9.672  21.758  0.00  0.00    +0.000 A 
ATOM     10  C   UNL     1       0.707  10.354  20.547  0.00  0.00    +0.000 A 
ATOM     11  C   UNL     1       0.168  11.725  20.409  0.00  0.00    +0.000 A 
ATOM     12  O   UNL     1      -0.765  12.016  21.149  0.00  0.00    +0.000 OA
ATOM     13  H   UNL     1       0.422  10.508  17.659  0.00  0.00    +0.000 HD
ENDROOT
BRANCH   1  18
ATOM     14  C   UNL     1       1.756  16.095  20.021  0.00  0.00    +0.000 A 
ATOM     15  C   UNL     1       0.869  16.763  19.184  0.00  0.00    +0.000 A 
ATOM     16  C   UNL     1      -0.143  16.058  18.547  0.00  0.00    +0.000 A 
ATOM     17  C   UNL     1      -0.226  14.674  18.698  0.00  0.00    +0.000 A 
ATOM     18  C   UNL     1       0.733  13.948  19.432  0.00  0.00    +0.000 A 
ATOM     19  C   UNL     1       1.681  14.701  20.144  0.00  0.00    +0.000 A 
BRANCH  14  21
ATOM     20  C   UNL     1       2.814  16.758  22.032  0.00  0.00    +0.000 C 
ATOM     21  O   UNL     1       2.699  16.887  20.619  0.00  0.00    +0.000 OA
ENDBRANCH  14  21
ENDBRANCH   1  18
BRANCH   7  22
ATOM     22  C   UNL     1       1.890   6.246  20.401  0.00  0.00    +0.000 C 
ATOM     23  O   UNL     1       1.004   5.419  20.600  0.00  0.00    +0.000 OA
ATOM     24  N   UNL     1       3.171   5.859  20.056  0.00  0.00    +0.000 N 
ATOM     25  H   UNL     1       3.893   6.532  19.842  0.00  0.00    +0.000 HD
BRANCH  24  26
ATOM     26  C   UNL     1       3.496   4.438  20.000  0.00  0.00    +0.000 C 
BRANCH  26  27
ATOM     27  C   UNL     1       4.810   4.101  19.277  0.00  0.00    +0.000 C 
BRANCH  27  28
ATOM     28  C   UNL     1       5.720   5.324  19.093  0.00  0.00    +0.000 C 
BRANCH  28  29
ATOM     29  N   UNL     1       7.110   5.036  18.683  0.00  0.00    +0.000 NA
ATOM     30  C   UNL     1       7.908   6.292  18.731  0.00  0.00    +0.000 C 
ATOM     31  C   UNL     1       7.546   7.297  17.621  0.00  0.00    +0.000 C 
ATOM     32  O   UNL     1       7.699   6.709  16.323  0.00  0.00    +0.000 OA
ATOM     33  C   UNL     1       6.907   5.521  16.200  0.00  0.00    +0.000 C 
ATOM     34  C   UNL     1       7.232   4.502  17.309  0.00  0.00    +0.000 C 
ENDBRANCH  28  29
ENDBRANCH  27  28
ENDBRANCH  26  27
ENDBRANCH  24  26
ENDBRANCH   7  22
TORSDOF 7
ENDMDL
MODEL 8
REMARK VINA RESULT:      -7.6      2.751      9.715
REMARK  Name = 
REMARK  8 active torsions:
REMARK  status: ('A' for Active; 'I' for Inactive)
REMARK    1  A    between atoms: C_1  and  O_2
REMARK    2  A    between atoms: O_2  and  C_3
REMARK    3  A    between atoms: C_7  and  N_8
REMARK    4  A    between atoms: C_14  and  C_15
REMARK    5  A    between atoms: N_17  and  C_18
REMARK    6  A    between atoms: C_18  and  C_19
REMARK    7  A    between atoms: C_19  and  C_20
REMARK    8  A    between atoms: C_20  and  N_21
REMARK                            x       y       z     vdW  Elec       q    Type
REMARK                         _______ _______ _______ _____ _____    ______ ____
ROOT
ATOM      1  N   UNL     1       0.891  12.231  19.235  0.00  0.00    +0.000 N 
ATOM      2  C   UNL     1       1.874  11.776  18.345  0.00  0.00    +0.000 A 
ATOM      3  O   UNL     1       2.970  12.287  18.141  0.00  0.00    +0.000 OA
ATOM      4  N   UNL     1       1.631  10.512  17.821  0.00  0.00    +0.000 N 
ATOM      5  C   UNL     1       1.422   9.533  18.809  0.00  0.00    +0.000 A 
ATOM      6  C   UNL     1       1.885   8.245  18.616  0.00  0.00    +0.000 A 
ATOM      7  C   UNL     1       1.906   7.342  19.692  0.00  0.00    +0.000 A 
ATOM      8  C   UNL     1       1.486   7.779  20.960  0.00  0.00    +0.000 A 
ATOM      9  C   UNL     1       0.935   9.065  21.119  0.00  0.00    +0.000 A 
ATOM     10  C   UNL     1       0.886   9.928  20.025  0.00  0.00    +0.000 A 
ATOM     11  C   UNL     1       0.270  11.273  20.053  0.00  0.00    +0.000 A 
ATOM     12  O   UNL     1      -0.740  11.391  20.738  0.00  0.00    +0.000 OA
ATOM     13  H   UNL     1       0.839  10.535  17.184  0.00  0.00    +0.000 HD
ENDROOT
BRANCH   1  18
ATOM     14  C   UNL     1      -0.109  15.867  18.921  0.00  0.00    +0.000 A 
ATOM     15  C   UNL     1       0.213  16.338  20.190  0.00  0.00    +0.000 A 
ATOM     16  C   UNL     1       0.892  15.517  21.079  0.00  0.00    +0.000 A 
ATOM     17  C   UNL     1       1.191  14.203  20.720  0.00  0.00    +0.000 A 
ATOM     18  C   UNL     1       0.766  13.652  19.496  0.00  0.00    +0.000 A 
ATOM     19  C   UNL     1       0.172  14.538  18.581  0.00  0.00    +0.000 A 
BRANCH  14  21
ATOM     20  C   UNL     1      -0.739  18.120  18.554  0.00  0.00    +0.000 C 
ATOM     21  O   UNL     1      -0.755  16.765  18.115  0.00  0.00    +0.000 OA
ENDBRANCH  14  21
ENDBRANCH   1  18
BRANCH   7  22
ATOM     22  C   UNL     1       2.350   5.967  19.349  0.00  0.00    +0.000 C 
ATOM     23  O   UNL     1       1.926   5.462  18.313  0.00  0.00    +0.000 OA
ATOM     24  N   UNL     1       3.208   5.279  20.185  0.00  0.00    +0.000 N 
ATOM     25  H   UNL     1       3.601   5.703  21.013  0.00  0.00    +0.000 HD
BRANCH  24  26
ATOM     26  C   UNL     1       3.557   3.898  19.870  0.00  0.00    +0.000 C 
BRANCH  26  27
ATOM     27  C   UNL     1       4.834   3.727  19.031  0.00  0.00    +0.000 C 
BRANCH  27  28
ATOM     28  C   UNL     1       5.595   5.045  18.829  0.00  0.00    +0.000 C 
BRANCH  28  29
ATOM     29  N   UNL     1       5.220   5.827  17.633  0.00  0.00    +0.000 NA
ATOM     30  C   UNL     1       5.491   5.020  16.411  0.00  0.00    +0.000 C 
ATOM     31  C   UNL     1       6.992   4.843  16.108  0.00  0.00    +0.000 C 
ATOM     32  O   UNL     1       7.642   6.113  15.969  0.00  0.00    +0.000 OA
ATOM     33  C   UNL     1       7.460   6.915  17.143  0.00  0.00    +0.000 C 
ATOM     34  C   UNL     1       5.969   7.094  17.485  0.00  0.00    +0.000 C 
ENDBRANCH  28  29
ENDBRANCH  27  28
ENDBRANCH  26  27
ENDBRANCH  24  26
ENDBRANCH   7  22
TORSDOF 7
ENDMDL
MODEL 9
REMARK VINA RESULT:      -7.5      0.850      1.088
REMARK  Name = 
REMARK  8 active torsions:
REMARK  status: ('A' for Active; 'I' for Inactive)
REMARK    1  A    between atoms: C_1  and  O_2
REMARK    2  A    between atoms: O_2  and  C_3
REMARK    3  A    between atoms: C_7  and  N_8
REMARK    4  A    between atoms: C_14  and  C_15
REMARK    5  A    between atoms: N_17  and  C_18
REMARK    6  A    between atoms: C_18  and  C_19
REMARK    7  A    between atoms: C_19  and  C_20
REMARK    8  A    between atoms: C_20  and  N_21
REMARK                            x       y       z     vdW  Elec       q    Type
REMARK                         _______ _______ _______ _____ _____    ______ ____
ROOT
ATOM      1  N   UNL     1       5.569   4.939  15.566  0.00  0.00    +0.000 N 
ATOM      2  C   UNL     1       5.373   6.307  15.797  0.00  0.00    +0.000 A 
ATOM      3  O   UNL     1       5.101   7.160  14.959  0.00  0.00    +0.000 OA
ATOM      4  N   UNL     1       5.279   6.653  17.140  0.00  0.00    +0.000 N 
ATOM      5  C   UNL     1       4.293   5.928  17.832  0.00  0.00    +0.000 A 
ATOM      6  C   UNL     1       3.554   6.539  18.827  0.00  0.00    +0.000 A 
ATOM      7  C   UNL     1       2.409   5.904  19.337  0.00  0.00    +0.000 A 
ATOM      8  C   UNL     1       2.015   4.668  18.797  0.00  0.00    +0.000 A 
ATOM      9  C   UNL     1       2.827   4.018  17.848  0.00  0.00    +0.000 A 
ATOM     10  C   UNL     1       3.982   4.651  17.390  0.00  0.00    +0.000 A 
ATOM     11  C   UNL     1       4.947   4.040  16.448  0.00  0.00    +0.000 A 
ATOM     12  O   UNL     1       5.139   2.836  16.576  0.00  0.00    +0.000 OA
ATOM     13  H   UNL     1       6.178   6.542  17.602  0.00  0.00    +0.000 HD
ENDROOT
BRANCH   1  18
ATOM     14  C   UNL     1       5.957   3.239  12.207  0.00  0.00    +0.000 A 
ATOM     15  C   UNL     1       7.040   3.937  11.684  0.00  0.00    +0.000 A 
ATOM     16  C   UNL     1       7.730   4.840  12.480  0.00  0.00    +0.000 A 
ATOM     17  C   UNL     1       7.295   5.091  13.781  0.00  0.00    +0.000 A 
ATOM     18  C   UNL     1       6.126   4.501  14.301  0.00  0.00    +0.000 A 
ATOM     19  C   UNL     1       5.512   3.519  13.505  0.00  0.00    +0.000 A 
BRANCH  14  21
ATOM     20  C   UNL     1       6.034   1.111  11.173  0.00  0.00    +0.000 C 
ATOM     21  O   UNL     1       5.364   2.356  11.346  0.00  0.00    +0.000 OA
ENDBRANCH  14  21
ENDBRANCH   1  18
BRANCH   7  22
ATOM     22  C   UNL     1       1.740   6.618  20.455  0.00  0.00    +0.000 C 
ATOM     23  O   UNL     1       1.072   5.959  21.247  0.00  0.00    +0.000 OA
ATOM     24  N   UNL     1       1.864   7.988  20.585  0.00  0.00    +0.000 N 
ATOM     25  H   UNL     1       2.451   8.532  19.968  0.00  0.00    +0.000 HD
BRANCH  24  26
ATOM     26  C   UNL     1       1.127   8.675  21.639  0.00  0.00    +0.000 C 
BRANCH  26  27
ATOM     27  C   UNL     1      -0.312   9.073  21.272  0.00  0.00    +0.000 C 
BRANCH  27  28
ATOM     28  C   UNL     1      -0.371  10.150  20.179  0.00  0.00    +0.000 C 
BRANCH  28  29
ATOM     29  N   UNL     1       0.703  11.163  20.214  0.00  0.00    +0.000 NA
ATOM     30  C   UNL     1       0.345  12.229  21.189  0.00  0.00    +0.000 C 
ATOM     31  C   UNL     1      -0.808  13.135  20.717  0.00  0.00    +0.000 C 
ATOM     32  O   UNL     1      -0.497  13.752  19.461  0.00  0.00    +0.000 OA
ATOM     33  C   UNL     1      -0.195  12.767  18.465  0.00  0.00    +0.000 C 
ATOM     34  C   UNL     1       0.942  11.831  18.916  0.00  0.00    +0.000 C 
ENDBRANCH  28  29
ENDBRANCH  27  28
ENDBRANCH  26  27
ENDBRANCH  24  26
ENDBRANCH   7  22
TORSDOF 7
ENDMDL
