MODEL 1
REMARK VINA RESULT:      -7.7      0.000      0.000
REMARK  Name = 
REMARK  2 active torsions:
REMARK  status: ('A' for Active; 'I' for Inactive)
REMARK    1  A    between atoms: N_3  and  C_4
REMARK    2  A    between atoms: N_13  and  C_14
REMARK                            x       y       z     vdW  Elec       q    Type
REMARK                         _______ _______ _______ _____ _____    ______ ____
ROOT
ATOM      1  O   UNL     1       7.763   9.814  17.859  0.00  0.00    +0.000 OA
ATOM      2  C   UNL     1       8.500   9.234  18.645  0.00  0.00    +0.000 C 
ATOM      3  N   UNL     1       8.517   7.876  18.898  0.00  0.00    +0.000 N 
ATOM      4  N   UNL     1       9.432   9.891  19.405  0.00  0.00    +0.000 N 
ATOM      5  H   UNL     1       8.903   7.608  19.789  0.00  0.00    +0.000 HD
ATOM      6  H   UNL     1       9.949   9.368  20.093  0.00  0.00    +0.000 HD
ENDROOT
BRANCH   3   7
ATOM      7  C   UNL     1       7.868   6.896  18.179  0.00  0.00    +0.000 A 
ATOM      8  C   UNL     1       7.969   5.530  18.706  0.00  0.00    +0.000 A 
ATOM      9  C   UNL     1       7.368   4.520  18.051  0.00  0.00    +0.000 A 
ATOM     10  N   UNL     1       6.682   4.790  16.871  0.00  0.00    +0.000 N 
ATOM     11  C   UNL     1       6.018   3.941  16.026  0.00  0.00    +0.000 A 
ATOM     12  C   UNL     1       5.556   4.729  14.998  0.00  0.00    +0.000 A 
ATOM     13  N   UNL     1       5.908   6.042  15.188  0.00  0.00    +0.000 NA
ATOM     14  C   UNL     1       6.579   6.062  16.321  0.00  0.00    +0.000 A 
ATOM     15  C   UNL     1       7.194   7.130  17.031  0.00  0.00    +0.000 A 
ENDBRANCH   3   7
BRANCH   4  16
ATOM     16  C   UNL     1       9.484  11.352  19.492  0.00  0.00    +0.000 C 
ATOM     17  C   UNL     1      10.686  11.798  20.349  0.00  0.00    +0.000 C 
ATOM     18  C   UNL     1      11.857  11.625  19.410  0.00  0.00    +0.000 C 
ATOM     19  C   UNL     1      12.327  12.709  18.482  0.00  0.00    +0.000 C 
ATOM     20  C   UNL     1      11.318  11.705  18.004  0.00  0.00    +0.000 C 
ATOM     21  C   UNL     1       9.828  11.934  18.108  0.00  0.00    +0.000 C 
ENDBRANCH   4  16
TORSDOF 2
ENDMDL
MODEL 2
REMARK VINA RESULT:      -7.5      1.684      7.504
REMARK  Name = 
REMARK  2 active torsions:
REMARK  status: ('A' for Active; 'I' for Inactive)
REMARK    1  A    between atoms: N_3  and  C_4
REMARK    2  A    between atoms: N_13  and  C_14
REMARK                            x       y       z     vdW  Elec       q    Type
REMARK                         _______ _______ _______ _____ _____    ______ ____
ROOT
ATOM      1  O   UNL     1       8.441   7.227  18.859  0.00  0.00    +0.000 OA
ATOM      2  C   UNL     1       7.835   7.881  18.021  0.00  0.00    +0.000 C 
ATOM      3  N   UNL     1       7.969   9.236  17.790  0.00  0.00    +0.000 N 
ATOM      4  N   UNL     1       6.908   7.324  17.179  0.00  0.00    +0.000 N 
ATOM      5  H   UNL     1       7.182   9.677  17.343  0.00  0.00    +0.000 HD
ATOM      6  H   UNL     1       6.383   7.931  16.570  0.00  0.00    +0.000 HD
ENDROOT
BRANCH   3   7
ATOM      7  C   UNL     1       8.942  10.067  18.302  0.00  0.00    +0.000 A 
ATOM      8  C   UNL     1       8.990  10.187  19.763  0.00  0.00    +0.000 A 
ATOM      9  C   UNL     1       9.909  10.988  20.333  0.00  0.00    +0.000 A 
ATOM     10  N   UNL     1      10.778  11.708  19.520  0.00  0.00    +0.000 N 
ATOM     11  C   UNL     1      11.769  12.592  19.858  0.00  0.00    +0.000 A 
ATOM     12  C   UNL     1      12.290  13.035  18.666  0.00  0.00    +0.000 A 
ATOM     13  N   UNL     1      11.657  12.445  17.601  0.00  0.00    +0.000 NA
ATOM     14  C   UNL     1      10.756  11.645  18.132  0.00  0.00    +0.000 A 
ATOM     15  C   UNL     1       9.800  10.777  17.536  0.00  0.00    +0.000 A 
ENDBRANCH   3   7
BRANCH   4  16
ATOM     16  C   UNL     1       6.418   5.955  17.349  0.00  0.00    +0.000 C 
ATOM     17  C   UNL     1       5.067   5.773  16.625  0.00  0.00    +0.000 C 
ATOM     18  C   UNL     1       5.472   5.648  15.174  0.00  0.00    +0.000 C 
ATOM     19  C   UNL     1       5.808   4.333  14.530  0.00  0.00    +0.000 C 
ATOM     20  C   UNL     1       6.898   5.159  15.148  0.00  0.00    +0.000 C 
ATOM     21  C   UNL     1       7.337   4.985  16.584  0.00  0.00    +0.000 C 
ENDBRANCH   4  16
TORSDOF 2
ENDMDL
MODEL 3
REMARK VINA RESULT:      -7.3      1.248      1.944
REMARK  Name = 
REMARK  2 active torsions:
REMARK  status: ('A' for Active; 'I' for Inactive)
REMARK    1  A    between atoms: N_3  and  C_4
REMARK    2  A    between atoms: N_13  and  C_14
REMARK                            x       y       z     vdW  Elec       q    Type
REMARK                         _______ _______ _______ _____ _____    ______ ____
ROOT
ATOM      1  O   UNL     1       7.304   9.543  17.659  0.00  0.00    +0.000 OA
ATOM      2  C   UNL     1       8.254   9.026  18.232  0.00  0.00    +0.000 C 
ATOM      3  N   UNL     1       8.355   7.702  18.612  0.00  0.00    +0.000 N 
ATOM      4  N   UNL     1       9.376   9.730  18.584  0.00  0.00    +0.000 N 
ATOM      5  H   UNL     1       9.004   7.517  19.360  0.00  0.00    +0.000 HD
ATOM      6  H   UNL     1      10.086   9.266  19.127  0.00  0.00    +0.000 HD
ENDROOT
BRANCH   3   7
ATOM      7  C   UNL     1       7.516   6.672  18.245  0.00  0.00    +0.000 A 
ATOM      8  C   UNL     1       7.302   6.491  16.805  0.00  0.00    +0.000 A 
ATOM      9  C   UNL     1       6.488   5.511  16.374  0.00  0.00    +0.000 A 
ATOM     10  N   UNL     1       5.844   4.704  17.307  0.00  0.00    +0.000 N 
ATOM     11  C   UNL     1       4.964   3.672  17.118  0.00  0.00    +0.000 A 
ATOM     12  C   UNL     1       4.612   3.251  18.378  0.00  0.00    +0.000 A 
ATOM     13  N   UNL     1       5.256   3.987  19.341  0.00  0.00    +0.000 NA
ATOM     14  C   UNL     1       5.997   4.852  18.681  0.00  0.00    +0.000 A 
ATOM     15  C   UNL     1       6.879   5.873  19.130  0.00  0.00    +0.000 A 
ENDBRANCH   3   7
BRANCH   4  16
ATOM     16  C   UNL     1       9.446  11.190  18.491  0.00  0.00    +0.000 C 
ATOM     17  C   UNL     1       9.620  11.811  19.892  0.00  0.00    +0.000 C 
ATOM     18  C   UNL     1      11.083  11.572  20.191  0.00  0.00    +0.000 C 
ATOM     19  C   UNL     1      12.164  12.542  19.808  0.00  0.00    +0.000 C 
ATOM     20  C   UNL     1      11.792  11.431  18.869  0.00  0.00    +0.000 C 
ATOM     21  C   UNL     1      10.753  11.594  17.784  0.00  0.00    +0.000 C 
ENDBRANCH   4  16
TORSDOF 2
ENDMDL
MODEL 4
REMARK VINA RESULT:      -7.3      1.869      2.347
REMARK  Name = 
REMARK  2 active torsions:
REMARK  status: ('A' for Active; 'I' for Inactive)
REMARK    1  A    between atoms: N_3  and  C_4
REMARK    2  A    between atoms: N_13  and  C_14
REMARK                            x       y       z     vdW  Elec       q    Type
REMARK                         _______ _______ _______ _____ _____    ______ ____
ROOT
ATOM      1  O   UNL     1       8.671   7.733  18.963  0.00  0.00    +0.000 OA
ATOM      2  C   UNL     1       8.178   8.478  18.127  0.00  0.00    +0.000 C 
ATOM      3  N   UNL     1       7.207   8.139  17.204  0.00  0.00    +0.000 N 
ATOM      4  N   UNL     1       8.549   9.791  17.997  0.00  0.00    +0.000 N 
ATOM      5  H   UNL     1       7.168   8.725  16.385  0.00  0.00    +0.000 HD
ATOM      6  H   UNL     1       8.167  10.327  17.235  0.00  0.00    +0.000 HD
ENDROOT
BRANCH   3   7
ATOM      7  C   UNL     1       6.465   6.979  17.177  0.00  0.00    +0.000 A 
ATOM      8  C   UNL     1       7.153   5.779  16.688  0.00  0.00    +0.000 A 
ATOM      9  C   UNL     1       6.486   4.612  16.626  0.00  0.00    +0.000 A 
ATOM     10  N   UNL     1       5.148   4.574  17.002  0.00  0.00    +0.000 N 
ATOM     11  C   UNL     1       4.265   3.527  17.005  0.00  0.00    +0.000 A 
ATOM     12  C   UNL     1       3.070   4.053  17.437  0.00  0.00    +0.000 A 
ATOM     13  N   UNL     1       3.191   5.392  17.709  0.00  0.00    +0.000 NA
ATOM     14  C   UNL     1       4.447   5.688  17.448  0.00  0.00    +0.000 A 
ATOM     15  C   UNL     1       5.164   6.914  17.537  0.00  0.00    +0.000 A 
ENDBRANCH   3   7
BRANCH   4  16
ATOM     16  C   UNL     1       9.702  10.353  18.702  0.00  0.00    +0.000 C 
ATOM     17  C   UNL     1      10.503  11.284  17.769  0.00  0.00    +0.000 C 
ATOM     18  C   UNL     1       9.668  12.543  17.744  0.00  0.00    +0.000 C 
ATOM     19  C   UNL     1       9.842  13.658  18.735  0.00  0.00    +0.000 C 
ATOM     20  C   UNL     1       8.853  12.563  19.012  0.00  0.00    +0.000 C 
ATOM     21  C   UNL     1       9.211  11.321  19.794  0.00  0.00    +0.000 C 
ENDBRANCH   4  16
TORSDOF 2
ENDMDL
MODEL 5
REMARK VINA RESULT:      -7.2      7.060      9.860
REMARK  Name = 
REMARK  2 active torsions:
REMARK  status: ('A' for Active; 'I' for Inactive)
REMARK    1  A    between atoms: N_3  and  C_4
REMARK    2  A    between atoms: N_13  and  C_14
REMARK                            x       y       z     vdW  Elec       q    Type
REMARK                         _______ _______ _______ _____ _____    ______ ____
ROOT
ATOM      1  O   UNL     1       2.523   7.497  18.398  0.00  0.00    +0.000 OA
ATOM      2  C   UNL     1       2.540   6.884  19.458  0.00  0.00    +0.000 C 
ATOM      3  N   UNL     1       2.050   7.334  20.668  0.00  0.00    +0.000 N 
ATOM      4  N   UNL     1       3.076   5.628  19.575  0.00  0.00    +0.000 N 
ATOM      5  H   UNL     1       2.445   6.893  21.484  0.00  0.00    +0.000 HD
ATOM      6  H   UNL     1       3.136   5.213  20.491  0.00  0.00    +0.000 HD
ENDROOT
BRANCH   3   7
ATOM      7  C   UNL     1       1.271   8.450  20.879  0.00  0.00    +0.000 A 
ATOM      8  C   UNL     1       0.963   9.259  19.694  0.00  0.00    +0.000 A 
ATOM      9  C   UNL     1       0.214  10.370  19.826  0.00  0.00    +0.000 A 
ATOM     10  N   UNL     1      -0.231  10.742  21.090  0.00  0.00    +0.000 N 
ATOM     11  C   UNL     1      -0.976  11.824  21.476  0.00  0.00    +0.000 A 
ATOM     12  C   UNL     1      -1.096  11.721  22.842  0.00  0.00    +0.000 A 
ATOM     13  N   UNL     1      -0.454  10.602  23.311  0.00  0.00    +0.000 NA
ATOM     14  C   UNL     1       0.055  10.021  22.244  0.00  0.00    +0.000 A 
ATOM     15  C   UNL     1       0.825   8.835  22.095  0.00  0.00    +0.000 A 
ENDBRANCH   3   7
BRANCH   4  16
ATOM     16  C   UNL     1       3.851   5.003  18.501  0.00  0.00    +0.000 C 
ATOM     17  C   UNL     1       4.738   3.874  19.065  0.00  0.00    +0.000 C 
ATOM     18  C   UNL     1       3.758   2.742  19.272  0.00  0.00    +0.000 C 
ATOM     19  C   UNL     1       3.437   1.734  18.205  0.00  0.00    +0.000 C 
ATOM     20  C   UNL     1       2.602   2.974  18.333  0.00  0.00    +0.000 C 
ATOM     21  C   UNL     1       2.898   4.240  17.562  0.00  0.00    +0.000 C 
ENDBRANCH   4  16
TORSDOF 2
ENDMDL
MODEL 6
REMARK VINA RESULT:      -7.2      5.700      8.264
REMARK  Name = 
REMARK  2 active torsions:
REMARK  status: ('A' for Active; 'I' for Inactive)
REMARK    1  A    between atoms: N_3  and  C_4
REMARK    2  A    between atoms: N_13  and  C_14
REMARK                            x       y       z     vdW  Elec       q    Type
REMARK                         _______ _______ _______ _____ _____    ______ ____
ROOT
ATOM      1  O   UNL     1       3.398   5.542  17.332  0.00  0.00    +0.000 OA
ATOM      2  C   UNL     1       3.779   4.445  17.717  0.00  0.00    +0.000 C 
ATOM      3  N   UNL     1       4.702   3.634  17.084  0.00  0.00    +0.000 N 
ATOM      4  N   UNL     1       3.313   3.863  18.866  0.00  0.00    +0.000 N 
ATOM      5  H   UNL     1       4.643   2.655  17.314  0.00  0.00    +0.000 HD
ATOM      6  H   UNL     1       3.603   2.923  19.084  0.00  0.00    +0.000 HD
ENDROOT
BRANCH   3   7
ATOM      7  C   UNL     1       5.516   3.979  16.029  0.00  0.00    +0.000 A 
ATOM      8  C   UNL     1       6.575   4.952  16.318  0.00  0.00    +0.000 A 
ATOM      9  C   UNL     1       7.404   5.343  15.332  0.00  0.00    +0.000 A 
ATOM     10  N   UNL     1       7.220   4.835  14.050  0.00  0.00    +0.000 N 
ATOM     11  C   UNL     1       7.909   5.094  12.895  0.00  0.00    +0.000 A 
ATOM     12  C   UNL     1       7.288   4.350  11.920  0.00  0.00    +0.000 A 
ATOM     13  N   UNL     1       6.240   3.632  12.440  0.00  0.00    +0.000 NA
ATOM     14  C   UNL     1       6.217   3.930  13.723  0.00  0.00    +0.000 A 
ATOM     15  C   UNL     1       5.361   3.500  14.774  0.00  0.00    +0.000 A 
ENDBRANCH   3   7
BRANCH   4  16
ATOM     16  C   UNL     1       2.178   4.406  19.616  0.00  0.00    +0.000 C 
ATOM     17  C   UNL     1       1.012   3.396  19.634  0.00  0.00    +0.000 C 
ATOM     18  C   UNL     1       1.453   2.387  20.669  0.00  0.00    +0.000 C 
ATOM     19  C   UNL     1       1.139   2.526  22.132  0.00  0.00    +0.000 C 
ATOM     20  C   UNL     1       2.423   3.083  21.589  0.00  0.00    +0.000 C 
ATOM     21  C   UNL     1       2.552   4.509  21.106  0.00  0.00    +0.000 C 
ENDBRANCH   4  16
TORSDOF 2
ENDMDL
MODEL 7
REMARK VINA RESULT:      -7.2      5.775      7.407
REMARK  Name = 
REMARK  2 active torsions:
REMARK  status: ('A' for Active; 'I' for Inactive)
REMARK    1  A    between atoms: N_3  and  C_4
REMARK    2  A    between atoms: N_13  and  C_14
REMARK                            x       y       z     vdW  Elec       q    Type
REMARK                         _______ _______ _______ _____ _____    ______ ____
ROOT
ATOM      1  O   UNL     1       1.867   8.287  17.767  0.00  0.00    +0.000 OA
ATOM      2  C   UNL     1       2.158   7.806  18.854  0.00  0.00    +0.000 C 
ATOM      3  N   UNL     1       2.924   6.676  19.067  0.00  0.00    +0.000 N 
ATOM      4  N   UNL     1       1.736   8.350  20.039  0.00  0.00    +0.000 N 
ATOM      5  H   UNL     1       2.779   6.218  19.952  0.00  0.00    +0.000 HD
ATOM      6  H   UNL     1       1.939   7.859  20.895  0.00  0.00    +0.000 HD
ENDROOT
BRANCH   3   7
ATOM      7  C   UNL     1       3.674   5.999  18.130  0.00  0.00    +0.000 A 
ATOM      8  C   UNL     1       3.244   4.631  17.821  0.00  0.00    +0.000 A 
ATOM      9  C   UNL     1       3.935   3.907  16.921  0.00  0.00    +0.000 A 
ATOM     10  N   UNL     1       5.060   4.464  16.322  0.00  0.00    +0.000 N 
ATOM     11  C   UNL     1       5.926   3.925  15.408  0.00  0.00    +0.000 A 
ATOM     12  C   UNL     1       6.876   4.894  15.184  0.00  0.00    +0.000 A 
ATOM     13  N   UNL     1       6.617   6.018  15.927  0.00  0.00    +0.000 NA
ATOM     14  C   UNL     1       5.519   5.745  16.600  0.00  0.00    +0.000 A 
ATOM     15  C   UNL     1       4.770   6.516  17.532  0.00  0.00    +0.000 A 
ENDBRANCH   3   7
BRANCH   4  16
ATOM     16  C   UNL     1       0.740   9.422  20.098  0.00  0.00    +0.000 C 
ATOM     17  C   UNL     1      -0.597   8.884  20.650  0.00  0.00    +0.000 C 
ATOM     18  C   UNL     1      -0.338   8.787  22.136  0.00  0.00    +0.000 C 
ATOM     19  C   UNL     1      -0.592   9.923  23.085  0.00  0.00    +0.000 C 
ATOM     20  C   UNL     1       0.764   9.762  22.462  0.00  0.00    +0.000 C 
ATOM     21  C   UNL     1       1.155  10.445  21.172  0.00  0.00    +0.000 C 
ENDBRANCH   4  16
TORSDOF 2
ENDMDL
MODEL 8
REMARK VINA RESULT:      -7.2      7.217      9.751
REMARK  Name = 
REMARK  2 active torsions:
REMARK  status: ('A' for Active; 'I' for Inactive)
REMARK    1  A    between atoms: N_3  and  C_4
REMARK    2  A    between atoms: N_13  and  C_14
REMARK                            x       y       z     vdW  Elec       q    Type
REMARK                         _______ _______ _______ _____ _____    ______ ____
ROOT
ATOM      1  O   UNL     1       1.150   5.786  20.624  0.00  0.00    +0.000 OA
ATOM      2  C   UNL     1       2.115   6.426  20.229  0.00  0.00    +0.000 C 
ATOM      3  N   UNL     1       2.179   7.798  20.081  0.00  0.00    +0.000 N 
ATOM      4  N   UNL     1       3.296   5.832  19.867  0.00  0.00    +0.000 N 
ATOM      5  H   UNL     1       2.876   8.129  19.433  0.00  0.00    +0.000 HD
ATOM      6  H   UNL     1       4.023   6.406  19.471  0.00  0.00    +0.000 HD
ENDROOT
BRANCH   3   7
ATOM      7  C   UNL     1       1.262   8.719  20.536  0.00  0.00    +0.000 A 
ATOM      8  C   UNL     1       0.600   9.536  19.512  0.00  0.00    +0.000 A 
ATOM      9  C   UNL     1      -0.301  10.463  19.885  0.00  0.00    +0.000 A 
ATOM     10  N   UNL     1      -0.566  10.646  21.238  0.00  0.00    +0.000 N 
ATOM     11  C   UNL     1      -1.412  11.529  21.856  0.00  0.00    +0.000 A 
ATOM     12  C   UNL     1      -1.259  11.304  23.204  0.00  0.00    +0.000 A 
ATOM     13  N   UNL     1      -0.349  10.303  23.437  0.00  0.00    +0.000 NA
ATOM     14  C   UNL     1       0.053   9.914  22.244  0.00  0.00    +0.000 A 
ATOM     15  C   UNL     1       0.985   8.917  21.844  0.00  0.00    +0.000 A 
ENDBRANCH   3   7
BRANCH   4  16
ATOM     16  C   UNL     1       3.433   4.381  19.726  0.00  0.00    +0.000 C 
ATOM     17  C   UNL     1       2.622   3.879  18.513  0.00  0.00    +0.000 C 
ATOM     18  C   UNL     1       3.491   4.264  17.338  0.00  0.00    +0.000 C 
ATOM     19  C   UNL     1       4.561   3.366  16.785  0.00  0.00    +0.000 C 
ATOM     20  C   UNL     1       4.907   4.371  17.846  0.00  0.00    +0.000 C 
ATOM     21  C   UNL     1       4.880   4.041  19.320  0.00  0.00    +0.000 C 
ENDBRANCH   4  16
TORSDOF 2
ENDMDL
MODEL 9
REMARK VINA RESULT:      -7.2      5.779      7.263
REMARK  Name = 
REMARK  2 active torsions:
REMARK  status: ('A' for Active; 'I' for Inactive)
REMARK    1  A    between atoms: N_3  and  C_4
REMARK    2  A    between atoms: N_13  and  C_14
REMARK                            x       y       z     vdW  Elec       q    Type
REMARK                         _______ _______ _______ _____ _____    ______ ____
ROOT
ATOM      1  O   UNL     1       2.153   8.990  17.118  0.00  0.00    +0.000 OA
ATOM      2  C   UNL     1       2.043   8.498  18.233  0.00  0.00    +0.000 C 
ATOM      3  N   UNL     1       2.514   7.262  18.630  0.00  0.00    +0.000 N 
ATOM      4  N   UNL     1       1.406   9.140  19.263  0.00  0.00    +0.000 N 
ATOM      5  H   UNL     1       2.052   6.861  19.430  0.00  0.00    +0.000 HD
ATOM      6  H   UNL     1       1.275   8.648  20.131  0.00  0.00    +0.000 HD
ENDROOT
BRANCH   3   7
ATOM      7  C   UNL     1       3.369   6.441  17.927  0.00  0.00    +0.000 A 
ATOM      8  C   UNL     1       2.981   5.029  17.834  0.00  0.00    +0.000 A 
ATOM      9  C   UNL     1       3.772   4.167  17.170  0.00  0.00    +0.000 A 
ATOM     10  N   UNL     1       4.957   4.630  16.607  0.00  0.00    +0.000 N 
ATOM     11  C   UNL     1       5.925   3.951  15.914  0.00  0.00    +0.000 A 
ATOM     12  C   UNL     1       6.891   4.884  15.620  0.00  0.00    +0.000 A 
ATOM     13  N   UNL     1       6.546   6.121  16.105  0.00  0.00    +0.000 NA
ATOM     14  C   UNL     1       5.378   5.952  16.690  0.00  0.00    +0.000 A 
ATOM     15  C   UNL     1       4.525   6.864  17.370  0.00  0.00    +0.000 A 
ENDBRANCH   3   7
BRANCH   4  16
ATOM     16  C   UNL     1       0.631  10.367  19.063  0.00  0.00    +0.000 C 
ATOM     17  C   UNL     1      -0.778  10.220  19.673  0.00  0.00    +0.000 C 
ATOM     18  C   UNL     1      -0.528  10.397  21.153  0.00  0.00    +0.000 C 
ATOM     19  C   UNL     1      -0.553  11.737  21.832  0.00  0.00    +0.000 C 
ATOM     20  C   UNL     1       0.742  11.195  21.300  0.00  0.00    +0.000 C 
ATOM     21  C   UNL     1       1.242  11.501  19.907  0.00  0.00    +0.000 C 
ENDBRANCH   4  16
TORSDOF 2
ENDMDL
