MODEL 1
REMARK VINA RESULT:      -7.9      0.000      0.000
REMARK  Name = 
REMARK  4 active torsions:
REMARK  status: ('A' for Active; 'I' for Inactive)
REMARK    1  A    between atoms: C_1  and  C_2
REMARK    2  A    between atoms: N_8  and  C_9
REMARK    3  A    between atoms: C_13  and  C_14
REMARK    4  A    between atoms: N_19  and  C_20
REMARK                            x       y       z     vdW  Elec       q    Type
REMARK                         _______ _______ _______ _____ _____    ______ ____
ROOT
ATOM      1  C   UNL     1      -0.024  13.274  19.672  0.00  0.00    +0.000 A 
ATOM      2  C   UNL     1      -1.247  13.045  18.990  0.00  0.00    +0.000 A 
ATOM      3  C   UNL     1      -1.761  11.758  18.797  0.00  0.00    +0.000 A 
ATOM      4  C   UNL     1      -1.083  10.661  19.281  0.00  0.00    +0.000 A 
ATOM      5  C   UNL     1       0.158  10.778  19.944  0.00  0.00    +0.000 A 
ATOM      6  C   UNL     1       0.713  12.099  20.063  0.00  0.00    +0.000 A 
ENDROOT
BRANCH   1  14
ATOM      7  C   UNL     1       2.349  15.418  21.214  0.00  0.00    +0.000 C 
ATOM      8  C   UNL     1       0.864  15.092  21.427  0.00  0.00    +0.000 C 
ATOM      9  C   UNL     1       0.273  16.385  22.075  0.00  0.00    +0.000 C 
ATOM     10  C   UNL     1      -1.186  16.281  21.731  0.00  0.00    +0.000 C 
ATOM     11  N   UNL     1      -1.215  16.493  20.302  0.00  0.00    +0.000 N 
ATOM     12  C   UNL     1      -0.435  15.735  19.453  0.00  0.00    +0.000 C 
ATOM     13  O   UNL     1      -0.450  15.969  18.250  0.00  0.00    +0.000 OA
ATOM     14  N   UNL     1       0.258  14.691  20.104  0.00  0.00    +0.000 N 
ATOM     15  C   UNL     1      -1.683  14.903  22.121  0.00  0.00    +0.000 A 
ATOM     16  C   UNL     1      -2.956  14.469  21.748  0.00  0.00    +0.000 A 
ATOM     17  C   UNL     1      -3.285  13.119  21.879  0.00  0.00    +0.000 A 
ATOM     18  C   UNL     1      -2.417  12.229  22.519  0.00  0.00    +0.000 A 
ATOM     19  C   UNL     1      -1.166  12.655  22.953  0.00  0.00    +0.000 A 
ATOM     20  C   UNL     1      -0.768  13.943  22.620  0.00  0.00    +0.000 A 
ATOM     21  O   UNL     1       0.614  14.110  22.459  0.00  0.00    +0.000 OA
ATOM     22  H   UNL     1      -1.698  17.284  19.893  0.00  0.00    +0.000 HD
ENDBRANCH   1  14
BRANCH   5  23
ATOM     23  C   UNL     1       0.520   9.485  20.696  0.00  0.00    +0.000 C 
ATOM     24  O   UNL     1      -0.144   9.306  21.726  0.00  0.00    +0.000 OA
ATOM     25  N   UNL     1       1.455   8.507  20.359  0.00  0.00    +0.000 N 
ATOM     26  C   UNL     1       1.644   7.357  21.299  0.00  0.00    +0.000 C 
ATOM     27  C   UNL     1       1.482   5.978  20.614  0.00  0.00    +0.000 C 
ATOM     28  N   UNL     1       2.378   5.864  19.445  0.00  0.00    +0.000 N 
ATOM     29  C   UNL     1       2.249   7.011  18.496  0.00  0.00    +0.000 C 
ATOM     30  C   UNL     1       2.343   8.401  19.205  0.00  0.00    +0.000 C 
BRANCH  28  31
ATOM     31  C   UNL     1       2.494   4.598  18.817  0.00  0.00    +0.000 A 
ATOM     32  C   UNL     1       1.487   3.617  18.849  0.00  0.00    +0.000 A 
ATOM     33  C   UNL     1       1.634   2.370  18.215  0.00  0.00    +0.000 A 
ATOM     34  C   UNL     1       2.810   2.057  17.536  0.00  0.00    +0.000 A 
ATOM     35  C   UNL     1       3.836   2.995  17.496  0.00  0.00    +0.000 A 
ATOM     36  C   UNL     1       3.671   4.237  18.121  0.00  0.00    +0.000 A 
ATOM     37  F   UNL     1       4.701   5.097  18.064  0.00  0.00    +0.000 F 
ENDBRANCH  28  31
ENDBRANCH   5  23
TORSDOF 3
ENDMDL
MODEL 2
REMARK VINA RESULT:      -7.7      3.972     10.334
REMARK  Name = 
REMARK  4 active torsions:
REMARK  status: ('A' for Active; 'I' for Inactive)
REMARK    1  A    between atoms: C_1  and  C_2
REMARK    2  A    between atoms: N_8  and  C_9
REMARK    3  A    between atoms: C_13  and  C_14
REMARK    4  A    between atoms: N_19  and  C_20
REMARK                            x       y       z     vdW  Elec       q    Type
REMARK                         _______ _______ _______ _____ _____    ______ ____
ROOT
ATOM      1  C   UNL     1       2.385   5.529  19.297  0.00  0.00    +0.000 A 
ATOM      2  C   UNL     1       2.190   5.663  20.696  0.00  0.00    +0.000 A 
ATOM      3  C   UNL     1       1.925   6.899  21.294  0.00  0.00    +0.000 A 
ATOM      4  C   UNL     1       1.836   8.038  20.524  0.00  0.00    +0.000 A 
ATOM      5  C   UNL     1       2.047   8.018  19.128  0.00  0.00    +0.000 A 
ATOM      6  C   UNL     1       2.399   6.755  18.539  0.00  0.00    +0.000 A 
ENDROOT
BRANCH   1  14
ATOM      7  C   UNL     1       2.342   2.073  20.113  0.00  0.00    +0.000 C 
ATOM      8  C   UNL     1       3.187   2.975  19.200  0.00  0.00    +0.000 C 
ATOM      9  C   UNL     1       3.697   2.018  18.076  0.00  0.00    +0.000 C 
ATOM     10  C   UNL     1       3.984   2.968  16.948  0.00  0.00    +0.000 C 
ATOM     11  N   UNL     1       2.672   3.413  16.537  0.00  0.00    +0.000 N 
ATOM     12  C   UNL     1       1.786   3.953  17.446  0.00  0.00    +0.000 C 
ATOM     13  O   UNL     1       0.665   4.281  17.074  0.00  0.00    +0.000 OA
ATOM     14  N   UNL     1       2.335   4.131  18.734  0.00  0.00    +0.000 N 
ATOM     15  C   UNL     1       4.842   4.103  17.471  0.00  0.00    +0.000 A 
ATOM     16  C   UNL     1       5.106   5.223  16.682  0.00  0.00    +0.000 A 
ATOM     17  C   UNL     1       5.661   6.360  17.271  0.00  0.00    +0.000 A 
ATOM     18  C   UNL     1       6.098   6.339  18.599  0.00  0.00    +0.000 A 
ATOM     19  C   UNL     1       5.899   5.210  19.387  0.00  0.00    +0.000 A 
ATOM     20  C   UNL     1       5.151   4.169  18.853  0.00  0.00    +0.000 A 
ATOM     21  O   UNL     1       4.430   3.419  19.791  0.00  0.00    +0.000 OA
ATOM     22  H   UNL     1       2.314   3.222  15.609  0.00  0.00    +0.000 HD
ENDBRANCH   1  14
BRANCH   5  23
ATOM     23  C   UNL     1       1.539   9.309  18.463  0.00  0.00    +0.000 C 
ATOM     24  O   UNL     1       2.092   9.564  17.384  0.00  0.00    +0.000 OA
ATOM     25  N   UNL     1       0.544  10.185  18.896  0.00  0.00    +0.000 N 
ATOM     26  C   UNL     1       0.271  11.406  18.073  0.00  0.00    +0.000 C 
ATOM     27  C   UNL     1      -1.217  11.547  17.669  0.00  0.00    +0.000 C 
ATOM     28  N   UNL     1      -2.091  11.500  18.859  0.00  0.00    +0.000 N 
ATOM     29  C   UNL     1      -1.828  10.315  19.730  0.00  0.00    +0.000 C 
ATOM     30  C   UNL     1      -0.313  10.138  20.076  0.00  0.00    +0.000 C 
BRANCH  28  31
ATOM     31  C   UNL     1      -3.466  11.804  18.688  0.00  0.00    +0.000 A 
ATOM     32  C   UNL     1      -4.187  11.512  17.516  0.00  0.00    +0.000 A 
ATOM     33  C   UNL     1      -5.551  11.827  17.378  0.00  0.00    +0.000 A 
ATOM     34  C   UNL     1      -6.237  12.463  18.411  0.00  0.00    +0.000 A 
ATOM     35  C   UNL     1      -5.554  12.782  19.579  0.00  0.00    +0.000 A 
ATOM     36  C   UNL     1      -4.199  12.452  19.708  0.00  0.00    +0.000 A 
ATOM     37  F   UNL     1      -3.586  12.799  20.851  0.00  0.00    +0.000 F 
ENDBRANCH  28  31
ENDBRANCH   5  23
TORSDOF 3
ENDMDL
MODEL 3
REMARK VINA RESULT:      -7.7      3.394     10.459
REMARK  Name = 
REMARK  4 active torsions:
REMARK  status: ('A' for Active; 'I' for Inactive)
REMARK    1  A    between atoms: C_1  and  C_2
REMARK    2  A    between atoms: N_8  and  C_9
REMARK    3  A    between atoms: C_13  and  C_14
REMARK    4  A    between atoms: N_19  and  C_20
REMARK                            x       y       z     vdW  Elec       q    Type
REMARK                         _______ _______ _______ _____ _____    ______ ____
ROOT
ATOM      1  C   UNL     1       2.367   5.493  19.316  0.00  0.00    +0.000 A 
ATOM      2  C   UNL     1       2.148   5.594  20.713  0.00  0.00    +0.000 A 
ATOM      3  C   UNL     1       1.884   6.817  21.338  0.00  0.00    +0.000 A 
ATOM      4  C   UNL     1       1.819   7.976  20.596  0.00  0.00    +0.000 A 
ATOM      5  C   UNL     1       2.053   7.989  19.204  0.00  0.00    +0.000 A 
ATOM      6  C   UNL     1       2.404   6.738  18.589  0.00  0.00    +0.000 A 
ENDROOT
BRANCH   1  14
ATOM      7  C   UNL     1       2.331   2.017  20.041  0.00  0.00    +0.000 C 
ATOM      8  C   UNL     1       3.169   2.943  19.147  0.00  0.00    +0.000 C 
ATOM      9  C   UNL     1       3.673   2.017  17.995  0.00  0.00    +0.000 C 
ATOM     10  C   UNL     1       3.952   2.996  16.890  0.00  0.00    +0.000 C 
ATOM     11  N   UNL     1       2.637   3.451  16.499  0.00  0.00    +0.000 N 
ATOM     12  C   UNL     1       1.756   3.965  17.428  0.00  0.00    +0.000 C 
ATOM     13  O   UNL     1       0.632   4.302  17.072  0.00  0.00    +0.000 OA
ATOM     14  N   UNL     1       2.313   4.110  18.717  0.00  0.00    +0.000 N 
ATOM     15  C   UNL     1       4.812   4.117  17.437  0.00  0.00    +0.000 A 
ATOM     16  C   UNL     1       5.070   5.258  16.676  0.00  0.00    +0.000 A 
ATOM     17  C   UNL     1       5.628   6.380  17.289  0.00  0.00    +0.000 A 
ATOM     18  C   UNL     1       6.074   6.325  18.614  0.00  0.00    +0.000 A 
ATOM     19  C   UNL     1       5.881   5.176  19.373  0.00  0.00    +0.000 A 
ATOM     20  C   UNL     1       5.130   4.148  18.818  0.00  0.00    +0.000 A 
ATOM     21  O   UNL     1       4.416   3.373  19.741  0.00  0.00    +0.000 OA
ATOM     22  H   UNL     1       2.272   3.283  15.569  0.00  0.00    +0.000 HD
ENDBRANCH   1  14
BRANCH   5  23
ATOM     23  C   UNL     1       1.568   9.301  18.562  0.00  0.00    +0.000 C 
ATOM     24  O   UNL     1       1.697   9.330  17.330  0.00  0.00    +0.000 OA
ATOM     25  N   UNL     1       0.993  10.415  19.173  0.00  0.00    +0.000 N 
ATOM     26  C   UNL     1       0.647  11.592  18.314  0.00  0.00    +0.000 C 
ATOM     27  C   UNL     1      -0.829  12.034  18.454  0.00  0.00    +0.000 C 
ATOM     28  N   UNL     1      -1.168  12.290  19.870  0.00  0.00    +0.000 N 
ATOM     29  C   UNL     1      -0.806  11.154  20.771  0.00  0.00    +0.000 C 
ATOM     30  C   UNL     1       0.665  10.665  20.573  0.00  0.00    +0.000 C 
BRANCH  28  31
ATOM     31  C   UNL     1      -2.423  12.885  20.157  0.00  0.00    +0.000 A 
ATOM     32  C   UNL     1      -3.650  12.373  19.698  0.00  0.00    +0.000 A 
ATOM     33  C   UNL     1      -4.879  12.988  20.000  0.00  0.00    +0.000 A 
ATOM     34  C   UNL     1      -4.917  14.152  20.765  0.00  0.00    +0.000 A 
ATOM     35  C   UNL     1      -3.723  14.697  21.224  0.00  0.00    +0.000 A 
ATOM     36  C   UNL     1      -2.508  14.068  20.926  0.00  0.00    +0.000 A 
ATOM     37  F   UNL     1      -1.385  14.648  21.381  0.00  0.00    +0.000 F 
ENDBRANCH  28  31
ENDBRANCH   5  23
TORSDOF 3
ENDMDL
MODEL 4
REMARK VINA RESULT:      -7.7      3.273     10.415
REMARK  Name = 
REMARK  4 active torsions:
REMARK  status: ('A' for Active; 'I' for Inactive)
REMARK    1  A    between atoms: C_1  and  C_2
REMARK    2  A    between atoms: N_8  and  C_9
REMARK    3  A    between atoms: C_13  and  C_14
REMARK    4  A    between atoms: N_19  and  C_20
REMARK                            x       y       z     vdW  Elec       q    Type
REMARK                         _______ _______ _______ _____ _____    ______ ____
ROOT
ATOM      1  C   UNL     1       2.362   5.486  19.326  0.00  0.00    +0.000 A 
ATOM      2  C   UNL     1       2.125   5.583  20.721  0.00  0.00    +0.000 A 
ATOM      3  C   UNL     1       1.861   6.805  21.347  0.00  0.00    +0.000 A 
ATOM      4  C   UNL     1       1.814   7.967  20.608  0.00  0.00    +0.000 A 
ATOM      5  C   UNL     1       2.069   7.984  19.220  0.00  0.00    +0.000 A 
ATOM      6  C   UNL     1       2.419   6.733  18.605  0.00  0.00    +0.000 A 
ENDROOT
BRANCH   1  14
ATOM      7  C   UNL     1       2.315   2.007  20.037  0.00  0.00    +0.000 C 
ATOM      8  C   UNL     1       3.159   2.935  19.150  0.00  0.00    +0.000 C 
ATOM      9  C   UNL     1       3.664   2.011  17.995  0.00  0.00    +0.000 C 
ATOM     10  C   UNL     1       3.949   2.994  16.896  0.00  0.00    +0.000 C 
ATOM     11  N   UNL     1       2.637   3.454  16.502  0.00  0.00    +0.000 N 
ATOM     12  C   UNL     1       1.754   3.967  17.430  0.00  0.00    +0.000 C 
ATOM     13  O   UNL     1       0.632   4.309  17.071  0.00  0.00    +0.000 OA
ATOM     14  N   UNL     1       2.307   4.105  18.722  0.00  0.00    +0.000 N 
ATOM     15  C   UNL     1       4.811   4.111  17.450  0.00  0.00    +0.000 A 
ATOM     16  C   UNL     1       5.074   5.255  16.695  0.00  0.00    +0.000 A 
ATOM     17  C   UNL     1       5.633   6.372  17.315  0.00  0.00    +0.000 A 
ATOM     18  C   UNL     1       6.074   6.310  18.641  0.00  0.00    +0.000 A 
ATOM     19  C   UNL     1       5.875   5.159  19.395  0.00  0.00    +0.000 A 
ATOM     20  C   UNL     1       5.124   4.135  18.832  0.00  0.00    +0.000 A 
ATOM     21  O   UNL     1       4.405   3.358  19.750  0.00  0.00    +0.000 OA
ATOM     22  H   UNL     1       2.275   3.292  15.570  0.00  0.00    +0.000 HD
ENDBRANCH   1  14
BRANCH   5  23
ATOM     23  C   UNL     1       1.602   9.302  18.576  0.00  0.00    +0.000 C 
ATOM     24  O   UNL     1       1.766   9.343  17.349  0.00  0.00    +0.000 OA
ATOM     25  N   UNL     1       1.009  10.410  19.181  0.00  0.00    +0.000 N 
ATOM     26  C   UNL     1       0.688  11.595  18.323  0.00  0.00    +0.000 C 
ATOM     27  C   UNL     1      -0.792  12.036  18.425  0.00  0.00    +0.000 C 
ATOM     28  N   UNL     1      -1.171  12.279  19.832  0.00  0.00    +0.000 N 
ATOM     29  C   UNL     1      -0.835  11.135  20.733  0.00  0.00    +0.000 C 
ATOM     30  C   UNL     1       0.641  10.648  20.573  0.00  0.00    +0.000 C 
BRANCH  28  31
ATOM     31  C   UNL     1      -2.434  12.872  20.088  0.00  0.00    +0.000 A 
ATOM     32  C   UNL     1      -2.609  14.019  20.882  0.00  0.00    +0.000 A 
ATOM     33  C   UNL     1      -3.877  14.582  21.117  0.00  0.00    +0.000 A 
ATOM     34  C   UNL     1      -5.020  14.000  20.572  0.00  0.00    +0.000 A 
ATOM     35  C   UNL     1      -4.889  12.855  19.794  0.00  0.00    +0.000 A 
ATOM     36  C   UNL     1      -3.620  12.313  19.558  0.00  0.00    +0.000 A 
ATOM     37  F   UNL     1      -3.555  11.197  18.813  0.00  0.00    +0.000 F 
ENDBRANCH  28  31
ENDBRANCH   5  23
TORSDOF 3
ENDMDL
MODEL 5
REMARK VINA RESULT:      -7.7      7.133     10.649
REMARK  Name = 
REMARK  4 active torsions:
REMARK  status: ('A' for Active; 'I' for Inactive)
REMARK    1  A    between atoms: C_1  and  C_2
REMARK    2  A    between atoms: N_8  and  C_9
REMARK    3  A    between atoms: C_13  and  C_14
REMARK    4  A    between atoms: N_19  and  C_20
REMARK                            x       y       z     vdW  Elec       q    Type
REMARK                         _______ _______ _______ _____ _____    ______ ____
ROOT
ATOM      1  C   UNL     1       8.886  14.419  19.690  0.00  0.00    +0.000 A 
ATOM      2  C   UNL     1       8.941  14.432  21.107  0.00  0.00    +0.000 A 
ATOM      3  C   UNL     1       7.942  15.026  21.884  0.00  0.00    +0.000 A 
ATOM      4  C   UNL     1       6.853  15.617  21.281  0.00  0.00    +0.000 A 
ATOM      5  C   UNL     1       6.719  15.687  19.878  0.00  0.00    +0.000 A 
ATOM      6  C   UNL     1       7.793  15.145  19.091  0.00  0.00    +0.000 A 
ENDROOT
BRANCH   1  14
ATOM      7  C   UNL     1      11.539  12.099  20.123  0.00  0.00    +0.000 C 
ATOM      8  C   UNL     1      11.306  13.352  19.266  0.00  0.00    +0.000 C 
ATOM      9  C   UNL     1      12.217  13.140  18.015  0.00  0.00    +0.000 C 
ATOM     10  C   UNL     1      11.558  14.010  16.983  0.00  0.00    +0.000 C 
ATOM     11  N   UNL     1      10.318  13.323  16.702  0.00  0.00    +0.000 N 
ATOM     12  C   UNL     1       9.446  12.983  17.716  0.00  0.00    +0.000 C 
ATOM     13  O   UNL     1       8.423  12.362  17.450  0.00  0.00    +0.000 OA
ATOM     14  N   UNL     1       9.829  13.479  18.981  0.00  0.00    +0.000 N 
ATOM     15  C   UNL     1      11.334  15.387  17.575  0.00  0.00    +0.000 A 
ATOM     16  C   UNL     1      10.573  16.342  16.899  0.00  0.00    +0.000 A 
ATOM     17  C   UNL     1      10.158  17.491  17.574  0.00  0.00    +0.000 A 
ATOM     18  C   UNL     1      10.621  17.770  18.864  0.00  0.00    +0.000 A 
ATOM     19  C   UNL     1      11.431  16.859  19.533  0.00  0.00    +0.000 A 
ATOM     20  C   UNL     1      11.655  15.626  18.934  0.00  0.00    +0.000 A 
ATOM     21  O   UNL     1      11.859  14.565  19.826  0.00  0.00    +0.000 OA
ATOM     22  H   UNL     1      10.113  12.952  15.782  0.00  0.00    +0.000 HD
ENDBRANCH   1  14
BRANCH   5  23
ATOM     23  C   UNL     1       5.282  16.050  19.465  0.00  0.00    +0.000 C 
ATOM     24  O   UNL     1       5.220  16.914  18.579  0.00  0.00    +0.000 OA
ATOM     25  N   UNL     1       4.077  15.523  19.931  0.00  0.00    +0.000 N 
ATOM     26  C   UNL     1       2.802  16.091  19.389  0.00  0.00    +0.000 C 
ATOM     27  C   UNL     1       1.859  15.014  18.800  0.00  0.00    +0.000 C 
ATOM     28  N   UNL     1       1.591  13.952  19.792  0.00  0.00    +0.000 N 
ATOM     29  C   UNL     1       2.837  13.381  20.388  0.00  0.00    +0.000 C 
ATOM     30  C   UNL     1       3.817  14.478  20.916  0.00  0.00    +0.000 C 
BRANCH  28  31
ATOM     31  C   UNL     1       0.598  12.987  19.483  0.00  0.00    +0.000 A 
ATOM     32  C   UNL     1       0.888  11.695  19.010  0.00  0.00    +0.000 A 
ATOM     33  C   UNL     1      -0.122  10.762  18.713  0.00  0.00    +0.000 A 
ATOM     34  C   UNL     1      -1.465  11.101  18.865  0.00  0.00    +0.000 A 
ATOM     35  C   UNL     1      -1.792  12.375  19.316  0.00  0.00    +0.000 A 
ATOM     36  C   UNL     1      -0.777  13.290  19.620  0.00  0.00    +0.000 A 
ATOM     37  F   UNL     1      -1.152  14.511  20.035  0.00  0.00    +0.000 F 
ENDBRANCH  28  31
ENDBRANCH   5  23
TORSDOF 3
ENDMDL
MODEL 6
REMARK VINA RESULT:      -7.6      1.939      3.266
REMARK  Name = 
REMARK  4 active torsions:
REMARK  status: ('A' for Active; 'I' for Inactive)
REMARK    1  A    between atoms: C_1  and  C_2
REMARK    2  A    between atoms: N_8  and  C_9
REMARK    3  A    between atoms: C_13  and  C_14
REMARK    4  A    between atoms: N_19  and  C_20
REMARK                            x       y       z     vdW  Elec       q    Type
REMARK                         _______ _______ _______ _____ _____    ______ ____
ROOT
ATOM      1  C   UNL     1      -2.678  12.700  20.866  0.00  0.00    +0.000 A 
ATOM      2  C   UNL     1      -2.996  12.448  19.507  0.00  0.00    +0.000 A 
ATOM      3  C   UNL     1      -2.319  11.484  18.752  0.00  0.00    +0.000 A 
ATOM      4  C   UNL     1      -1.313  10.736  19.324  0.00  0.00    +0.000 A 
ATOM      5  C   UNL     1      -0.898  10.931  20.659  0.00  0.00    +0.000 A 
ATOM      6  C   UNL     1      -1.548  11.981  21.398  0.00  0.00    +0.000 A 
ENDROOT
BRANCH   1  14
ATOM      7  C   UNL     1      -5.582  14.735  20.660  0.00  0.00    +0.000 C 
ATOM      8  C   UNL     1      -4.182  14.879  21.276  0.00  0.00    +0.000 C 
ATOM      9  C   UNL     1      -4.381  15.878  22.460  0.00  0.00    +0.000 C 
ATOM     10  C   UNL     1      -3.223  15.551  23.359  0.00  0.00    +0.000 C 
ATOM     11  N   UNL     1      -3.551  14.241  23.874  0.00  0.00    +0.000 N 
ATOM     12  C   UNL     1      -3.850  13.196  23.024  0.00  0.00    +0.000 C 
ATOM     13  O   UNL     1      -4.166  12.108  23.493  0.00  0.00    +0.000 OA
ATOM     14  N   UNL     1      -3.675  13.509  21.658  0.00  0.00    +0.000 N 
ATOM     15  C   UNL     1      -1.951  15.545  22.534  0.00  0.00    +0.000 A 
ATOM     16  C   UNL     1      -0.748  15.092  23.076  0.00  0.00    +0.000 A 
ATOM     17  C   UNL     1       0.334  14.843  22.231  0.00  0.00    +0.000 A 
ATOM     18  C   UNL     1       0.279  15.186  20.876  0.00  0.00    +0.000 A 
ATOM     19  C   UNL     1      -0.893  15.696  20.327  0.00  0.00    +0.000 A 
ATOM     20  C   UNL     1      -2.025  15.733  21.131  0.00  0.00    +0.000 A 
ATOM     21  O   UNL     1      -3.239  15.596  20.446  0.00  0.00    +0.000 OA
ATOM     22  H   UNL     1      -3.704  14.083  24.862  0.00  0.00    +0.000 HD
ENDBRANCH   1  14
BRANCH   5  23
ATOM     23  C   UNL     1      -0.044   9.755  21.163  0.00  0.00    +0.000 C 
ATOM     24  O   UNL     1      -0.414   9.302  22.255  0.00  0.00    +0.000 OA
ATOM     25  N   UNL     1       1.045   9.137  20.549  0.00  0.00    +0.000 N 
ATOM     26  C   UNL     1       1.735   8.029  21.284  0.00  0.00    +0.000 C 
ATOM     27  C   UNL     1       1.840   6.725  20.457  0.00  0.00    +0.000 C 
ATOM     28  N   UNL     1       2.484   6.981  19.152  0.00  0.00    +0.000 N 
ATOM     29  C   UNL     1       1.850   8.106  18.399  0.00  0.00    +0.000 C 
ATOM     30  C   UNL     1       1.682   9.398  19.262  0.00  0.00    +0.000 C 
BRANCH  28  31
ATOM     31  C   UNL     1       2.830   5.864  18.350  0.00  0.00    +0.000 A 
ATOM     32  C   UNL     1       2.019   4.723  18.212  0.00  0.00    +0.000 A 
ATOM     33  C   UNL     1       2.392   3.631  17.408  0.00  0.00    +0.000 A 
ATOM     34  C   UNL     1       3.605   3.640  16.722  0.00  0.00    +0.000 A 
ATOM     35  C   UNL     1       4.441   4.744  16.845  0.00  0.00    +0.000 A 
ATOM     36  C   UNL     1       4.052   5.829  17.640  0.00  0.00    +0.000 A 
ATOM     37  F   UNL     1       4.907   6.861  17.736  0.00  0.00    +0.000 F 
ENDBRANCH  28  31
ENDBRANCH   5  23
TORSDOF 3
ENDMDL
MODEL 7
REMARK VINA RESULT:      -7.6      0.803      1.125
REMARK  Name = 
REMARK  4 active torsions:
REMARK  status: ('A' for Active; 'I' for Inactive)
REMARK    1  A    between atoms: C_1  and  C_2
REMARK    2  A    between atoms: N_8  and  C_9
REMARK    3  A    between atoms: C_13  and  C_14
REMARK    4  A    between atoms: N_19  and  C_20
REMARK                            x       y       z     vdW  Elec       q    Type
REMARK                         _______ _______ _______ _____ _____    ______ ____
ROOT
ATOM      1  C   UNL     1      -0.042  13.296  19.673  0.00  0.00    +0.000 A 
ATOM      2  C   UNL     1      -1.262  13.070  18.985  0.00  0.00    +0.000 A 
ATOM      3  C   UNL     1      -1.777  11.785  18.788  0.00  0.00    +0.000 A 
ATOM      4  C   UNL     1      -1.104  10.686  19.275  0.00  0.00    +0.000 A 
ATOM      5  C   UNL     1       0.133  10.799  19.944  0.00  0.00    +0.000 A 
ATOM      6  C   UNL     1       0.690  12.119  20.067  0.00  0.00    +0.000 A 
ENDROOT
BRANCH   1  14
ATOM      7  C   UNL     1       2.336  15.438  21.210  0.00  0.00    +0.000 C 
ATOM      8  C   UNL     1       0.852  15.110  21.430  0.00  0.00    +0.000 C 
ATOM      9  C   UNL     1       0.263  16.401  22.083  0.00  0.00    +0.000 C 
ATOM     10  C   UNL     1      -1.197  16.297  21.746  0.00  0.00    +0.000 C 
ATOM     11  N   UNL     1      -1.233  16.513  20.318  0.00  0.00    +0.000 N 
ATOM     12  C   UNL     1      -0.456  15.757  19.463  0.00  0.00    +0.000 C 
ATOM     13  O   UNL     1      -0.477  15.994  18.261  0.00  0.00    +0.000 OA
ATOM     14  N   UNL     1       0.241  14.712  20.108  0.00  0.00    +0.000 N 
ATOM     15  C   UNL     1      -1.691  14.917  22.134  0.00  0.00    +0.000 A 
ATOM     16  C   UNL     1      -2.965  14.483  21.766  0.00  0.00    +0.000 A 
ATOM     17  C   UNL     1      -3.293  13.133  21.895  0.00  0.00    +0.000 A 
ATOM     18  C   UNL     1      -2.422  12.241  22.528  0.00  0.00    +0.000 A 
ATOM     19  C   UNL     1      -1.169  12.667  22.958  0.00  0.00    +0.000 A 
ATOM     20  C   UNL     1      -0.773  13.957  22.627  0.00  0.00    +0.000 A 
ATOM     21  O   UNL     1       0.608  14.125  22.460  0.00  0.00    +0.000 OA
ATOM     22  H   UNL     1      -1.718  17.304  19.913  0.00  0.00    +0.000 HD
ENDBRANCH   1  14
BRANCH   5  23
ATOM     23  C   UNL     1       0.488   9.505  20.698  0.00  0.00    +0.000 C 
ATOM     24  O   UNL     1      -0.180   9.328  21.726  0.00  0.00    +0.000 OA
ATOM     25  N   UNL     1       1.421   8.524  20.363  0.00  0.00    +0.000 N 
ATOM     26  C   UNL     1       1.604   7.373  21.304  0.00  0.00    +0.000 C 
ATOM     27  C   UNL     1       1.439   5.996  20.618  0.00  0.00    +0.000 C 
ATOM     28  N   UNL     1       2.340   5.879  19.452  0.00  0.00    +0.000 N 
ATOM     29  C   UNL     1       2.217   7.026  18.503  0.00  0.00    +0.000 C 
ATOM     30  C   UNL     1       2.313   8.416  19.213  0.00  0.00    +0.000 C 
BRANCH  28  31
ATOM     31  C   UNL     1       2.454   4.612  18.824  0.00  0.00    +0.000 A 
ATOM     32  C   UNL     1       3.465   4.290  17.901  0.00  0.00    +0.000 A 
ATOM     33  C   UNL     1       3.550   3.023  17.295  0.00  0.00    +0.000 A 
ATOM     34  C   UNL     1       2.610   2.037  17.585  0.00  0.00    +0.000 A 
ATOM     35  C   UNL     1       1.586   2.323  18.481  0.00  0.00    +0.000 A 
ATOM     36  C   UNL     1       1.520   3.584  19.086  0.00  0.00    +0.000 A 
ATOM     37  F   UNL     1       0.499   3.810  19.930  0.00  0.00    +0.000 F 
ENDBRANCH  28  31
ENDBRANCH   5  23
TORSDOF 3
ENDMDL
MODEL 8
REMARK VINA RESULT:      -7.5      6.867     10.462
REMARK  Name = 
REMARK  4 active torsions:
REMARK  status: ('A' for Active; 'I' for Inactive)
REMARK    1  A    between atoms: C_1  and  C_2
REMARK    2  A    between atoms: N_8  and  C_9
REMARK    3  A    between atoms: C_13  and  C_14
REMARK    4  A    between atoms: N_19  and  C_20
REMARK                            x       y       z     vdW  Elec       q    Type
REMARK                         _______ _______ _______ _____ _____    ______ ____
ROOT
ATOM      1  C   UNL     1       8.745  14.308  19.795  0.00  0.00    +0.000 A 
ATOM      2  C   UNL     1       8.744  14.231  21.211  0.00  0.00    +0.000 A 
ATOM      3  C   UNL     1       7.719  14.786  21.985  0.00  0.00    +0.000 A 
ATOM      4  C   UNL     1       6.660  15.425  21.378  0.00  0.00    +0.000 A 
ATOM      5  C   UNL     1       6.582  15.585  19.978  0.00  0.00    +0.000 A 
ATOM      6  C   UNL     1       7.683  15.082  19.201  0.00  0.00    +0.000 A 
ENDROOT
BRANCH   1  14
ATOM      7  C   UNL     1      11.424  12.010  20.179  0.00  0.00    +0.000 C 
ATOM      8  C   UNL     1      11.184  13.288  19.363  0.00  0.00    +0.000 C 
ATOM      9  C   UNL     1      12.111  13.131  18.116  0.00  0.00    +0.000 C 
ATOM     10  C   UNL     1      11.451  14.026  17.106  0.00  0.00    +0.000 C 
ATOM     11  N   UNL     1      10.223  13.333  16.788  0.00  0.00    +0.000 N 
ATOM     12  C   UNL     1       9.346  12.947  17.781  0.00  0.00    +0.000 C 
ATOM     13  O   UNL     1       8.334  12.323  17.482  0.00  0.00    +0.000 OA
ATOM     14  N   UNL     1       9.708  13.406  19.066  0.00  0.00    +0.000 N 
ATOM     15  C   UNL     1      11.203  15.379  17.741  0.00  0.00    +0.000 A 
ATOM     16  C   UNL     1      10.436  16.347  17.090  0.00  0.00    +0.000 A 
ATOM     17  C   UNL     1       9.999  17.466  17.798  0.00  0.00    +0.000 A 
ATOM     18  C   UNL     1      10.444  17.708  19.102  0.00  0.00    +0.000 A 
ATOM     19  C   UNL     1      11.258  16.785  19.750  0.00  0.00    +0.000 A 
ATOM     20  C   UNL     1      11.505  15.577  19.112  0.00  0.00    +0.000 A 
ATOM     21  O   UNL     1      11.714  14.489  19.970  0.00  0.00    +0.000 OA
ATOM     22  H   UNL     1      10.034  12.991  15.854  0.00  0.00    +0.000 HD
ENDBRANCH   1  14
BRANCH   5  23
ATOM     23  C   UNL     1       5.165  15.988  19.533  0.00  0.00    +0.000 C 
ATOM     24  O   UNL     1       5.149  16.806  18.603  0.00  0.00    +0.000 OA
ATOM     25  N   UNL     1       3.935  15.540  20.015  0.00  0.00    +0.000 N 
ATOM     26  C   UNL     1       2.690  16.134  19.431  0.00  0.00    +0.000 C 
ATOM     27  C   UNL     1       1.705  15.069  18.891  0.00  0.00    +0.000 C 
ATOM     28  N   UNL     1       1.383  14.074  19.934  0.00  0.00    +0.000 N 
ATOM     29  C   UNL     1       2.598  13.481  20.571  0.00  0.00    +0.000 C 
ATOM     30  C   UNL     1       3.622  14.561  21.051  0.00  0.00    +0.000 C 
BRANCH  28  31
ATOM     31  C   UNL     1       0.350  13.139  19.667  0.00  0.00    +0.000 A 
ATOM     32  C   UNL     1      -0.947  13.238  20.201  0.00  0.00    +0.000 A 
ATOM     33  C   UNL     1      -1.949  12.293  19.915  0.00  0.00    +0.000 A 
ATOM     34  C   UNL     1      -1.677  11.202  19.092  0.00  0.00    +0.000 A 
ATOM     35  C   UNL     1      -0.401  11.062  18.558  0.00  0.00    +0.000 A 
ATOM     36  C   UNL     1       0.583  12.016  18.840  0.00  0.00    +0.000 A 
ATOM     37  F   UNL     1       1.802  11.820  18.311  0.00  0.00    +0.000 F 
ENDBRANCH  28  31
ENDBRANCH   5  23
TORSDOF 3
ENDMDL
MODEL 9
REMARK VINA RESULT:      -7.5      6.956     11.166
REMARK  Name = 
REMARK  4 active torsions:
REMARK  status: ('A' for Active; 'I' for Inactive)
REMARK    1  A    between atoms: C_1  and  C_2
REMARK    2  A    between atoms: N_8  and  C_9
REMARK    3  A    between atoms: C_13  and  C_14
REMARK    4  A    between atoms: N_19  and  C_20
REMARK                            x       y       z     vdW  Elec       q    Type
REMARK                         _______ _______ _______ _____ _____    ______ ____
ROOT
ATOM      1  C   UNL     1       8.815  13.626  20.430  0.00  0.00    +0.000 A 
ATOM      2  C   UNL     1       9.202  12.709  21.441  0.00  0.00    +0.000 A 
ATOM      3  C   UNL     1       8.432  12.500  22.589  0.00  0.00    +0.000 A 
ATOM      4  C   UNL     1       7.250  13.186  22.766  0.00  0.00    +0.000 A 
ATOM      5  C   UNL     1       6.792  14.144  21.837  0.00  0.00    +0.000 A 
ATOM      6  C   UNL     1       7.635  14.408  20.702  0.00  0.00    +0.000 A 
ENDROOT
BRANCH   1  14
ATOM      7  C   UNL     1      11.490  12.061  18.696  0.00  0.00    +0.000 C 
ATOM      8  C   UNL     1      11.036  13.509  18.938  0.00  0.00    +0.000 C 
ATOM      9  C   UNL     1      11.582  14.296  17.704  0.00  0.00    +0.000 C 
ATOM     10  C   UNL     1      10.671  15.489  17.652  0.00  0.00    +0.000 C 
ATOM     11  N   UNL     1       9.401  14.930  17.247  0.00  0.00    +0.000 N 
ATOM     12  C   UNL     1       8.832  13.882  17.939  0.00  0.00    +0.000 C 
ATOM     13  O   UNL     1       7.775  13.401  17.544  0.00  0.00    +0.000 OA
ATOM     14  N   UNL     1       9.536  13.526  19.109  0.00  0.00    +0.000 N 
ATOM     15  C   UNL     1      10.612  16.119  19.030  0.00  0.00    +0.000 A 
ATOM     16  C   UNL     1       9.697  17.134  19.314  0.00  0.00    +0.000 A 
ATOM     17  C   UNL     1       9.476  17.505  20.641  0.00  0.00    +0.000 A 
ATOM     18  C   UNL     1      10.265  16.985  21.672  0.00  0.00    +0.000 A 
ATOM     19  C   UNL     1      11.224  16.014  21.402  0.00  0.00    +0.000 A 
ATOM     20  C   UNL     1      11.282  15.499  20.113  0.00  0.00    +0.000 A 
ATOM     21  O   UNL     1      11.717  14.169  20.029  0.00  0.00    +0.000 OA
ATOM     22  H   UNL     1       8.960  15.195  16.374  0.00  0.00    +0.000 HD
ENDBRANCH   1  14
BRANCH   5  23
ATOM     23  C   UNL     1       5.310  14.488  22.064  0.00  0.00    +0.000 C 
ATOM     24  O   UNL     1       5.050  14.828  23.227  0.00  0.00    +0.000 OA
ATOM     25  N   UNL     1       4.259  14.490  21.146  0.00  0.00    +0.000 N 
ATOM     26  C   UNL     1       2.887  14.825  21.644  0.00  0.00    +0.000 C 
ATOM     27  C   UNL     1       2.219  15.976  20.855  0.00  0.00    +0.000 C 
ATOM     28  N   UNL     1       2.204  15.682  19.407  0.00  0.00    +0.000 N 
ATOM     29  C   UNL     1       3.549  15.307  18.874  0.00  0.00    +0.000 C 
ATOM     30  C   UNL     1       4.248  14.192  19.717  0.00  0.00    +0.000 C 
BRANCH  28  31
ATOM     31  C   UNL     1       1.460  16.544  18.560  0.00  0.00    +0.000 A 
ATOM     32  C   UNL     1       2.047  17.391  17.603  0.00  0.00    +0.000 A 
ATOM     33  C   UNL     1       1.280  18.234  16.778  0.00  0.00    +0.000 A 
ATOM     34  C   UNL     1      -0.108  18.267  16.897  0.00  0.00    +0.000 A 
ATOM     35  C   UNL     1      -0.723  17.454  17.843  0.00  0.00    +0.000 A 
ATOM     36  C   UNL     1       0.051  16.611  18.649  0.00  0.00    +0.000 A 
ATOM     37  F   UNL     1      -0.596  15.862  19.557  0.00  0.00    +0.000 F 
ENDBRANCH  28  31
ENDBRANCH   5  23
TORSDOF 3
ENDMDL
