MODEL 1
REMARK VINA RESULT:      -8.0      0.000      0.000
REMARK  Name = 
REMARK  6 active torsions:
REMARK  status: ('A' for Active; 'I' for Inactive)
REMARK    1  A    between atoms: C_1  and  O_2
REMARK    2  A    between atoms: O_2  and  C_3
REMARK    3  A    between atoms: C_3  and  C_5
REMARK    4  A    between atoms: C_10  and  N_11
REMARK    5  A    between atoms: C_12  and  C_14
REMARK    6  A    between atoms: C_25  and  C_26
REMARK                            x       y       z     vdW  Elec       q    Type
REMARK                         _______ _______ _______ _____ _____    ______ ____
ROOT
ATOM      1  C   UNL     1       3.999   3.401  17.815  0.00  0.00    +0.000 A 
ATOM      2  C   UNL     1       3.996   2.056  18.234  0.00  0.00    +0.000 A 
ATOM      3  N   UNL     1       3.282   1.838  19.344  0.00  0.00    +0.000 NA
ATOM      4  N   UNL     1       2.807   3.065  19.698  0.00  0.00    +0.000 N 
ATOM      5  C   UNL     1       3.285   4.035  18.816  0.00  0.00    +0.000 A 
ATOM      6  N   UNL     1       2.959   5.341  19.038  0.00  0.00    +0.000 N 
ATOM      7  C   UNL     1       2.115   5.755  20.060  0.00  0.00    +0.000 C 
ATOM      8  C   UNL     1       1.790   7.013  20.300  0.00  0.00    +0.000 C 
ATOM      9  C   UNL     1       1.026   7.886  21.107  0.00  0.00    +0.000 C 
ATOM     10  C   UNL     1       1.959   8.370  19.951  0.00  0.00    +0.000 C 
ATOM     11  C   UNL     1       1.570   4.699  20.911  0.00  0.00    +0.000 C 
ATOM     12  C   UNL     1       1.931   3.408  20.737  0.00  0.00    +0.000 C 
ATOM     13  H   UNL     1       3.291   6.068  18.401  0.00  0.00    +0.000 HD
ENDROOT
BRANCH   1  15
ATOM     14  N   UNL     1       5.387   3.345  15.824  0.00  0.00    +0.000 N 
ATOM     15  C   UNL     1       4.561   4.087  16.663  0.00  0.00    +0.000 C 
ATOM     16  O   UNL     1       4.244   5.257  16.462  0.00  0.00    +0.000 OA
ATOM     17  H   UNL     1       5.445   2.341  15.961  0.00  0.00    +0.000 HD
BRANCH  14  23
ATOM     18  C   UNL     1       7.096   4.806  14.746  0.00  0.00    +0.000 A 
ATOM     19  C   UNL     1       7.747   5.230  13.562  0.00  0.00    +0.000 A 
ATOM     20  C   UNL     1       7.389   4.731  12.311  0.00  0.00    +0.000 A 
ATOM     21  C   UNL     1       6.355   3.816  12.223  0.00  0.00    +0.000 A 
ATOM     22  C   UNL     1       5.697   3.393  13.380  0.00  0.00    +0.000 A 
ATOM     23  C   UNL     1       6.060   3.845  14.664  0.00  0.00    +0.000 A 
BRANCH  18  24
ATOM     24  C   UNL     1       7.632   5.432  15.993  0.00  0.00    +0.000 C 
ATOM     25  O   UNL     1       7.687   6.643  16.152  0.00  0.00    +0.000 OA
BRANCH  24  27
ATOM     26  C   UNL     1       7.723   4.901  18.254  0.00  0.00    +0.000 C 
ATOM     27  O   UNL     1       8.038   4.515  16.909  0.00  0.00    +0.000 OA
ENDBRANCH  24  27
ENDBRANCH  18  24
ENDBRANCH  14  23
ENDBRANCH   1  15
BRANCH  12  28
ATOM     28  C   UNL     1       1.399   2.300  21.571  0.00  0.00    +0.000 C 
ATOM     29  F   UNL     1       2.409   1.626  22.184  0.00  0.00    +0.000 F 
ATOM     30  F   UNL     1       0.620   2.785  22.583  0.00  0.00    +0.000 F 
ENDBRANCH  12  28
TORSDOF 5
ENDMDL
MODEL 2
REMARK VINA RESULT:      -8.0      5.304      7.800
REMARK  Name = 
REMARK  6 active torsions:
REMARK  status: ('A' for Active; 'I' for Inactive)
REMARK    1  A    between atoms: C_1  and  O_2
REMARK    2  A    between atoms: O_2  and  C_3
REMARK    3  A    between atoms: C_3  and  C_5
REMARK    4  A    between atoms: C_10  and  N_11
REMARK    5  A    between atoms: C_12  and  C_14
REMARK    6  A    between atoms: C_25  and  C_26
REMARK                            x       y       z     vdW  Elec       q    Type
REMARK                         _______ _______ _______ _____ _____    ______ ____
ROOT
ATOM      1  C   UNL     1       1.029   9.894  19.091  0.00  0.00    +0.000 A 
ATOM      2  C   UNL     1       1.201  10.501  20.351  0.00  0.00    +0.000 A 
ATOM      3  N   UNL     1       0.175  11.276  20.722  0.00  0.00    +0.000 NA
ATOM      4  N   UNL     1      -0.704  11.209  19.682  0.00  0.00    +0.000 N 
ATOM      5  C   UNL     1      -0.172  10.425  18.657  0.00  0.00    +0.000 A 
ATOM      6  N   UNL     1      -0.887  10.282  17.503  0.00  0.00    +0.000 N 
ATOM      7  C   UNL     1      -2.152  10.820  17.317  0.00  0.00    +0.000 C 
ATOM      8  C   UNL     1      -2.861  10.702  16.208  0.00  0.00    +0.000 C 
ATOM      9  C   UNL     1      -4.087  10.998  15.570  0.00  0.00    +0.000 C 
ATOM     10  C   UNL     1      -2.920  10.220  14.883  0.00  0.00    +0.000 C 
ATOM     11  C   UNL     1      -2.708  11.565  18.446  0.00  0.00    +0.000 C 
ATOM     12  C   UNL     1      -1.986  11.762  19.572  0.00  0.00    +0.000 C 
ATOM     13  H   UNL     1      -0.521   9.707  16.741  0.00  0.00    +0.000 HD
ENDROOT
BRANCH   1  15
ATOM     14  N   UNL     1       2.206   7.774  18.971  0.00  0.00    +0.000 N 
ATOM     15  C   UNL     1       1.819   8.944  18.325  0.00  0.00    +0.000 C 
ATOM     16  O   UNL     1       2.061   9.196  17.146  0.00  0.00    +0.000 OA
ATOM     17  H   UNL     1       1.806   7.564  19.880  0.00  0.00    +0.000 HD
BRANCH  14  23
ATOM     18  C   UNL     1       2.837   5.373  18.738  0.00  0.00    +0.000 A 
ATOM     19  C   UNL     1       3.641   4.392  18.107  0.00  0.00    +0.000 A 
ATOM     20  C   UNL     1       4.608   4.736  17.165  0.00  0.00    +0.000 A 
ATOM     21  C   UNL     1       4.803   6.070  16.856  0.00  0.00    +0.000 A 
ATOM     22  C   UNL     1       4.024   7.050  17.475  0.00  0.00    +0.000 A 
ATOM     23  C   UNL     1       3.010   6.737  18.401  0.00  0.00    +0.000 A 
BRANCH  18  24
ATOM     24  C   UNL     1       1.840   4.815  19.701  0.00  0.00    +0.000 C 
ATOM     25  O   UNL     1       1.568   5.361  20.761  0.00  0.00    +0.000 OA
BRANCH  24  27
ATOM     26  C   UNL     1       1.200   2.661  20.297  0.00  0.00    +0.000 C 
ATOM     27  O   UNL     1       1.281   3.655  19.266  0.00  0.00    +0.000 OA
ENDBRANCH  24  27
ENDBRANCH  18  24
ENDBRANCH  14  23
ENDBRANCH   1  15
BRANCH  12  28
ATOM     28  C   UNL     1      -2.509  12.506  20.747  0.00  0.00    +0.000 C 
ATOM     29  F   UNL     1      -2.207  13.829  20.657  0.00  0.00    +0.000 F 
ATOM     30  F   UNL     1      -3.874  12.447  20.791  0.00  0.00    +0.000 F 
ENDBRANCH  12  28
TORSDOF 5
ENDMDL
MODEL 3
REMARK VINA RESULT:      -7.9      4.256      6.805
REMARK  Name = 
REMARK  6 active torsions:
REMARK  status: ('A' for Active; 'I' for Inactive)
REMARK    1  A    between atoms: C_1  and  O_2
REMARK    2  A    between atoms: O_2  and  C_3
REMARK    3  A    between atoms: C_3  and  C_5
REMARK    4  A    between atoms: C_10  and  N_11
REMARK    5  A    between atoms: C_12  and  C_14
REMARK    6  A    between atoms: C_25  and  C_26
REMARK                            x       y       z     vdW  Elec       q    Type
REMARK                         _______ _______ _______ _____ _____    ______ ____
ROOT
ATOM      1  C   UNL     1       2.101   8.221  18.580  0.00  0.00    +0.000 A 
ATOM      2  C   UNL     1       2.572   8.871  17.422  0.00  0.00    +0.000 A 
ATOM      3  N   UNL     1       2.338  10.189  17.410  0.00  0.00    +0.000 NA
ATOM      4  N   UNL     1       1.676  10.435  18.576  0.00  0.00    +0.000 N 
ATOM      5  C   UNL     1       1.468   9.241  19.268  0.00  0.00    +0.000 A 
ATOM      6  N   UNL     1       0.772   9.275  20.441  0.00  0.00    +0.000 N 
ATOM      7  C   UNL     1       0.314  10.449  21.023  0.00  0.00    +0.000 C 
ATOM      8  C   UNL     1      -0.369  10.509  22.152  0.00  0.00    +0.000 C 
ATOM      9  C   UNL     1      -0.982  11.359  23.101  0.00  0.00    +0.000 C 
ATOM     10  C   UNL     1      -0.978   9.800  23.210  0.00  0.00    +0.000 C 
ATOM     11  C   UNL     1       0.624  11.686  20.307  0.00  0.00    +0.000 C 
ATOM     12  C   UNL     1       1.263  11.660  19.116  0.00  0.00    +0.000 C 
ATOM     13  H   UNL     1       0.613   8.415  20.969  0.00  0.00    +0.000 HD
ENDROOT
BRANCH   1  15
ATOM     14  N   UNL     1       2.412   5.860  18.109  0.00  0.00    +0.000 N 
ATOM     15  C   UNL     1       2.184   6.851  19.059  0.00  0.00    +0.000 C 
ATOM     16  O   UNL     1       2.098   6.643  20.267  0.00  0.00    +0.000 OA
ATOM     17  H   UNL     1       2.656   6.138  17.164  0.00  0.00    +0.000 HD
BRANCH  14  23
ATOM     18  C   UNL     1       3.727   3.782  18.522  0.00  0.00    +0.000 A 
ATOM     19  C   UNL     1       3.734   2.398  18.824  0.00  0.00    +0.000 A 
ATOM     20  C   UNL     1       2.551   1.677  18.973  0.00  0.00    +0.000 A 
ATOM     21  C   UNL     1       1.341   2.324  18.798  0.00  0.00    +0.000 A 
ATOM     22  C   UNL     1       1.317   3.686  18.492  0.00  0.00    +0.000 A 
ATOM     23  C   UNL     1       2.491   4.456  18.375  0.00  0.00    +0.000 A 
BRANCH  18  24
ATOM     24  C   UNL     1       5.088   4.390  18.423  0.00  0.00    +0.000 C 
ATOM     25  O   UNL     1       5.951   4.220  19.273  0.00  0.00    +0.000 OA
BRANCH  24  27
ATOM     26  C   UNL     1       5.550   4.339  16.146  0.00  0.00    +0.000 C 
ATOM     27  O   UNL     1       5.251   5.136  17.299  0.00  0.00    +0.000 OA
ENDBRANCH  24  27
ENDBRANCH  18  24
ENDBRANCH  14  23
ENDBRANCH   1  15
BRANCH  12  28
ATOM     28  C   UNL     1       1.606  12.888  18.355  0.00  0.00    +0.000 C 
ATOM     29  F   UNL     1       0.973  13.974  18.876  0.00  0.00    +0.000 F 
ATOM     30  F   UNL     1       2.940  13.165  18.453  0.00  0.00    +0.000 F 
ENDBRANCH  12  28
TORSDOF 5
ENDMDL
MODEL 4
REMARK VINA RESULT:      -7.7      4.538      7.471
REMARK  Name = 
REMARK  6 active torsions:
REMARK  status: ('A' for Active; 'I' for Inactive)
REMARK    1  A    between atoms: C_1  and  O_2
REMARK    2  A    between atoms: O_2  and  C_3
REMARK    3  A    between atoms: C_3  and  C_5
REMARK    4  A    between atoms: C_10  and  N_11
REMARK    5  A    between atoms: C_12  and  C_14
REMARK    6  A    between atoms: C_25  and  C_26
REMARK                            x       y       z     vdW  Elec       q    Type
REMARK                         _______ _______ _______ _____ _____    ______ ____
ROOT
ATOM      1  C   UNL     1       1.842   8.524  19.136  0.00  0.00    +0.000 A 
ATOM      2  C   UNL     1       2.392   8.930  17.905  0.00  0.00    +0.000 A 
ATOM      3  N   UNL     1       2.219  10.231  17.640  0.00  0.00    +0.000 NA
ATOM      4  N   UNL     1       1.520  10.712  18.706  0.00  0.00    +0.000 N 
ATOM      5  C   UNL     1       1.228   9.676  19.593  0.00  0.00    +0.000 A 
ATOM      6  N   UNL     1       0.484   9.953  20.703  0.00  0.00    +0.000 N 
ATOM      7  C   UNL     1       0.055  11.230  21.036  0.00  0.00    +0.000 C 
ATOM      8  C   UNL     1      -0.671  11.523  22.100  0.00  0.00    +0.000 C 
ATOM      9  C   UNL     1      -1.285  12.556  22.845  0.00  0.00    +0.000 C 
ATOM     10  C   UNL     1      -1.357  11.046  23.237  0.00  0.00    +0.000 C 
ATOM     11  C   UNL     1       0.453  12.301  20.123  0.00  0.00    +0.000 C 
ATOM     12  C   UNL     1       1.141  12.031  18.991  0.00  0.00    +0.000 C 
ATOM     13  H   UNL     1       0.263   9.211  21.371  0.00  0.00    +0.000 HD
ENDROOT
BRANCH   1  15
ATOM     14  N   UNL     1       2.262   6.132  19.168  0.00  0.00    +0.000 N 
ATOM     15  C   UNL     1       1.841   7.263  19.861  0.00  0.00    +0.000 C 
ATOM     16  O   UNL     1       1.518   7.267  21.047  0.00  0.00    +0.000 OA
ATOM     17  H   UNL     1       2.686   6.252  18.254  0.00  0.00    +0.000 HD
BRANCH  14  23
ATOM     18  C   UNL     1       3.437   3.969  19.564  0.00  0.00    +0.000 A 
ATOM     19  C   UNL     1       3.423   2.676  20.141  0.00  0.00    +0.000 A 
ATOM     20  C   UNL     1       2.311   2.195  20.830  0.00  0.00    +0.000 A 
ATOM     21  C   UNL     1       1.186   2.994  20.933  0.00  0.00    +0.000 A 
ATOM     22  C   UNL     1       1.180   4.268  20.361  0.00  0.00    +0.000 A 
ATOM     23  C   UNL     1       2.300   4.801  19.694  0.00  0.00    +0.000 A 
BRANCH  18  24
ATOM     24  C   UNL     1       4.722   4.318  18.885  0.00  0.00    +0.000 C 
ATOM     25  O   UNL     1       5.815   4.051  19.363  0.00  0.00    +0.000 OA
BRANCH  24  27
ATOM     26  C   UNL     1       5.133   4.253  16.598  0.00  0.00    +0.000 C 
ATOM     27  O   UNL     1       4.534   4.952  17.698  0.00  0.00    +0.000 OA
ENDBRANCH  24  27
ENDBRANCH  18  24
ENDBRANCH  14  23
ENDBRANCH   1  15
BRANCH  12  28
ATOM     28  C   UNL     1       1.572  13.084  18.037  0.00  0.00    +0.000 C 
ATOM     29  F   UNL     1       0.988  14.276  18.333  0.00  0.00    +0.000 F 
ATOM     30  F   UNL     1       2.917  13.306  18.133  0.00  0.00    +0.000 F 
ENDBRANCH  12  28
TORSDOF 5
ENDMDL
MODEL 5
REMARK VINA RESULT:      -7.5      4.545      7.029
REMARK  Name = 
REMARK  6 active torsions:
REMARK  status: ('A' for Active; 'I' for Inactive)
REMARK    1  A    between atoms: C_1  and  O_2
REMARK    2  A    between atoms: O_2  and  C_3
REMARK    3  A    between atoms: C_3  and  C_5
REMARK    4  A    between atoms: C_10  and  N_11
REMARK    5  A    between atoms: C_12  and  C_14
REMARK    6  A    between atoms: C_25  and  C_26
REMARK                            x       y       z     vdW  Elec       q    Type
REMARK                         _______ _______ _______ _____ _____    ______ ____
ROOT
ATOM      1  C   UNL     1       1.231   8.804  20.042  0.00  0.00    +0.000 A 
ATOM      2  C   UNL     1       0.603   8.246  21.173  0.00  0.00    +0.000 A 
ATOM      3  N   UNL     1       0.006   9.149  21.960  0.00  0.00    +0.000 NA
ATOM      4  N   UNL     1       0.251  10.348  21.360  0.00  0.00    +0.000 N 
ATOM      5  C   UNL     1       1.048  10.162  20.229  0.00  0.00    +0.000 A 
ATOM      6  N   UNL     1       1.446  11.258  19.520  0.00  0.00    +0.000 N 
ATOM      7  C   UNL     1       1.043  12.552  19.823  0.00  0.00    +0.000 C 
ATOM      8  C   UNL     1       1.420  13.629  19.158  0.00  0.00    +0.000 C 
ATOM      9  C   UNL     1       1.291  15.032  19.041  0.00  0.00    +0.000 C 
ATOM     10  C   UNL     1       2.204  14.166  18.114  0.00  0.00    +0.000 C 
ATOM     11  C   UNL     1       0.142  12.694  20.966  0.00  0.00    +0.000 C 
ATOM     12  C   UNL     1      -0.213  11.622  21.711  0.00  0.00    +0.000 C 
ATOM     13  H   UNL     1       2.023  11.147  18.684  0.00  0.00    +0.000 HD
ENDROOT
BRANCH   1  15
ATOM     14  N   UNL     1       2.657   7.066  19.124  0.00  0.00    +0.000 N 
ATOM     15  C   UNL     1       1.927   8.230  18.902  0.00  0.00    +0.000 C 
ATOM     16  O   UNL     1       1.799   8.767  17.803  0.00  0.00    +0.000 OA
ATOM     17  H   UNL     1       2.556   6.591  20.015  0.00  0.00    +0.000 HD
BRANCH  14  23
ATOM     18  C   UNL     1       3.179   5.025  17.790  0.00  0.00    +0.000 A 
ATOM     19  C   UNL     1       3.960   4.409  16.782  0.00  0.00    +0.000 A 
ATOM     20  C   UNL     1       4.984   5.094  16.130  0.00  0.00    +0.000 A 
ATOM     21  C   UNL     1       5.258   6.401  16.494  0.00  0.00    +0.000 A 
ATOM     22  C   UNL     1       4.502   7.020  17.492  0.00  0.00    +0.000 A 
ATOM     23  C   UNL     1       3.434   6.372  18.142  0.00  0.00    +0.000 A 
BRANCH  18  24
ATOM     24  C   UNL     1       2.114   4.144  18.358  0.00  0.00    +0.000 C 
ATOM     25  O   UNL     1       1.239   3.637  17.669  0.00  0.00    +0.000 OA
BRANCH  24  27
ATOM     26  C   UNL     1       0.980   4.099  20.387  0.00  0.00    +0.000 C 
ATOM     27  O   UNL     1       2.233   3.973  19.700  0.00  0.00    +0.000 OA
ENDBRANCH  24  27
ENDBRANCH  18  24
ENDBRANCH  14  23
ENDBRANCH   1  15
BRANCH  12  28
ATOM     28  C   UNL     1      -1.129  11.716  22.876  0.00  0.00    +0.000 C 
ATOM     29  F   UNL     1      -1.012  12.924  23.490  0.00  0.00    +0.000 F 
ATOM     30  F   UNL     1      -2.433  11.638  22.476  0.00  0.00    +0.000 F 
ENDBRANCH  12  28
TORSDOF 5
ENDMDL
MODEL 6
REMARK VINA RESULT:      -7.5      4.510      7.117
REMARK  Name = 
REMARK  6 active torsions:
REMARK  status: ('A' for Active; 'I' for Inactive)
REMARK    1  A    between atoms: C_1  and  O_2
REMARK    2  A    between atoms: O_2  and  C_3
REMARK    3  A    between atoms: C_3  and  C_5
REMARK    4  A    between atoms: C_10  and  N_11
REMARK    5  A    between atoms: C_12  and  C_14
REMARK    6  A    between atoms: C_25  and  C_26
REMARK                            x       y       z     vdW  Elec       q    Type
REMARK                         _______ _______ _______ _____ _____    ______ ____
ROOT
ATOM      1  C   UNL     1       1.381   8.938  20.001  0.00  0.00    +0.000 A 
ATOM      2  C   UNL     1       1.735   9.233  21.333  0.00  0.00    +0.000 A 
ATOM      3  N   UNL     1       0.908  10.098  21.932  0.00  0.00    +0.000 NA
ATOM      4  N   UNL     1      -0.016  10.411  20.981  0.00  0.00    +0.000 N 
ATOM      5  C   UNL     1       0.294   9.765  19.784  0.00  0.00    +0.000 A 
ATOM      6  N   UNL     1      -0.491   9.997  18.691  0.00  0.00    +0.000 N 
ATOM      7  C   UNL     1      -1.628  10.792  18.723  0.00  0.00    +0.000 C 
ATOM      8  C   UNL     1      -2.400  11.038  17.679  0.00  0.00    +0.000 C 
ATOM      9  C   UNL     1      -3.570  11.685  17.220  0.00  0.00    +0.000 C 
ATOM     10  C   UNL     1      -2.622  10.855  16.297  0.00  0.00    +0.000 C 
ATOM     11  C   UNL     1      -1.964  11.385  20.017  0.00  0.00    +0.000 C 
ATOM     12  C   UNL     1      -1.162  11.209  21.092  0.00  0.00    +0.000 C 
ATOM     13  H   UNL     1      -0.289   9.529  17.805  0.00  0.00    +0.000 HD
ENDROOT
BRANCH   1  15
ATOM     14  N   UNL     1       2.523   6.864  19.464  0.00  0.00    +0.000 N 
ATOM     15  C   UNL     1       1.922   8.031  19.002  0.00  0.00    +0.000 C 
ATOM     16  O   UNL     1       1.780   8.312  17.814  0.00  0.00    +0.000 OA
ATOM     17  H   UNL     1       2.431   6.625  20.446  0.00  0.00    +0.000 HD
BRANCH  14  23
ATOM     18  C   UNL     1       2.695   4.524  18.621  0.00  0.00    +0.000 A 
ATOM     19  C   UNL     1       3.326   3.596  17.757  0.00  0.00    +0.000 A 
ATOM     20  C   UNL     1       4.385   3.968  16.932  0.00  0.00    +0.000 A 
ATOM     21  C   UNL     1       4.846   5.272  16.975  0.00  0.00    +0.000 A 
ATOM     22  C   UNL     1       4.240   6.198  17.827  0.00  0.00    +0.000 A 
ATOM     23  C   UNL     1       3.142   5.867  18.644  0.00  0.00    +0.000 A 
BRANCH  18  24
ATOM     24  C   UNL     1       1.565   3.949  19.411  0.00  0.00    +0.000 C 
ATOM     25  O   UNL     1       0.765   3.153  18.938  0.00  0.00    +0.000 OA
BRANCH  24  27
ATOM     26  C   UNL     1       2.108   3.472  21.621  0.00  0.00    +0.000 C 
ATOM     27  O   UNL     1       1.535   4.402  20.692  0.00  0.00    +0.000 OA
ENDBRANCH  24  27
ENDBRANCH  18  24
ENDBRANCH  14  23
ENDBRANCH   1  15
BRANCH  12  28
ATOM     28  C   UNL     1      -1.464  11.784  22.427  0.00  0.00    +0.000 C 
ATOM     29  F   UNL     1      -1.517  10.810  23.375  0.00  0.00    +0.000 F 
ATOM     30  F   UNL     1      -0.468  12.628  22.830  0.00  0.00    +0.000 F 
ENDBRANCH  12  28
TORSDOF 5
ENDMDL
MODEL 7
REMARK VINA RESULT:      -7.5      3.846      7.998
REMARK  Name = 
REMARK  6 active torsions:
REMARK  status: ('A' for Active; 'I' for Inactive)
REMARK    1  A    between atoms: C_1  and  O_2
REMARK    2  A    between atoms: O_2  and  C_3
REMARK    3  A    between atoms: C_3  and  C_5
REMARK    4  A    between atoms: C_10  and  N_11
REMARK    5  A    between atoms: C_12  and  C_14
REMARK    6  A    between atoms: C_25  and  C_26
REMARK                            x       y       z     vdW  Elec       q    Type
REMARK                         _______ _______ _______ _____ _____    ______ ____
ROOT
ATOM      1  C   UNL     1       1.897   7.514  19.528  0.00  0.00    +0.000 A 
ATOM      2  C   UNL     1       1.328   6.870  20.644  0.00  0.00    +0.000 A 
ATOM      3  N   UNL     1       1.744   5.609  20.809  0.00  0.00    +0.000 NA
ATOM      4  N   UNL     1       2.599   5.386  19.771  0.00  0.00    +0.000 N 
ATOM      5  C   UNL     1       2.654   6.512  18.949  0.00  0.00    +0.000 A 
ATOM      6  N   UNL     1       3.422   6.464  17.821  0.00  0.00    +0.000 N 
ATOM      7  C   UNL     1       4.210   5.373  17.480  0.00  0.00    +0.000 C 
ATOM      8  C   UNL     1       4.955   5.298  16.392  0.00  0.00    +0.000 C 
ATOM      9  C   UNL     1       5.876   4.514  15.660  0.00  0.00    +0.000 C 
ATOM     10  C   UNL     1       5.368   5.915  15.191  0.00  0.00    +0.000 C 
ATOM     11  C   UNL     1       4.187   4.246  18.412  0.00  0.00    +0.000 C 
ATOM     12  C   UNL     1       3.387   4.260  19.502  0.00  0.00    +0.000 C 
ATOM     13  H   UNL     1       3.483   7.278  17.207  0.00  0.00    +0.000 HD
ENDROOT
BRANCH   1  15
ATOM     14  N   UNL     1       1.014   9.769  19.707  0.00  0.00    +0.000 N 
ATOM     15  C   UNL     1       1.804   8.867  19.002  0.00  0.00    +0.000 C 
ATOM     16  O   UNL     1       2.458   9.155  18.002  0.00  0.00    +0.000 OA
ATOM     17  H   UNL     1       0.662   9.498  20.620  0.00  0.00    +0.000 HD
BRANCH  14  23
ATOM     18  C   UNL     1      -0.367  11.515  18.583  0.00  0.00    +0.000 A 
ATOM     19  C   UNL     1      -0.569  12.884  18.281  0.00  0.00    +0.000 A 
ATOM     20  C   UNL     1       0.328  13.865  18.698  0.00  0.00    +0.000 A 
ATOM     21  C   UNL     1       1.457  13.489  19.404  0.00  0.00    +0.000 A 
ATOM     22  C   UNL     1       1.676  12.142  19.703  0.00  0.00    +0.000 A 
ATOM     23  C   UNL     1       0.769  11.129  19.334  0.00  0.00    +0.000 A 
BRANCH  18  24
ATOM     24  C   UNL     1      -1.445  10.614  18.075  0.00  0.00    +0.000 C 
ATOM     25  O   UNL     1      -1.217   9.654  17.353  0.00  0.00    +0.000 OA
BRANCH  24  27
ATOM     26  C   UNL     1      -3.670  10.907  17.467  0.00  0.00    +0.000 C 
ATOM     27  O   UNL     1      -2.682  10.979  18.504  0.00  0.00    +0.000 OA
ENDBRANCH  24  27
ENDBRANCH  18  24
ENDBRANCH  14  23
ENDBRANCH   1  15
BRANCH  12  28
ATOM     28  C   UNL     1       3.335   3.143  20.479  0.00  0.00    +0.000 C 
ATOM     29  F   UNL     1       2.224   2.381  20.287  0.00  0.00    +0.000 F 
ATOM     30  F   UNL     1       4.391   2.295  20.306  0.00  0.00    +0.000 F 
ENDBRANCH  12  28
TORSDOF 5
ENDMDL
MODEL 8
REMARK VINA RESULT:      -7.5      3.497      7.772
REMARK  Name = 
REMARK  6 active torsions:
REMARK  status: ('A' for Active; 'I' for Inactive)
REMARK    1  A    between atoms: C_1  and  O_2
REMARK    2  A    between atoms: O_2  and  C_3
REMARK    3  A    between atoms: C_3  and  C_5
REMARK    4  A    between atoms: C_10  and  N_11
REMARK    5  A    between atoms: C_12  and  C_14
REMARK    6  A    between atoms: C_25  and  C_26
REMARK                            x       y       z     vdW  Elec       q    Type
REMARK                         _______ _______ _______ _____ _____    ______ ____
ROOT
ATOM      1  C   UNL     1       2.300   6.377  19.418  0.00  0.00    +0.000 A 
ATOM      2  C   UNL     1       1.775   5.556  20.435  0.00  0.00    +0.000 A 
ATOM      3  N   UNL     1       2.198   4.288  20.377  0.00  0.00    +0.000 NA
ATOM      4  N   UNL     1       3.012   4.242  19.285  0.00  0.00    +0.000 N 
ATOM      5  C   UNL     1       3.034   5.487  18.655  0.00  0.00    +0.000 A 
ATOM      6  N   UNL     1       3.757   5.627  17.505  0.00  0.00    +0.000 N 
ATOM      7  C   UNL     1       4.532   4.612  16.962  0.00  0.00    +0.000 C 
ATOM      8  C   UNL     1       5.234   4.719  15.848  0.00  0.00    +0.000 C 
ATOM      9  C   UNL     1       6.126   4.070  14.963  0.00  0.00    +0.000 C 
ATOM     10  C   UNL     1       5.599   5.525  14.748  0.00  0.00    +0.000 C 
ATOM     11  C   UNL     1       4.546   3.348  17.698  0.00  0.00    +0.000 C 
ATOM     12  C   UNL     1       3.790   3.180  18.806  0.00  0.00    +0.000 C 
ATOM     13  H   UNL     1       3.794   6.531  17.030  0.00  0.00    +0.000 HD
ENDROOT
BRANCH   1  15
ATOM     14  N   UNL     1       1.367   8.553  19.953  0.00  0.00    +0.000 N 
ATOM     15  C   UNL     1       2.187   7.796  19.122  0.00  0.00    +0.000 C 
ATOM     16  O   UNL     1       2.848   8.259  18.195  0.00  0.00    +0.000 OA
ATOM     17  H   UNL     1       1.007   8.128  20.801  0.00  0.00    +0.000 HD
BRANCH  14  23
ATOM     18  C   UNL     1       0.390  10.693  20.781  0.00  0.00    +0.000 A 
ATOM     19  C   UNL     1       0.193  12.082  20.593  0.00  0.00    +0.000 A 
ATOM     20  C   UNL     1       0.675  12.742  19.465  0.00  0.00    +0.000 A 
ATOM     21  C   UNL     1       1.342  12.017  18.494  0.00  0.00    +0.000 A 
ATOM     22  C   UNL     1       1.536  10.644  18.660  0.00  0.00    +0.000 A 
ATOM     23  C   UNL     1       1.099   9.952  19.806  0.00  0.00    +0.000 A 
BRANCH  18  24
ATOM     24  C   UNL     1      -0.177  10.166  22.060  0.00  0.00    +0.000 C 
ATOM     25  O   UNL     1      -0.436   8.983  22.230  0.00  0.00    +0.000 OA
BRANCH  24  27
ATOM     26  C   UNL     1      -1.748  11.394  23.254  0.00  0.00    +0.000 C 
ATOM     27  O   UNL     1      -0.362  11.136  22.993  0.00  0.00    +0.000 OA
ENDBRANCH  24  27
ENDBRANCH  18  24
ENDBRANCH  14  23
ENDBRANCH   1  15
BRANCH  12  28
ATOM     28  C   UNL     1       3.776   1.919  19.591  0.00  0.00    +0.000 C 
ATOM     29  F   UNL     1       3.985   0.843  18.785  0.00  0.00    +0.000 F 
ATOM     30  F   UNL     1       4.799   1.898  20.496  0.00  0.00    +0.000 F 
ENDBRANCH  12  28
TORSDOF 5
ENDMDL
MODEL 9
REMARK VINA RESULT:      -7.5      3.612      5.778
REMARK  Name = 
REMARK  6 active torsions:
REMARK  status: ('A' for Active; 'I' for Inactive)
REMARK    1  A    between atoms: C_1  and  O_2
REMARK    2  A    between atoms: O_2  and  C_3
REMARK    3  A    between atoms: C_3  and  C_5
REMARK    4  A    between atoms: C_10  and  N_11
REMARK    5  A    between atoms: C_12  and  C_14
REMARK    6  A    between atoms: C_25  and  C_26
REMARK                            x       y       z     vdW  Elec       q    Type
REMARK                         _______ _______ _______ _____ _____    ______ ____
ROOT
ATOM      1  C   UNL     1       1.895   7.730  19.691  0.00  0.00    +0.000 A 
ATOM      2  C   UNL     1       1.474   6.986  20.810  0.00  0.00    +0.000 A 
ATOM      3  N   UNL     1       0.785   7.702  21.706  0.00  0.00    +0.000 NA
ATOM      4  N   UNL     1       0.755   8.964  21.193  0.00  0.00    +0.000 N 
ATOM      5  C   UNL     1       1.479   9.012  20.001  0.00  0.00    +0.000 A 
ATOM      6  N   UNL     1       1.609  10.210  19.360  0.00  0.00    +0.000 N 
ATOM      7  C   UNL     1       0.999  11.379  19.795  0.00  0.00    +0.000 C 
ATOM      8  C   UNL     1       1.116  12.551  19.198  0.00  0.00    +0.000 C 
ATOM      9  C   UNL     1       0.721  13.909  19.206  0.00  0.00    +0.000 C 
ATOM     10  C   UNL     1       1.701  13.299  18.153  0.00  0.00    +0.000 C 
ATOM     11  C   UNL     1       0.182  11.268  21.002  0.00  0.00    +0.000 C 
ATOM     12  C   UNL     1       0.092  10.100  21.677  0.00  0.00    +0.000 C 
ATOM     13  H   UNL     1       2.129  10.268  18.482  0.00  0.00    +0.000 HD
ENDROOT
BRANCH   1  15
ATOM     14  N   UNL     1       3.415   6.258  18.500  0.00  0.00    +0.000 N 
ATOM     15  C   UNL     1       2.592   7.379  18.463  0.00  0.00    +0.000 C 
ATOM     16  O   UNL     1       2.384   8.052  17.456  0.00  0.00    +0.000 OA
ATOM     17  H   UNL     1       3.383   5.656  19.316  0.00  0.00    +0.000 HD
BRANCH  14  23
ATOM     18  C   UNL     1       4.101   4.446  16.930  0.00  0.00    +0.000 A 
ATOM     19  C   UNL     1       4.887   4.041  15.823  0.00  0.00    +0.000 A 
ATOM     20  C   UNL     1       5.772   4.916  15.197  0.00  0.00    +0.000 A 
ATOM     21  C   UNL     1       5.903   6.204  15.683  0.00  0.00    +0.000 A 
ATOM     22  C   UNL     1       5.142   6.617  16.779  0.00  0.00    +0.000 A 
ATOM     23  C   UNL     1       4.208   5.773  17.411  0.00  0.00    +0.000 A 
BRANCH  18  24
ATOM     24  C   UNL     1       3.194   3.380  17.455  0.00  0.00    +0.000 C 
ATOM     25  O   UNL     1       3.608   2.311  17.880  0.00  0.00    +0.000 OA
BRANCH  24  27
ATOM     26  C   UNL     1       1.167   3.368  18.594  0.00  0.00    +0.000 C 
ATOM     27  O   UNL     1       1.883   3.735  17.407  0.00  0.00    +0.000 OA
ENDBRANCH  24  27
ENDBRANCH  18  24
ENDBRANCH  14  23
ENDBRANCH   1  15
BRANCH  12  28
ATOM     28  C   UNL     1      -0.730   9.936  22.903  0.00  0.00    +0.000 C 
ATOM     29  F   UNL     1       0.025   9.473  23.936  0.00  0.00    +0.000 F 
ATOM     30  F   UNL     1      -1.220  11.140  23.324  0.00  0.00    +0.000 F 
ENDBRANCH  12  28
TORSDOF 5
ENDMDL
