MODEL 1
REMARK VINA RESULT:      -7.8      0.000      0.000
REMARK  Name = 
REMARK  13 active torsions:
REMARK  status: ('A' for Active; 'I' for Inactive)
REMARK    1  A    between atoms: C_1  and  C_2
REMARK    2  A    between atoms: C_2  and  C_3
REMARK    3  A    between atoms: C_2  and  O_4
REMARK    4  A    between atoms: O_4  and  C_5
REMARK    5  A    between atoms: C_5  and  C_6
REMARK    6  A    between atoms: C_5  and  C_27
REMARK    7  A    between atoms: C_6  and  C_7
REMARK    8  A    between atoms: C_10  and  O_11
REMARK    9  A    between atoms: O_11  and  C_12
REMARK   10  A    between atoms: C_12  and  C_13
REMARK   11  A    between atoms: C_13  and  C_14
REMARK   12  A    between atoms: C_17  and  C_18
REMARK   13  A    between atoms: C_27  and  O_29
REMARK                            x       y       z     vdW  Elec       q    Type
REMARK                         _______ _______ _______ _____ _____    ______ ____
ROOT
ATOM      1  C   UNL     1       1.170   9.422  18.954  0.00  0.00    +0.000 A 
ATOM      2  C   UNL     1       1.945   8.576  18.177  0.00  0.00    +0.000 A 
ATOM      3  C   UNL     1       2.449   7.371  18.687  0.00  0.00    +0.000 A 
ATOM      4  C   UNL     1       2.129   6.903  19.966  0.00  0.00    +0.000 A 
ATOM      5  C   UNL     1       1.413   7.772  20.780  0.00  0.00    +0.000 A 
ATOM      6  C   UNL     1       1.078   9.071  20.324  0.00  0.00    +0.000 A 
ENDROOT
BRANCH   1   7
ATOM      7  C   UNL     1       0.370  10.591  18.351  0.00  0.00    +0.000 C 
BRANCH   7   8
ATOM      8  C   UNL     1      -1.012  11.153  18.943  0.00  0.00    +0.000 C 
BRANCH   8   9
ATOM      9  C   UNL     1      -1.117  12.677  18.779  0.00  0.00    +0.000 C 
ATOM     10  O   UNL     1      -0.399  13.321  18.065  0.00  0.00    +0.000 OA
BRANCH   9  11
ATOM     11  O   UNL     1      -2.078  13.276  19.562  0.00  0.00    +0.000 OA
ATOM     12  H   UNL     1      -1.703  13.561  20.424  0.00  0.00    +0.000 HD
ENDBRANCH   9  11
ENDBRANCH   8   9
BRANCH   8  13
ATOM     13  O   UNL     1      -2.285  10.651  18.476  0.00  0.00    +0.000 OA
BRANCH  13  15
ATOM     14  C   UNL     1      -2.523   9.894  16.058  0.00  0.00    +0.000 C 
ATOM     15  C   UNL     1      -2.649  10.967  17.138  0.00  0.00    +0.000 C 
ATOM     16  C   UNL     1      -4.103  11.457  17.150  0.00  0.00    +0.000 C 
ENDBRANCH  13  15
ENDBRANCH   8  13
ENDBRANCH   7   8
ENDBRANCH   1   7
BRANCH   4  17
ATOM     17  O   UNL     1       2.533   5.671  20.444  0.00  0.00    +0.000 OA
BRANCH  17  18
ATOM     18  C   UNL     1       1.542   4.625  20.276  0.00  0.00    +0.000 C 
BRANCH  18  19
ATOM     19  C   UNL     1       2.094   3.325  19.703  0.00  0.00    +0.000 C 
BRANCH  19  20
ATOM     20  C   UNL     1       3.482   3.502  19.178  0.00  0.00    +0.000 A 
ATOM     21  N   UNL     1       4.562   3.125  19.887  0.00  0.00    +0.000 NA
ATOM     22  O   UNL     1       5.621   3.467  19.054  0.00  0.00    +0.000 OA
ATOM     23  C   UNL     1       5.111   4.043  17.934  0.00  0.00    +0.000 A 
ATOM     24  N   UNL     1       3.765   4.074  17.959  0.00  0.00    +0.000 NA
BRANCH  23  25
ATOM     25  C   UNL     1       6.088   4.528  16.926  0.00  0.00    +0.000 C 
ATOM     26  C   UNL     1       5.683   5.826  16.210  0.00  0.00    +0.000 C 
ATOM     27  C   UNL     1       5.912   7.087  17.042  0.00  0.00    +0.000 C 
ATOM     28  C   UNL     1       7.337   7.160  17.579  0.00  0.00    +0.000 C 
ATOM     29  C   UNL     1       7.700   5.906  18.366  0.00  0.00    +0.000 C 
ATOM     30  C   UNL     1       7.497   4.641  17.534  0.00  0.00    +0.000 C 
ENDBRANCH  23  25
ENDBRANCH  19  20
ENDBRANCH  18  19
ENDBRANCH  17  18
ENDBRANCH   4  17
TORSDOF 11
ENDMDL
MODEL 2
REMARK VINA RESULT:      -7.6      2.492      4.567
REMARK  Name = 
REMARK  13 active torsions:
REMARK  status: ('A' for Active; 'I' for Inactive)
REMARK    1  A    between atoms: C_1  and  C_2
REMARK    2  A    between atoms: C_2  and  C_3
REMARK    3  A    between atoms: C_2  and  O_4
REMARK    4  A    between atoms: O_4  and  C_5
REMARK    5  A    between atoms: C_5  and  C_6
REMARK    6  A    between atoms: C_5  and  C_27
REMARK    7  A    between atoms: C_6  and  C_7
REMARK    8  A    between atoms: C_10  and  O_11
REMARK    9  A    between atoms: O_11  and  C_12
REMARK   10  A    between atoms: C_12  and  C_13
REMARK   11  A    between atoms: C_13  and  C_14
REMARK   12  A    between atoms: C_17  and  C_18
REMARK   13  A    between atoms: C_27  and  O_29
REMARK                            x       y       z     vdW  Elec       q    Type
REMARK                         _______ _______ _______ _____ _____    ______ ____
ROOT
ATOM      1  C   UNL     1       1.128   9.029  19.586  0.00  0.00    +0.000 A 
ATOM      2  C   UNL     1       1.574   9.545  18.380  0.00  0.00    +0.000 A 
ATOM      3  C   UNL     1       2.529   8.871  17.605  0.00  0.00    +0.000 A 
ATOM      4  C   UNL     1       3.019   7.606  17.948  0.00  0.00    +0.000 A 
ATOM      5  C   UNL     1       2.635   7.110  19.188  0.00  0.00    +0.000 A 
ATOM      6  C   UNL     1       1.826   7.888  20.053  0.00  0.00    +0.000 A 
ENDROOT
BRANCH   1   7
ATOM      7  C   UNL     1      -0.113   9.584  20.310  0.00  0.00    +0.000 C 
BRANCH   7   8
ATOM      8  C   UNL     1      -0.068  10.528  21.607  0.00  0.00    +0.000 C 
BRANCH   8   9
ATOM      9  C   UNL     1       0.232   9.722  22.881  0.00  0.00    +0.000 C 
ATOM     10  O   UNL     1       1.341   9.497  23.280  0.00  0.00    +0.000 OA
BRANCH   9  11
ATOM     11  O   UNL     1      -0.880   9.220  23.520  0.00  0.00    +0.000 OA
ATOM     12  H   UNL     1      -0.940   9.559  24.439  0.00  0.00    +0.000 HD
ENDBRANCH   9  11
ENDBRANCH   8   9
BRANCH   8  13
ATOM     13  O   UNL     1       0.829  11.660  21.678  0.00  0.00    +0.000 OA
BRANCH  13  15
ATOM     14  C   UNL     1       0.652  13.236  19.688  0.00  0.00    +0.000 C 
ATOM     15  C   UNL     1       0.354  12.890  21.145  0.00  0.00    +0.000 C 
ATOM     16  C   UNL     1      -1.167  12.930  21.338  0.00  0.00    +0.000 C 
ENDBRANCH  13  15
ENDBRANCH   8  13
ENDBRANCH   7   8
ENDBRANCH   1   7
BRANCH   4  17
ATOM     17  O   UNL     1       3.882   6.886  17.144  0.00  0.00    +0.000 OA
BRANCH  17  18
ATOM     18  C   UNL     1       5.284   7.118  17.434  0.00  0.00    +0.000 C 
BRANCH  18  19
ATOM     19  C   UNL     1       6.141   5.858  17.438  0.00  0.00    +0.000 C 
BRANCH  19  20
ATOM     20  C   UNL     1       5.321   4.637  17.706  0.00  0.00    +0.000 A 
ATOM     21  N   UNL     1       5.001   3.769  16.729  0.00  0.00    +0.000 NA
ATOM     22  O   UNL     1       4.246   2.809  17.394  0.00  0.00    +0.000 OA
ATOM     23  C   UNL     1       4.144   3.181  18.698  0.00  0.00    +0.000 A 
ATOM     24  N   UNL     1       4.818   4.319  18.947  0.00  0.00    +0.000 NA
BRANCH  23  25
ATOM     25  C   UNL     1       3.328   2.306  19.580  0.00  0.00    +0.000 C 
ATOM     26  C   UNL     1       3.080   2.867  20.989  0.00  0.00    +0.000 C 
ATOM     27  C   UNL     1       1.993   3.939  21.044  0.00  0.00    +0.000 C 
ATOM     28  C   UNL     1       0.700   3.468  20.388  0.00  0.00    +0.000 C 
ATOM     29  C   UNL     1       0.940   2.999  18.958  0.00  0.00    +0.000 C 
ATOM     30  C   UNL     1       2.009   1.909  18.896  0.00  0.00    +0.000 C 
ENDBRANCH  23  25
ENDBRANCH  19  20
ENDBRANCH  18  19
ENDBRANCH  17  18
ENDBRANCH   4  17
TORSDOF 11
ENDMDL
MODEL 3
REMARK VINA RESULT:      -7.6      2.366      4.639
REMARK  Name = 
REMARK  13 active torsions:
REMARK  status: ('A' for Active; 'I' for Inactive)
REMARK    1  A    between atoms: C_1  and  C_2
REMARK    2  A    between atoms: C_2  and  C_3
REMARK    3  A    between atoms: C_2  and  O_4
REMARK    4  A    between atoms: O_4  and  C_5
REMARK    5  A    between atoms: C_5  and  C_6
REMARK    6  A    between atoms: C_5  and  C_27
REMARK    7  A    between atoms: C_6  and  C_7
REMARK    8  A    between atoms: C_10  and  O_11
REMARK    9  A    between atoms: O_11  and  C_12
REMARK   10  A    between atoms: C_12  and  C_13
REMARK   11  A    between atoms: C_13  and  C_14
REMARK   12  A    between atoms: C_17  and  C_18
REMARK   13  A    between atoms: C_27  and  O_29
REMARK                            x       y       z     vdW  Elec       q    Type
REMARK                         _______ _______ _______ _____ _____    ______ ____
ROOT
ATOM      1  C   UNL     1       1.469   8.559  19.595  0.00  0.00    +0.000 A 
ATOM      2  C   UNL     1       1.852   9.293  18.483  0.00  0.00    +0.000 A 
ATOM      3  C   UNL     1       2.762   8.781  17.547  0.00  0.00    +0.000 A 
ATOM      4  C   UNL     1       3.265   7.477  17.623  0.00  0.00    +0.000 A 
ATOM      5  C   UNL     1       2.946   6.758  18.768  0.00  0.00    +0.000 A 
ATOM      6  C   UNL     1       2.187   7.356  19.804  0.00  0.00    +0.000 A 
ENDROOT
BRANCH   1   7
ATOM      7  C   UNL     1       0.271   8.962  20.474  0.00  0.00    +0.000 C 
BRANCH   7   8
ATOM      8  C   UNL     1       0.290  10.144  21.558  0.00  0.00    +0.000 C 
BRANCH   8   9
ATOM      9  C   UNL     1       0.835   9.660  22.912  0.00  0.00    +0.000 C 
ATOM     10  O   UNL     1       0.184   9.636  23.920  0.00  0.00    +0.000 OA
BRANCH   9  11
ATOM     11  O   UNL     1       2.162   9.296  22.902  0.00  0.00    +0.000 OA
ATOM     12  H   UNL     1       2.663   9.809  22.232  0.00  0.00    +0.000 HD
ENDBRANCH   9  11
ENDBRANCH   8   9
BRANCH   8  13
ATOM     13  O   UNL     1       0.999  11.379  21.306  0.00  0.00    +0.000 OA
BRANCH  13  15
ATOM     14  C   UNL     1      -1.201  12.196  20.322  0.00  0.00    +0.000 C 
ATOM     15  C   UNL     1       0.256  12.437  20.712  0.00  0.00    +0.000 C 
ATOM     16  C   UNL     1       0.297  13.635  21.669  0.00  0.00    +0.000 C 
ENDBRANCH  13  15
ENDBRANCH   8  13
ENDBRANCH   7   8
ENDBRANCH   1   7
BRANCH   4  17
ATOM     17  O   UNL     1       4.081   6.924  16.654  0.00  0.00    +0.000 OA
BRANCH  17  18
ATOM     18  C   UNL     1       5.491   6.950  16.993  0.00  0.00    +0.000 C 
BRANCH  18  19
ATOM     19  C   UNL     1       6.177   5.590  16.927  0.00  0.00    +0.000 C 
BRANCH  19  20
ATOM     20  C   UNL     1       5.629   4.649  17.949  0.00  0.00    +0.000 A 
ATOM     21  N   UNL     1       6.297   4.364  19.082  0.00  0.00    +0.000 NA
ATOM     22  O   UNL     1       5.456   3.466  19.728  0.00  0.00    +0.000 OA
ATOM     23  C   UNL     1       4.372   3.255  18.935  0.00  0.00    +0.000 A 
ATOM     24  N   UNL     1       4.428   3.991  17.809  0.00  0.00    +0.000 NA
BRANCH  23  25
ATOM     25  C   UNL     1       3.362   2.281  19.426  0.00  0.00    +0.000 C 
ATOM     26  C   UNL     1       2.975   2.447  20.903  0.00  0.00    +0.000 C 
ATOM     27  C   UNL     1       1.997   3.592  21.161  0.00  0.00    +0.000 C 
ATOM     28  C   UNL     1       0.770   3.501  20.262  0.00  0.00    +0.000 C 
ATOM     29  C   UNL     1       1.161   3.430  18.791  0.00  0.00    +0.000 C 
ATOM     30  C   UNL     1       2.119   2.272  18.519  0.00  0.00    +0.000 C 
ENDBRANCH  23  25
ENDBRANCH  19  20
ENDBRANCH  18  19
ENDBRANCH  17  18
ENDBRANCH   4  17
TORSDOF 11
ENDMDL
MODEL 4
REMARK VINA RESULT:      -7.3      3.361      9.375
REMARK  Name = 
REMARK  13 active torsions:
REMARK  status: ('A' for Active; 'I' for Inactive)
REMARK    1  A    between atoms: C_1  and  C_2
REMARK    2  A    between atoms: C_2  and  C_3
REMARK    3  A    between atoms: C_2  and  O_4
REMARK    4  A    between atoms: O_4  and  C_5
REMARK    5  A    between atoms: C_5  and  C_6
REMARK    6  A    between atoms: C_5  and  C_27
REMARK    7  A    between atoms: C_6  and  C_7
REMARK    8  A    between atoms: C_10  and  O_11
REMARK    9  A    between atoms: O_11  and  C_12
REMARK   10  A    between atoms: C_12  and  C_13
REMARK   11  A    between atoms: C_13  and  C_14
REMARK   12  A    between atoms: C_17  and  C_18
REMARK   13  A    between atoms: C_27  and  O_29
REMARK                            x       y       z     vdW  Elec       q    Type
REMARK                         _______ _______ _______ _____ _____    ______ ____
ROOT
ATOM      1  C   UNL     1       4.078   4.319  17.687  0.00  0.00    +0.000 A 
ATOM      2  C   UNL     1       2.708   4.259  17.486  0.00  0.00    +0.000 A 
ATOM      3  C   UNL     1       1.808   4.762  18.435  0.00  0.00    +0.000 A 
ATOM      4  C   UNL     1       2.227   5.434  19.588  0.00  0.00    +0.000 A 
ATOM      5  C   UNL     1       3.594   5.439  19.837  0.00  0.00    +0.000 A 
ATOM      6  C   UNL     1       4.484   4.754  18.973  0.00  0.00    +0.000 A 
ENDROOT
BRANCH   1   7
ATOM      7  C   UNL     1       5.088   4.047  16.557  0.00  0.00    +0.000 C 
BRANCH   7   8
ATOM      8  C   UNL     1       6.410   4.915  16.285  0.00  0.00    +0.000 C 
BRANCH   8   9
ATOM      9  C   UNL     1       6.916   4.737  14.845  0.00  0.00    +0.000 C 
ATOM     10  O   UNL     1       6.484   3.914  14.085  0.00  0.00    +0.000 OA
BRANCH   9  11
ATOM     11  O   UNL     1       7.957   5.567  14.493  0.00  0.00    +0.000 OA
ATOM     12  H   UNL     1       8.739   5.413  15.066  0.00  0.00    +0.000 HD
ENDBRANCH   9  11
ENDBRANCH   8   9
BRANCH   8  13
ATOM     13  O   UNL     1       6.423   6.345  16.497  0.00  0.00    +0.000 OA
BRANCH  13  15
ATOM     14  C   UNL     1       7.810   5.873  18.578  0.00  0.00    +0.000 C 
ATOM     15  C   UNL     1       6.936   6.805  17.741  0.00  0.00    +0.000 C 
ATOM     16  C   UNL     1       7.734   8.088  17.475  0.00  0.00    +0.000 C 
ENDBRANCH  13  15
ENDBRANCH   8  13
ENDBRANCH   7   8
ENDBRANCH   1   7
BRANCH   4  17
ATOM     17  O   UNL     1       1.353   6.025  20.480  0.00  0.00    +0.000 OA
BRANCH  17  18
ATOM     18  C   UNL     1       1.799   7.316  20.968  0.00  0.00    +0.000 C 
BRANCH  18  19
ATOM     19  C   UNL     1       1.321   8.500  20.135  0.00  0.00    +0.000 C 
BRANCH  19  20
ATOM     20  C   UNL     1       0.846   9.622  20.999  0.00  0.00    +0.000 A 
ATOM     21  N   UNL     1       0.888   9.551  22.342  0.00  0.00    +0.000 NA
ATOM     22  O   UNL     1       0.359  10.773  22.741  0.00  0.00    +0.000 OA
ATOM     23  C   UNL     1       0.014  11.469  21.625  0.00  0.00    +0.000 A 
ATOM     24  N   UNL     1       0.315  10.791  20.501  0.00  0.00    +0.000 NA
BRANCH  23  25
ATOM     25  C   UNL     1      -0.621  12.796  21.833  0.00  0.00    +0.000 C 
ATOM     26  C   UNL     1      -1.484  13.287  20.661  0.00  0.00    +0.000 C 
ATOM     27  C   UNL     1      -2.865  12.636  20.596  0.00  0.00    +0.000 C 
ATOM     28  C   UNL     1      -3.604  12.741  21.925  0.00  0.00    +0.000 C 
ATOM     29  C   UNL     1      -2.777  12.168  23.070  0.00  0.00    +0.000 C 
ATOM     30  C   UNL     1      -1.403  12.831  23.158  0.00  0.00    +0.000 C 
ENDBRANCH  23  25
ENDBRANCH  19  20
ENDBRANCH  18  19
ENDBRANCH  17  18
ENDBRANCH   4  17
TORSDOF 11
ENDMDL
MODEL 5
REMARK VINA RESULT:      -7.3      2.347      4.516
REMARK  Name = 
REMARK  13 active torsions:
REMARK  status: ('A' for Active; 'I' for Inactive)
REMARK    1  A    between atoms: C_1  and  C_2
REMARK    2  A    between atoms: C_2  and  C_3
REMARK    3  A    between atoms: C_2  and  O_4
REMARK    4  A    between atoms: O_4  and  C_5
REMARK    5  A    between atoms: C_5  and  C_6
REMARK    6  A    between atoms: C_5  and  C_27
REMARK    7  A    between atoms: C_6  and  C_7
REMARK    8  A    between atoms: C_10  and  O_11
REMARK    9  A    between atoms: O_11  and  C_12
REMARK   10  A    between atoms: C_12  and  C_13
REMARK   11  A    between atoms: C_13  and  C_14
REMARK   12  A    between atoms: C_17  and  C_18
REMARK   13  A    between atoms: C_27  and  O_29
REMARK                            x       y       z     vdW  Elec       q    Type
REMARK                         _______ _______ _______ _____ _____    ______ ____
ROOT
ATOM      1  C   UNL     1       1.215   9.222  20.139  0.00  0.00    +0.000 A 
ATOM      2  C   UNL     1       1.763   7.966  20.346  0.00  0.00    +0.000 A 
ATOM      3  C   UNL     1       2.415   7.274  19.316  0.00  0.00    +0.000 A 
ATOM      4  C   UNL     1       2.636   7.836  18.054  0.00  0.00    +0.000 A 
ATOM      5  C   UNL     1       2.032   9.063  17.811  0.00  0.00    +0.000 A 
ATOM      6  C   UNL     1       1.207   9.665  18.793  0.00  0.00    +0.000 A 
ENDROOT
BRANCH   1   7
ATOM      7  C   UNL     1       0.757  10.122  21.301  0.00  0.00    +0.000 C 
BRANCH   7   8
ATOM      8  C   UNL     1      -0.403  11.225  21.199  0.00  0.00    +0.000 C 
BRANCH   8   9
ATOM      9  C   UNL     1      -1.047  11.496  22.568  0.00  0.00    +0.000 C 
ATOM     10  O   UNL     1      -1.009  10.722  23.485  0.00  0.00    +0.000 OA
BRANCH   9  11
ATOM     11  O   UNL     1      -1.731  12.687  22.658  0.00  0.00    +0.000 OA
ATOM     12  H   UNL     1      -1.112  13.449  22.667  0.00  0.00    +0.000 HD
ENDBRANCH   9  11
ENDBRANCH   8   9
BRANCH   8  13
ATOM     13  O   UNL     1      -0.140  12.540  20.659  0.00  0.00    +0.000 OA
BRANCH  13  15
ATOM     14  C   UNL     1       1.849  13.324  19.279  0.00  0.00    +0.000 C 
ATOM     15  C   UNL     1       1.218  12.961  20.622  0.00  0.00    +0.000 C 
ATOM     16  C   UNL     1       1.361  14.171  21.553  0.00  0.00    +0.000 C 
ENDBRANCH  13  15
ENDBRANCH   8  13
ENDBRANCH   7   8
ENDBRANCH   1   7
BRANCH   4  17
ATOM     17  O   UNL     1       3.366   7.207  17.063  0.00  0.00    +0.000 OA
BRANCH  17  18
ATOM     18  C   UNL     1       4.796   7.202  17.304  0.00  0.00    +0.000 C 
BRANCH  18  19
ATOM     19  C   UNL     1       5.484   5.884  16.968  0.00  0.00    +0.000 C 
BRANCH  19  20
ATOM     20  C   UNL     1       5.203   4.840  17.999  0.00  0.00    +0.000 A 
ATOM     21  N   UNL     1       6.176   4.336  18.781  0.00  0.00    +0.000 NA
ATOM     22  O   UNL     1       5.500   3.414  19.572  0.00  0.00    +0.000 OA
ATOM     23  C   UNL     1       4.194   3.410  19.194  0.00  0.00    +0.000 A 
ATOM     24  N   UNL     1       3.955   4.303  18.215  0.00  0.00    +0.000 NA
BRANCH  23  25
ATOM     25  C   UNL     1       3.299   2.450  19.891  0.00  0.00    +0.000 C 
ATOM     26  C   UNL     1       2.598   3.013  21.136  0.00  0.00    +0.000 C 
ATOM     27  C   UNL     1       1.398   3.904  20.820  0.00  0.00    +0.000 C 
ATOM     28  C   UNL     1       0.414   3.216  19.881  0.00  0.00    +0.000 C 
ATOM     29  C   UNL     1       1.101   2.741  18.605  0.00  0.00    +0.000 C 
ATOM     30  C   UNL     1       2.287   1.829  18.912  0.00  0.00    +0.000 C 
ENDBRANCH  23  25
ENDBRANCH  19  20
ENDBRANCH  18  19
ENDBRANCH  17  18
ENDBRANCH   4  17
TORSDOF 11
ENDMDL
MODEL 6
REMARK VINA RESULT:      -7.2      2.473      4.637
REMARK  Name = 
REMARK  13 active torsions:
REMARK  status: ('A' for Active; 'I' for Inactive)
REMARK    1  A    between atoms: C_1  and  C_2
REMARK    2  A    between atoms: C_2  and  C_3
REMARK    3  A    between atoms: C_2  and  O_4
REMARK    4  A    between atoms: O_4  and  C_5
REMARK    5  A    between atoms: C_5  and  C_6
REMARK    6  A    between atoms: C_5  and  C_27
REMARK    7  A    between atoms: C_6  and  C_7
REMARK    8  A    between atoms: C_10  and  O_11
REMARK    9  A    between atoms: O_11  and  C_12
REMARK   10  A    between atoms: C_12  and  C_13
REMARK   11  A    between atoms: C_13  and  C_14
REMARK   12  A    between atoms: C_17  and  C_18
REMARK   13  A    between atoms: C_27  and  O_29
REMARK                            x       y       z     vdW  Elec       q    Type
REMARK                         _______ _______ _______ _____ _____    ______ ____
ROOT
ATOM      1  C   UNL     1       1.494   7.848  19.827  0.00  0.00    +0.000 A 
ATOM      2  C   UNL     1       2.372   6.786  19.975  0.00  0.00    +0.000 A 
ATOM      3  C   UNL     1       3.440   6.591  19.088  0.00  0.00    +0.000 A 
ATOM      4  C   UNL     1       3.743   7.495  18.065  0.00  0.00    +0.000 A 
ATOM      5  C   UNL     1       2.833   8.524  17.861  0.00  0.00    +0.000 A 
ATOM      6  C   UNL     1       1.649   8.600  18.636  0.00  0.00    +0.000 A 
ENDROOT
BRANCH   1   7
ATOM      7  C   UNL     1       0.502   8.256  20.931  0.00  0.00    +0.000 C 
BRANCH   7   8
ATOM      8  C   UNL     1       0.290   9.756  21.460  0.00  0.00    +0.000 C 
BRANCH   8   9
ATOM      9  C   UNL     1       0.023   9.788  22.973  0.00  0.00    +0.000 C 
ATOM     10  O   UNL     1       0.868   9.589  23.802  0.00  0.00    +0.000 OA
BRANCH   9  11
ATOM     11  O   UNL     1      -1.290  10.015  23.322  0.00  0.00    +0.000 OA
ATOM     12  H   UNL     1      -1.718   9.190  23.637  0.00  0.00    +0.000 HD
ENDBRANCH   9  11
ENDBRANCH   8   9
BRANCH   8  13
ATOM     13  O   UNL     1       1.297  10.772  21.251  0.00  0.00    +0.000 OA
BRANCH  13  15
ATOM     14  C   UNL     1      -0.370  11.789  19.619  0.00  0.00    +0.000 C 
ATOM     15  C   UNL     1       0.989  11.800  20.317  0.00  0.00    +0.000 C 
ATOM     16  C   UNL     1       1.141  13.147  21.033  0.00  0.00    +0.000 C 
ENDBRANCH  13  15
ENDBRANCH   8  13
ENDBRANCH   7   8
ENDBRANCH   1   7
BRANCH   4  17
ATOM     17  O   UNL     1       4.852   7.371  17.249  0.00  0.00    +0.000 OA
BRANCH  17  18
ATOM     18  C   UNL     1       4.700   6.378  16.203  0.00  0.00    +0.000 C 
BRANCH  18  19
ATOM     19  C   UNL     1       5.610   5.165  16.354  0.00  0.00    +0.000 C 
BRANCH  19  20
ATOM     20  C   UNL     1       5.267   4.368  17.571  0.00  0.00    +0.000 A 
ATOM     21  N   UNL     1       6.079   4.324  18.643  0.00  0.00    +0.000 NA
ATOM     22  O   UNL     1       5.401   3.487  19.520  0.00  0.00    +0.000 OA
ATOM     23  C   UNL     1       4.260   3.070  18.910  0.00  0.00    +0.000 A 
ATOM     24  N   UNL     1       4.124   3.611  17.684  0.00  0.00    +0.000 NA
BRANCH  23  25
ATOM     25  C   UNL     1       3.404   2.120  19.667  0.00  0.00    +0.000 C 
ATOM     26  C   UNL     1       3.148   2.513  21.130  0.00  0.00    +0.000 C 
ATOM     27  C   UNL     1       2.091   3.603  21.301  0.00  0.00    +0.000 C 
ATOM     28  C   UNL     1       0.797   3.255  20.574  0.00  0.00    +0.000 C 
ATOM     29  C   UNL     1       1.048   2.957  19.101  0.00  0.00    +0.000 C 
ATOM     30  C   UNL     1       2.086   1.850  18.921  0.00  0.00    +0.000 C 
ENDBRANCH  23  25
ENDBRANCH  19  20
ENDBRANCH  18  19
ENDBRANCH  17  18
ENDBRANCH   4  17
TORSDOF 11
ENDMDL
MODEL 7
REMARK VINA RESULT:      -7.2      1.140      1.343
REMARK  Name = 
REMARK  13 active torsions:
REMARK  status: ('A' for Active; 'I' for Inactive)
REMARK    1  A    between atoms: C_1  and  C_2
REMARK    2  A    between atoms: C_2  and  C_3
REMARK    3  A    between atoms: C_2  and  O_4
REMARK    4  A    between atoms: O_4  and  C_5
REMARK    5  A    between atoms: C_5  and  C_6
REMARK    6  A    between atoms: C_5  and  C_27
REMARK    7  A    between atoms: C_6  and  C_7
REMARK    8  A    between atoms: C_10  and  O_11
REMARK    9  A    between atoms: O_11  and  C_12
REMARK   10  A    between atoms: C_12  and  C_13
REMARK   11  A    between atoms: C_13  and  C_14
REMARK   12  A    between atoms: C_17  and  C_18
REMARK   13  A    between atoms: C_27  and  O_29
REMARK                            x       y       z     vdW  Elec       q    Type
REMARK                         _______ _______ _______ _____ _____    ______ ____
ROOT
ATOM      1  C   UNL     1       1.875   8.409  19.193  0.00  0.00    +0.000 A 
ATOM      2  C   UNL     1       2.363   7.384  18.398  0.00  0.00    +0.000 A 
ATOM      3  C   UNL     1       2.397   6.058  18.854  0.00  0.00    +0.000 A 
ATOM      4  C   UNL     1       1.860   5.673  20.087  0.00  0.00    +0.000 A 
ATOM      5  C   UNL     1       1.432   6.698  20.922  0.00  0.00    +0.000 A 
ATOM      6  C   UNL     1       1.586   8.052  20.533  0.00  0.00    +0.000 A 
ENDROOT
BRANCH   1   7
ATOM      7  C   UNL     1       1.556   9.806  18.630  0.00  0.00    +0.000 C 
BRANCH   7   8
ATOM      8  C   UNL     1       0.730  10.938  19.410  0.00  0.00    +0.000 C 
BRANCH   8   9
ATOM      9  C   UNL     1       1.123  12.348  18.941  0.00  0.00    +0.000 C 
ATOM     10  O   UNL     1       1.909  12.561  18.059  0.00  0.00    +0.000 OA
BRANCH   9  11
ATOM     11  O   UNL     1       0.539  13.375  19.649  0.00  0.00    +0.000 OA
ATOM     12  H   UNL     1       0.871  14.247  19.343  0.00  0.00    +0.000 HD
ENDBRANCH   9  11
ENDBRANCH   8   9
BRANCH   8  13
ATOM     13  O   UNL     1      -0.716  10.947  19.405  0.00  0.00    +0.000 OA
BRANCH  13  15
ATOM     14  C   UNL     1      -1.686   9.840  17.330  0.00  0.00    +0.000 C 
ATOM     15  C   UNL     1      -1.354  11.090  18.142  0.00  0.00    +0.000 C 
ATOM     16  C   UNL     1      -2.655  11.872  18.359  0.00  0.00    +0.000 C 
ENDBRANCH  13  15
ENDBRANCH   8  13
ENDBRANCH   7   8
ENDBRANCH   1   7
BRANCH   4  17
ATOM     17  O   UNL     1       1.792   4.357  20.505  0.00  0.00    +0.000 OA
BRANCH  17  18
ATOM     18  C   UNL     1       1.367   3.436  19.469  0.00  0.00    +0.000 C 
BRANCH  18  19
ATOM     19  C   UNL     1       2.375   2.335  19.156  0.00  0.00    +0.000 C 
BRANCH  19  20
ATOM     20  C   UNL     1       3.708   2.901  18.787  0.00  0.00    +0.000 A 
ATOM     21  N   UNL     1       4.699   3.028  19.688  0.00  0.00    +0.000 NA
ATOM     22  O   UNL     1       5.732   3.588  18.945  0.00  0.00    +0.000 OA
ATOM     23  C   UNL     1       5.284   3.781  17.676  0.00  0.00    +0.000 A 
ATOM     24  N   UNL     1       4.018   3.349  17.523  0.00  0.00    +0.000 NA
BRANCH  23  25
ATOM     25  C   UNL     1       6.228   4.419  16.722  0.00  0.00    +0.000 C 
ATOM     26  C   UNL     1       5.678   5.663  16.009  0.00  0.00    +0.000 C 
ATOM     27  C   UNL     1       5.691   6.925  16.870  0.00  0.00    +0.000 C 
ATOM     28  C   UNL     1       7.066   7.183  17.475  0.00  0.00    +0.000 C 
ATOM     29  C   UNL     1       7.565   5.975  18.259  0.00  0.00    +0.000 C 
ATOM     30  C   UNL     1       7.579   4.713  17.398  0.00  0.00    +0.000 C 
ENDBRANCH  23  25
ENDBRANCH  19  20
ENDBRANCH  18  19
ENDBRANCH  17  18
ENDBRANCH   4  17
TORSDOF 11
ENDMDL
MODEL 8
REMARK VINA RESULT:      -7.2      3.338      8.914
REMARK  Name = 
REMARK  13 active torsions:
REMARK  status: ('A' for Active; 'I' for Inactive)
REMARK    1  A    between atoms: C_1  and  C_2
REMARK    2  A    between atoms: C_2  and  C_3
REMARK    3  A    between atoms: C_2  and  O_4
REMARK    4  A    between atoms: O_4  and  C_5
REMARK    5  A    between atoms: C_5  and  C_6
REMARK    6  A    between atoms: C_5  and  C_27
REMARK    7  A    between atoms: C_6  and  C_7
REMARK    8  A    between atoms: C_10  and  O_11
REMARK    9  A    between atoms: O_11  and  C_12
REMARK   10  A    between atoms: C_12  and  C_13
REMARK   11  A    between atoms: C_13  and  C_14
REMARK   12  A    between atoms: C_17  and  C_18
REMARK   13  A    between atoms: C_27  and  O_29
REMARK                            x       y       z     vdW  Elec       q    Type
REMARK                         _______ _______ _______ _____ _____    ______ ____
ROOT
ATOM      1  C   UNL     1       3.775   5.007  17.587  0.00  0.00    +0.000 A 
ATOM      2  C   UNL     1       3.445   6.354  17.588  0.00  0.00    +0.000 A 
ATOM      3  C   UNL     1       2.686   6.919  18.623  0.00  0.00    +0.000 A 
ATOM      4  C   UNL     1       2.298   6.193  19.754  0.00  0.00    +0.000 A 
ATOM      5  C   UNL     1       2.560   4.829  19.733  0.00  0.00    +0.000 A 
ATOM      6  C   UNL     1       3.150   4.229  18.593  0.00  0.00    +0.000 A 
ENDROOT
BRANCH   1   7
ATOM      7  C   UNL     1       4.834   4.421  16.636  0.00  0.00    +0.000 C 
BRANCH   7   8
ATOM      8  C   UNL     1       6.301   5.032  16.415  0.00  0.00    +0.000 C 
BRANCH   8   9
ATOM      9  C   UNL     1       6.877   4.636  15.046  0.00  0.00    +0.000 C 
ATOM     10  O   UNL     1       7.673   5.302  14.442  0.00  0.00    +0.000 OA
BRANCH   9  11
ATOM     11  O   UNL     1       6.371   3.467  14.524  0.00  0.00    +0.000 OA
ATOM     12  H   UNL     1       5.565   3.639  13.992  0.00  0.00    +0.000 HD
ENDBRANCH   9  11
ENDBRANCH   8   9
BRANCH   8  13
ATOM     13  O   UNL     1       6.540   6.455  16.508  0.00  0.00    +0.000 OA
BRANCH  13  15
ATOM     14  C   UNL     1       7.713   8.355  17.729  0.00  0.00    +0.000 C 
ATOM     15  C   UNL     1       7.592   6.875  17.368  0.00  0.00    +0.000 C 
ATOM     16  C   UNL     1       7.478   6.079  18.674  0.00  0.00    +0.000 C 
ENDBRANCH  13  15
ENDBRANCH   8  13
ENDBRANCH   7   8
ENDBRANCH   1   7
BRANCH   4  17
ATOM     17  O   UNL     1       1.639   6.761  20.829  0.00  0.00    +0.000 OA
BRANCH  17  18
ATOM     18  C   UNL     1       1.586   8.210  20.782  0.00  0.00    +0.000 C 
BRANCH  18  19
ATOM     19  C   UNL     1       0.294   8.807  21.328  0.00  0.00    +0.000 C 
BRANCH  19  20
ATOM     20  C   UNL     1       0.073  10.195  20.820  0.00  0.00    +0.000 A 
ATOM     21  N   UNL     1      -0.785  10.454  19.816  0.00  0.00    +0.000 NA
ATOM     22  O   UNL     1      -0.681  11.831  19.659  0.00  0.00    +0.000 OA
ATOM     23  C   UNL     1       0.240  12.290  20.547  0.00  0.00    +0.000 A 
ATOM     24  N   UNL     1       0.733  11.298  21.312  0.00  0.00    +0.000 NA
BRANCH  23  25
ATOM     25  C   UNL     1       0.537  13.746  20.511  0.00  0.00    +0.000 C 
ATOM     26  C   UNL     1       1.739  14.177  21.365  0.00  0.00    +0.000 C 
ATOM     27  C   UNL     1       3.093  13.884  20.719  0.00  0.00    +0.000 C 
ATOM     28  C   UNL     1       3.177  14.440  19.303  0.00  0.00    +0.000 C 
ATOM     29  C   UNL     1       2.030  13.934  18.436  0.00  0.00    +0.000 C 
ATOM     30  C   UNL     1       0.672  14.245  19.062  0.00  0.00    +0.000 C 
ENDBRANCH  23  25
ENDBRANCH  19  20
ENDBRANCH  18  19
ENDBRANCH  17  18
ENDBRANCH   4  17
TORSDOF 11
ENDMDL
MODEL 9
REMARK VINA RESULT:      -7.1      1.482      3.653
REMARK  Name = 
REMARK  13 active torsions:
REMARK  status: ('A' for Active; 'I' for Inactive)
REMARK    1  A    between atoms: C_1  and  C_2
REMARK    2  A    between atoms: C_2  and  C_3
REMARK    3  A    between atoms: C_2  and  O_4
REMARK    4  A    between atoms: O_4  and  C_5
REMARK    5  A    between atoms: C_5  and  C_6
REMARK    6  A    between atoms: C_5  and  C_27
REMARK    7  A    between atoms: C_6  and  C_7
REMARK    8  A    between atoms: C_10  and  O_11
REMARK    9  A    between atoms: O_11  and  C_12
REMARK   10  A    between atoms: C_12  and  C_13
REMARK   11  A    between atoms: C_13  and  C_14
REMARK   12  A    between atoms: C_17  and  C_18
REMARK   13  A    between atoms: C_27  and  O_29
REMARK                            x       y       z     vdW  Elec       q    Type
REMARK                         _______ _______ _______ _____ _____    ______ ____
ROOT
ATOM      1  C   UNL     1       0.430  10.064  19.691  0.00  0.00    +0.000 A 
ATOM      2  C   UNL     1       0.804   9.055  20.564  0.00  0.00    +0.000 A 
ATOM      3  C   UNL     1       1.627   7.998  20.150  0.00  0.00    +0.000 A 
ATOM      4  C   UNL     1       2.195   7.942  18.873  0.00  0.00    +0.000 A 
ATOM      5  C   UNL     1       1.774   8.908  17.967  0.00  0.00    +0.000 A 
ATOM      6  C   UNL     1       0.787   9.856  18.335  0.00  0.00    +0.000 A 
ENDROOT
BRANCH   1   7
ATOM      7  C   UNL     1      -0.221  11.372  20.176  0.00  0.00    +0.000 C 
BRANCH   7   8
ATOM      8  C   UNL     1      -0.928  12.450  19.220  0.00  0.00    +0.000 C 
BRANCH   8   9
ATOM      9  C   UNL     1      -0.017  13.661  18.964  0.00  0.00    +0.000 C 
ATOM     10  O   UNL     1       1.151  13.685  19.241  0.00  0.00    +0.000 OA
BRANCH   9  11
ATOM     11  O   UNL     1      -0.654  14.759  18.432  0.00  0.00    +0.000 OA
ATOM     12  H   UNL     1      -1.264  15.163  19.086  0.00  0.00    +0.000 HD
ENDBRANCH   9  11
ENDBRANCH   8   9
BRANCH   8  13
ATOM     13  O   UNL     1      -1.415  12.082  17.909  0.00  0.00    +0.000 OA
BRANCH  13  15
ATOM     14  C   UNL     1      -2.896  10.017  17.780  0.00  0.00    +0.000 C 
ATOM     15  C   UNL     1      -2.725  11.533  17.841  0.00  0.00    +0.000 C 
ATOM     16  C   UNL     1      -3.515  12.050  19.050  0.00  0.00    +0.000 C 
ENDBRANCH  13  15
ENDBRANCH   8  13
ENDBRANCH   7   8
ENDBRANCH   1   7
BRANCH   4  17
ATOM     17  O   UNL     1       3.090   6.963  18.484  0.00  0.00    +0.000 OA
BRANCH  17  18
ATOM     18  C   UNL     1       4.036   7.402  17.477  0.00  0.00    +0.000 C 
BRANCH  18  19
ATOM     19  C   UNL     1       5.217   6.459  17.273  0.00  0.00    +0.000 C 
BRANCH  19  20
ATOM     20  C   UNL     1       5.112   5.251  18.146  0.00  0.00    +0.000 A 
ATOM     21  N   UNL     1       6.174   4.764  18.814  0.00  0.00    +0.000 NA
ATOM     22  O   UNL     1       5.650   3.662  19.479  0.00  0.00    +0.000 OA
ATOM     23  C   UNL     1       4.337   3.550  19.144  0.00  0.00    +0.000 A 
ATOM     24  N   UNL     1       3.947   4.538  18.317  0.00  0.00    +0.000 NA
BRANCH  23  25
ATOM     25  C   UNL     1       3.597   2.396  19.717  0.00  0.00    +0.000 C 
ATOM     26  C   UNL     1       2.869   2.691  21.038  0.00  0.00    +0.000 C 
ATOM     27  C   UNL     1       1.554   3.450  20.862  0.00  0.00    +0.000 C 
ATOM     28  C   UNL     1       0.638   2.769  19.853  0.00  0.00    +0.000 C 
ATOM     29  C   UNL     1       1.339   2.562  18.515  0.00  0.00    +0.000 C 
ATOM     30  C   UNL     1       2.643   1.782  18.678  0.00  0.00    +0.000 C 
ENDBRANCH  23  25
ENDBRANCH  19  20
ENDBRANCH  18  19
ENDBRANCH  17  18
ENDBRANCH   4  17
TORSDOF 11
ENDMDL
