MODEL 1
REMARK VINA RESULT:      -8.0      0.000      0.000
REMARK  Name = 
REMARK  8 active torsions:
REMARK  status: ('A' for Active; 'I' for Inactive)
REMARK    1  A    between atoms: C_1  and  O_2
REMARK    2  A    between atoms: O_2  and  C_3
REMARK    3  A    between atoms: C_7  and  C_8
REMARK    4  A    between atoms: C_8  and  N_9
REMARK    5  A    between atoms: N_9  and  C_10
REMARK    6  A    between atoms: C_15  and  N_16
REMARK    7  A    between atoms: C_21  and  O_22
REMARK    8  A    between atoms: O_22  and  C_23
REMARK                            x       y       z     vdW  Elec       q    Type
REMARK                         _______ _______ _______ _____ _____    ______ ____
ROOT
ATOM      1  N   UNL     1       5.142   3.634  16.869  0.00  0.00    +0.000 N 
ATOM      2  H   UNL     1       5.586   3.935  17.746  0.00  0.00    +0.000 HD
ENDROOT
BRANCH   1   3
ATOM      3  C   UNL     1       5.842   4.073  15.746  0.00  0.00    +0.000 A 
ATOM      4  C   UNL     1       5.570   3.557  14.474  0.00  0.00    +0.000 A 
ATOM      5  C   UNL     1       6.325   3.936  13.365  0.00  0.00    +0.000 A 
ATOM      6  C   UNL     1       7.360   4.829  13.554  0.00  0.00    +0.000 A 
ATOM      7  N   UNL     1       7.685   5.355  14.752  0.00  0.00    +0.000 NA
ATOM      8  C   UNL     1       6.940   4.963  15.833  0.00  0.00    +0.000 A 
BRANCH   8   9
ATOM      9  N   UNL     1       7.324   5.516  17.103  0.00  0.00    +0.000 N 
ATOM     10  C   UNL     1       7.499   6.857  17.393  0.00  0.00    +0.000 A 
ATOM     11  C   UNL     1       7.914   6.946  18.699  0.00  0.00    +0.000 A 
ATOM     12  C   UNL     1       7.949   5.618  19.151  0.00  0.00    +0.000 A 
ATOM     13  N   UNL     1       7.559   4.751  18.218  0.00  0.00    +0.000 NA
ENDBRANCH   8   9
ENDBRANCH   1   3
BRANCH   1  14
ATOM     14  C   UNL     1       3.690   3.592  16.950  0.00  0.00    +0.000 C 
BRANCH  14  19
ATOM     15  C   UNL     1       2.532   4.412  20.498  0.00  0.00    +0.000 A 
ATOM     16  C   UNL     1       2.212   5.772  20.359  0.00  0.00    +0.000 A 
ATOM     17  C   UNL     1       2.287   6.400  19.122  0.00  0.00    +0.000 A 
ATOM     18  C   UNL     1       2.738   5.687  18.023  0.00  0.00    +0.000 A 
ATOM     19  C   UNL     1       3.173   4.354  18.154  0.00  0.00    +0.000 A 
ATOM     20  C   UNL     1       3.061   3.703  19.403  0.00  0.00    +0.000 A 
BRANCH  15  22
ATOM     21  C   UNL     1       1.313   2.789  21.706  0.00  0.00    +0.000 C 
ATOM     22  O   UNL     1       2.345   3.778  21.698  0.00  0.00    +0.000 OA
ENDBRANCH  15  22
BRANCH  20  23
ATOM     23  O   UNL     1       3.459   2.390  19.372  0.00  0.00    +0.000 OA
ATOM     24  C   UNL     1       4.615   1.987  20.087  0.00  0.00    +0.000 C 
ENDBRANCH  20  23
ENDBRANCH  14  19
ENDBRANCH   1  14
TORSDOF 6
ENDMDL
MODEL 2
REMARK VINA RESULT:      -7.5      0.914      1.129
REMARK  Name = 
REMARK  8 active torsions:
REMARK  status: ('A' for Active; 'I' for Inactive)
REMARK    1  A    between atoms: C_1  and  O_2
REMARK    2  A    between atoms: O_2  and  C_3
REMARK    3  A    between atoms: C_7  and  C_8
REMARK    4  A    between atoms: C_8  and  N_9
REMARK    5  A    between atoms: N_9  and  C_10
REMARK    6  A    between atoms: C_15  and  N_16
REMARK    7  A    between atoms: C_21  and  O_22
REMARK    8  A    between atoms: O_22  and  C_23
REMARK                            x       y       z     vdW  Elec       q    Type
REMARK                         _______ _______ _______ _____ _____    ______ ____
ROOT
ATOM      1  N   UNL     1       4.985   4.016  16.566  0.00  0.00    +0.000 N 
ATOM      2  H   UNL     1       5.407   4.359  17.439  0.00  0.00    +0.000 HD
ENDROOT
BRANCH   1   3
ATOM      3  C   UNL     1       5.763   4.321  15.450  0.00  0.00    +0.000 A 
ATOM      4  C   UNL     1       5.491   3.755  14.199  0.00  0.00    +0.000 A 
ATOM      5  C   UNL     1       6.317   3.996  13.103  0.00  0.00    +0.000 A 
ATOM      6  C   UNL     1       7.423   4.801  13.283  0.00  0.00    +0.000 A 
ATOM      7  N   UNL     1       7.753   5.367  14.462  0.00  0.00    +0.000 NA
ATOM      8  C   UNL     1       6.936   5.110  15.532  0.00  0.00    +0.000 A 
BRANCH   8   9
ATOM      9  N   UNL     1       7.325   5.701  16.783  0.00  0.00    +0.000 N 
ATOM     10  C   UNL     1       7.515   5.034  17.980  0.00  0.00    +0.000 A 
ATOM     11  C   UNL     1       7.828   5.974  18.931  0.00  0.00    +0.000 A 
ATOM     12  C   UNL     1       7.832   7.193  18.236  0.00  0.00    +0.000 A 
ATOM     13  N   UNL     1       7.573   7.042  16.939  0.00  0.00    +0.000 NA
ENDBRANCH   8   9
ENDBRANCH   1   3
BRANCH   1  14
ATOM     14  C   UNL     1       3.532   4.069  16.576  0.00  0.00    +0.000 C 
BRANCH  14  19
ATOM     15  C   UNL     1       1.764   4.234  19.959  0.00  0.00    +0.000 A 
ATOM     16  C   UNL     1       2.015   5.568  20.318  0.00  0.00    +0.000 A 
ATOM     17  C   UNL     1       2.671   6.430  19.449  0.00  0.00    +0.000 A 
ATOM     18  C   UNL     1       3.134   5.949  18.234  0.00  0.00    +0.000 A 
ATOM     19  C   UNL     1       2.997   4.589  17.895  0.00  0.00    +0.000 A 
ATOM     20  C   UNL     1       2.296   3.721  18.761  0.00  0.00    +0.000 A 
BRANCH  15  22
ATOM     21  C   UNL     1       1.761   2.720  21.772  0.00  0.00    +0.000 C 
ATOM     22  O   UNL     1       1.018   3.427  20.777  0.00  0.00    +0.000 OA
ENDBRANCH  15  22
BRANCH  20  23
ATOM     23  O   UNL     1       2.182   2.441  18.277  0.00  0.00    +0.000 OA
ATOM     24  C   UNL     1       3.175   1.478  18.589  0.00  0.00    +0.000 C 
ENDBRANCH  20  23
ENDBRANCH  14  19
ENDBRANCH   1  14
TORSDOF 6
ENDMDL
MODEL 3
REMARK VINA RESULT:      -7.3      1.271      1.925
REMARK  Name = 
REMARK  8 active torsions:
REMARK  status: ('A' for Active; 'I' for Inactive)
REMARK    1  A    between atoms: C_1  and  O_2
REMARK    2  A    between atoms: O_2  and  C_3
REMARK    3  A    between atoms: C_7  and  C_8
REMARK    4  A    between atoms: C_8  and  N_9
REMARK    5  A    between atoms: N_9  and  C_10
REMARK    6  A    between atoms: C_15  and  N_16
REMARK    7  A    between atoms: C_21  and  O_22
REMARK    8  A    between atoms: O_22  and  C_23
REMARK                            x       y       z     vdW  Elec       q    Type
REMARK                         _______ _______ _______ _____ _____    ______ ____
ROOT
ATOM      1  N   UNL     1       5.180   3.748  17.502  0.00  0.00    +0.000 N 
ATOM      2  H   UNL     1       5.754   4.029  18.309  0.00  0.00    +0.000 HD
ENDROOT
BRANCH   1   3
ATOM      3  C   UNL     1       5.758   4.122  16.290  0.00  0.00    +0.000 A 
ATOM      4  C   UNL     1       5.352   3.540  15.083  0.00  0.00    +0.000 A 
ATOM      5  C   UNL     1       5.986   3.853  13.882  0.00  0.00    +0.000 A 
ATOM      6  C   UNL     1       7.037   4.747  13.911  0.00  0.00    +0.000 A 
ATOM      7  N   UNL     1       7.489   5.333  15.038  0.00  0.00    +0.000 NA
ATOM      8  C   UNL     1       6.862   5.005  16.211  0.00  0.00    +0.000 A 
BRANCH   8   9
ATOM      9  N   UNL     1       7.380   5.622  17.402  0.00  0.00    +0.000 N 
ATOM     10  C   UNL     1       7.648   6.968  17.577  0.00  0.00    +0.000 A 
ATOM     11  C   UNL     1       8.176   7.124  18.836  0.00  0.00    +0.000 A 
ATOM     12  C   UNL     1       8.181   5.830  19.379  0.00  0.00    +0.000 A 
ATOM     13  N   UNL     1       7.669   4.924  18.548  0.00  0.00    +0.000 NA
ENDBRANCH   8   9
ENDBRANCH   1   3
BRANCH   1  14
ATOM     14  C   UNL     1       3.752   3.811  17.768  0.00  0.00    +0.000 C 
BRANCH  14  19
ATOM     15  C   UNL     1       2.184   6.669  19.763  0.00  0.00    +0.000 A 
ATOM     16  C   UNL     1       2.528   7.766  18.958  0.00  0.00    +0.000 A 
ATOM     17  C   UNL     1       3.182   7.585  17.746  0.00  0.00    +0.000 A 
ATOM     18  C   UNL     1       3.551   6.308  17.356  0.00  0.00    +0.000 A 
ATOM     19  C   UNL     1       3.320   5.200  18.194  0.00  0.00    +0.000 A 
ATOM     20  C   UNL     1       2.621   5.378  19.408  0.00  0.00    +0.000 A 
BRANCH  15  22
ATOM     21  C   UNL     1       1.174   8.214  21.237  0.00  0.00    +0.000 C 
ATOM     22  O   UNL     1       1.440   6.851  20.899  0.00  0.00    +0.000 OA
ENDBRANCH  15  22
BRANCH  20  23
ATOM     23  O   UNL     1       2.409   4.207  20.093  0.00  0.00    +0.000 OA
ATOM     24  C   UNL     1       1.098   3.678  20.197  0.00  0.00    +0.000 C 
ENDBRANCH  20  23
ENDBRANCH  14  19
ENDBRANCH   1  14
TORSDOF 6
ENDMDL
MODEL 4
REMARK VINA RESULT:      -7.3      1.139      1.963
REMARK  Name = 
REMARK  8 active torsions:
REMARK  status: ('A' for Active; 'I' for Inactive)
REMARK    1  A    between atoms: C_1  and  O_2
REMARK    2  A    between atoms: O_2  and  C_3
REMARK    3  A    between atoms: C_7  and  C_8
REMARK    4  A    between atoms: C_8  and  N_9
REMARK    5  A    between atoms: N_9  and  C_10
REMARK    6  A    between atoms: C_15  and  N_16
REMARK    7  A    between atoms: C_21  and  O_22
REMARK    8  A    between atoms: O_22  and  C_23
REMARK                            x       y       z     vdW  Elec       q    Type
REMARK                         _______ _______ _______ _____ _____    ______ ____
ROOT
ATOM      1  N   UNL     1       5.123   3.664  16.280  0.00  0.00    +0.000 N 
ATOM      2  H   UNL     1       5.574   2.895  16.794  0.00  0.00    +0.000 HD
ENDROOT
BRANCH   1   3
ATOM      3  C   UNL     1       5.916   4.137  15.236  0.00  0.00    +0.000 A 
ATOM      4  C   UNL     1       5.708   3.714  13.918  0.00  0.00    +0.000 A 
ATOM      5  C   UNL     1       6.553   4.124  12.888  0.00  0.00    +0.000 A 
ATOM      6  C   UNL     1       7.612   4.952  13.201  0.00  0.00    +0.000 A 
ATOM      7  N   UNL     1       7.879   5.385  14.450  0.00  0.00    +0.000 NA
ATOM      8  C   UNL     1       7.045   4.964  15.452  0.00  0.00    +0.000 A 
BRANCH   8   9
ATOM      9  N   UNL     1       7.367   5.417  16.778  0.00  0.00    +0.000 N 
ATOM     10  C   UNL     1       7.334   6.725  17.227  0.00  0.00    +0.000 A 
ATOM     11  C   UNL     1       7.760   6.724  18.532  0.00  0.00    +0.000 A 
ATOM     12  C   UNL     1       8.017   5.375  18.820  0.00  0.00    +0.000 A 
ATOM     13  N   UNL     1       7.747   4.573  17.791  0.00  0.00    +0.000 NA
ENDBRANCH   8   9
ENDBRANCH   1   3
BRANCH   1  14
ATOM     14  C   UNL     1       4.314   4.522  17.133  0.00  0.00    +0.000 C 
BRANCH  14  19
ATOM     15  C   UNL     1       1.943   3.420  19.920  0.00  0.00    +0.000 A 
ATOM     16  C   UNL     1       1.412   2.247  19.360  0.00  0.00    +0.000 A 
ATOM     17  C   UNL     1       1.870   1.768  18.139  0.00  0.00    +0.000 A 
ATOM     18  C   UNL     1       2.823   2.490  17.439  0.00  0.00    +0.000 A 
ATOM     19  C   UNL     1       3.292   3.728  17.921  0.00  0.00    +0.000 A 
ATOM     20  C   UNL     1       2.856   4.196  19.180  0.00  0.00    +0.000 A 
BRANCH  15  22
ATOM     21  C   UNL     1       1.491   2.774  22.146  0.00  0.00    +0.000 C 
ATOM     22  O   UNL     1       1.566   3.819  21.175  0.00  0.00    +0.000 OA
ENDBRANCH  15  22
BRANCH  20  23
ATOM     23  O   UNL     1       3.442   5.380  19.555  0.00  0.00    +0.000 OA
ATOM     24  C   UNL     1       2.687   6.580  19.524  0.00  0.00    +0.000 C 
ENDBRANCH  20  23
ENDBRANCH  14  19
ENDBRANCH   1  14
TORSDOF 6
ENDMDL
MODEL 5
REMARK VINA RESULT:      -7.3      1.508      2.439
REMARK  Name = 
REMARK  8 active torsions:
REMARK  status: ('A' for Active; 'I' for Inactive)
REMARK    1  A    between atoms: C_1  and  O_2
REMARK    2  A    between atoms: O_2  and  C_3
REMARK    3  A    between atoms: C_7  and  C_8
REMARK    4  A    between atoms: C_8  and  N_9
REMARK    5  A    between atoms: N_9  and  C_10
REMARK    6  A    between atoms: C_15  and  N_16
REMARK    7  A    between atoms: C_21  and  O_22
REMARK    8  A    between atoms: O_22  and  C_23
REMARK                            x       y       z     vdW  Elec       q    Type
REMARK                         _______ _______ _______ _____ _____    ______ ____
ROOT
ATOM      1  N   UNL     1       5.130   3.864  17.046  0.00  0.00    +0.000 N 
ATOM      2  H   UNL     1       5.471   4.436  17.831  0.00  0.00    +0.000 HD
ENDROOT
BRANCH   1   3
ATOM      3  C   UNL     1       5.760   4.190  15.846  0.00  0.00    +0.000 A 
ATOM      4  C   UNL     1       5.403   3.562  14.647  0.00  0.00    +0.000 A 
ATOM      5  C   UNL     1       6.088   3.828  13.462  0.00  0.00    +0.000 A 
ATOM      6  C   UNL     1       7.140   4.721  13.501  0.00  0.00    +0.000 A 
ATOM      7  N   UNL     1       7.545   5.350  14.623  0.00  0.00    +0.000 NA
ATOM      8  C   UNL     1       6.868   5.068  15.781  0.00  0.00    +0.000 A 
BRANCH   8   9
ATOM      9  N   UNL     1       7.338   5.730  16.967  0.00  0.00    +0.000 N 
ATOM     10  C   UNL     1       7.557   5.142  18.200  0.00  0.00    +0.000 A 
ATOM     11  C   UNL     1       7.952   6.133  19.066  0.00  0.00    +0.000 A 
ATOM     12  C   UNL     1       7.971   7.298  18.284  0.00  0.00    +0.000 A 
ATOM     13  N   UNL     1       7.645   7.066  17.014  0.00  0.00    +0.000 NA
ENDBRANCH   8   9
ENDBRANCH   1   3
BRANCH   1  14
ATOM     14  C   UNL     1       3.718   3.532  17.153  0.00  0.00    +0.000 C 
BRANCH  14  19
ATOM     15  C   UNL     1       2.358   6.051  19.685  0.00  0.00    +0.000 A 
ATOM     16  C   UNL     1       1.954   5.189  20.717  0.00  0.00    +0.000 A 
ATOM     17  C   UNL     1       2.192   3.823  20.640  0.00  0.00    +0.000 A 
ATOM     18  C   UNL     1       2.783   3.298  19.502  0.00  0.00    +0.000 A 
ATOM     19  C   UNL     1       3.096   4.122  18.403  0.00  0.00    +0.000 A 
ATOM     20  C   UNL     1       2.891   5.516  18.497  0.00  0.00    +0.000 A 
BRANCH  15  22
ATOM     21  C   UNL     1       1.424   7.825  20.934  0.00  0.00    +0.000 C 
ATOM     22  O   UNL     1       2.221   7.407  19.824  0.00  0.00    +0.000 OA
ENDBRANCH  15  22
BRANCH  20  23
ATOM     23  O   UNL     1       3.299   6.204  17.381  0.00  0.00    +0.000 OA
ATOM     24  C   UNL     1       4.149   7.330  17.519  0.00  0.00    +0.000 C 
ENDBRANCH  20  23
ENDBRANCH  14  19
ENDBRANCH   1  14
TORSDOF 6
ENDMDL
MODEL 6
REMARK VINA RESULT:      -7.1      1.328      1.888
REMARK  Name = 
REMARK  8 active torsions:
REMARK  status: ('A' for Active; 'I' for Inactive)
REMARK    1  A    between atoms: C_1  and  O_2
REMARK    2  A    between atoms: O_2  and  C_3
REMARK    3  A    between atoms: C_7  and  C_8
REMARK    4  A    between atoms: C_8  and  N_9
REMARK    5  A    between atoms: N_9  and  C_10
REMARK    6  A    between atoms: C_15  and  N_16
REMARK    7  A    between atoms: C_21  and  O_22
REMARK    8  A    between atoms: O_22  and  C_23
REMARK                            x       y       z     vdW  Elec       q    Type
REMARK                         _______ _______ _______ _____ _____    ______ ____
ROOT
ATOM      1  N   UNL     1       5.321   3.594  16.771  0.00  0.00    +0.000 N 
ATOM      2  H   UNL     1       5.888   3.792  17.606  0.00  0.00    +0.000 HD
ENDROOT
BRANCH   1   3
ATOM      3  C   UNL     1       5.934   4.037  15.600  0.00  0.00    +0.000 A 
ATOM      4  C   UNL     1       5.654   3.442  14.364  0.00  0.00    +0.000 A 
ATOM      5  C   UNL     1       6.328   3.830  13.208  0.00  0.00    +0.000 A 
ATOM      6  C   UNL     1       7.291   4.813  13.311  0.00  0.00    +0.000 A 
ATOM      7  N   UNL     1       7.621   5.418  14.470  0.00  0.00    +0.000 NA
ATOM      8  C   UNL     1       6.957   5.016  15.599  0.00  0.00    +0.000 A 
BRANCH   8   9
ATOM      9  N   UNL     1       7.347   5.656  16.826  0.00  0.00    +0.000 N 
ATOM     10  C   UNL     1       7.566   5.032  18.042  0.00  0.00    +0.000 A 
ATOM     11  C   UNL     1       7.869   6.009  18.958  0.00  0.00    +0.000 A 
ATOM     12  C   UNL     1       7.837   7.205  18.224  0.00  0.00    +0.000 A 
ATOM     13  N   UNL     1       7.565   7.006  16.936  0.00  0.00    +0.000 NA
ENDBRANCH   8   9
ENDBRANCH   1   3
BRANCH   1  14
ATOM     14  C   UNL     1       3.890   3.687  17.018  0.00  0.00    +0.000 C 
BRANCH  14  19
ATOM     15  C   UNL     1       2.403   6.207  19.476  0.00  0.00    +0.000 A 
ATOM     16  C   UNL     1       2.843   7.413  18.909  0.00  0.00    +0.000 A 
ATOM     17  C   UNL     1       3.537   7.425  17.706  0.00  0.00    +0.000 A 
ATOM     18  C   UNL     1       3.849   6.224  17.088  0.00  0.00    +0.000 A 
ATOM     19  C   UNL     1       3.520   4.994  17.690  0.00  0.00    +0.000 A 
ATOM     20  C   UNL     1       2.780   4.982  18.893  0.00  0.00    +0.000 A 
BRANCH  15  22
ATOM     21  C   UNL     1       1.272   7.515  21.085  0.00  0.00    +0.000 C 
ATOM     22  O   UNL     1       1.622   6.216  20.602  0.00  0.00    +0.000 OA
ENDBRANCH  15  22
BRANCH  20  23
ATOM     23  O   UNL     1       2.474   3.718  19.332  0.00  0.00    +0.000 OA
ATOM     24  C   UNL     1       1.155   3.219  19.180  0.00  0.00    +0.000 C 
ENDBRANCH  20  23
ENDBRANCH  14  19
ENDBRANCH   1  14
TORSDOF 6
ENDMDL
MODEL 7
REMARK VINA RESULT:      -7.1      1.027      1.107
REMARK  Name = 
REMARK  8 active torsions:
REMARK  status: ('A' for Active; 'I' for Inactive)
REMARK    1  A    between atoms: C_1  and  O_2
REMARK    2  A    between atoms: O_2  and  C_3
REMARK    3  A    between atoms: C_7  and  C_8
REMARK    4  A    between atoms: C_8  and  N_9
REMARK    5  A    between atoms: N_9  and  C_10
REMARK    6  A    between atoms: C_15  and  N_16
REMARK    7  A    between atoms: C_21  and  O_22
REMARK    8  A    between atoms: O_22  and  C_23
REMARK                            x       y       z     vdW  Elec       q    Type
REMARK                         _______ _______ _______ _____ _____    ______ ____
ROOT
ATOM      1  N   UNL     1       4.613   4.633  16.863  0.00  0.00    +0.000 N 
ATOM      2  H   UNL     1       5.106   4.499  17.756  0.00  0.00    +0.000 HD
ENDROOT
BRANCH   1   3
ATOM      3  C   UNL     1       5.489   4.680  15.779  0.00  0.00    +0.000 A 
ATOM      4  C   UNL     1       5.143   4.124  14.542  0.00  0.00    +0.000 A 
ATOM      5  C   UNL     1       6.050   4.098  13.484  0.00  0.00    +0.000 A 
ATOM      6  C   UNL     1       7.308   4.627  13.689  0.00  0.00    +0.000 A 
ATOM      7  N   UNL     1       7.712   5.165  14.857  0.00  0.00    +0.000 NA
ATOM      8  C   UNL     1       6.812   5.172  15.890  0.00  0.00    +0.000 A 
BRANCH   8   9
ATOM      9  N   UNL     1       7.276   5.725  17.133  0.00  0.00    +0.000 N 
ATOM     10  C   UNL     1       7.610   7.047  17.367  0.00  0.00    +0.000 A 
ATOM     11  C   UNL     1       8.051   7.139  18.664  0.00  0.00    +0.000 A 
ATOM     12  C   UNL     1       7.938   5.834  19.168  0.00  0.00    +0.000 A 
ATOM     13  N   UNL     1       7.436   4.983  18.276  0.00  0.00    +0.000 NA
ENDBRANCH   8   9
ENDBRANCH   1   3
BRANCH   1  14
ATOM     14  C   UNL     1       3.432   5.474  16.983  0.00  0.00    +0.000 C 
BRANCH  14  19
ATOM     15  C   UNL     1       1.659   4.031  20.045  0.00  0.00    +0.000 A 
ATOM     16  C   UNL     1       1.621   5.159  20.879  0.00  0.00    +0.000 A 
ATOM     17  C   UNL     1       2.084   6.391  20.434  0.00  0.00    +0.000 A 
ATOM     18  C   UNL     1       2.642   6.493  19.170  0.00  0.00    +0.000 A 
ATOM     19  C   UNL     1       2.796   5.356  18.354  0.00  0.00    +0.000 A 
ATOM     20  C   UNL     1       2.291   4.111  18.789  0.00  0.00    +0.000 A 
BRANCH  15  22
ATOM     21  C   UNL     1       1.456   2.433  21.773  0.00  0.00    +0.000 C 
ATOM     22  O   UNL     1       1.096   2.850  20.454  0.00  0.00    +0.000 OA
ENDBRANCH  15  22
BRANCH  20  23
ATOM     23  O   UNL     1       2.451   3.104  17.869  0.00  0.00    +0.000 OA
ATOM     24  C   UNL     1       3.103   1.903  18.245  0.00  0.00    +0.000 C 
ENDBRANCH  20  23
ENDBRANCH  14  19
ENDBRANCH   1  14
TORSDOF 6
ENDMDL
MODEL 8
REMARK VINA RESULT:      -7.0      3.307      5.497
REMARK  Name = 
REMARK  8 active torsions:
REMARK  status: ('A' for Active; 'I' for Inactive)
REMARK    1  A    between atoms: C_1  and  O_2
REMARK    2  A    between atoms: O_2  and  C_3
REMARK    3  A    between atoms: C_7  and  C_8
REMARK    4  A    between atoms: C_8  and  N_9
REMARK    5  A    between atoms: N_9  and  C_10
REMARK    6  A    between atoms: C_15  and  N_16
REMARK    7  A    between atoms: C_21  and  O_22
REMARK    8  A    between atoms: O_22  and  C_23
REMARK                            x       y       z     vdW  Elec       q    Type
REMARK                         _______ _______ _______ _____ _____    ______ ____
ROOT
ATOM      1  N   UNL     1       3.194   5.879  19.939  0.00  0.00    +0.000 N 
ATOM      2  H   UNL     1       3.788   6.448  19.322  0.00  0.00    +0.000 HD
ENDROOT
BRANCH   1   3
ATOM      3  C   UNL     1       3.088   4.560  19.498  0.00  0.00    +0.000 A 
ATOM      4  C   UNL     1       1.922   3.816  19.710  0.00  0.00    +0.000 A 
ATOM      5  C   UNL     1       1.847   2.473  19.343  0.00  0.00    +0.000 A 
ATOM      6  C   UNL     1       2.958   1.889  18.771  0.00  0.00    +0.000 A 
ATOM      7  N   UNL     1       4.117   2.542  18.550  0.00  0.00    +0.000 NA
ATOM      8  C   UNL     1       4.177   3.858  18.928  0.00  0.00    +0.000 A 
BRANCH   8   9
ATOM      9  N   UNL     1       5.432   4.524  18.708  0.00  0.00    +0.000 N 
ATOM     10  C   UNL     1       6.095   4.645  17.500  0.00  0.00    +0.000 A 
ATOM     11  C   UNL     1       7.275   5.305  17.740  0.00  0.00    +0.000 A 
ATOM     12  C   UNL     1       7.255   5.575  19.117  0.00  0.00    +0.000 A 
ATOM     13  N   UNL     1       6.138   5.150  19.705  0.00  0.00    +0.000 NA
ENDBRANCH   8   9
ENDBRANCH   1   3
BRANCH   1  14
ATOM     14  C   UNL     1       2.089   6.627  20.517  0.00  0.00    +0.000 C 
BRANCH  14  19
ATOM     15  C   UNL     1       0.684  10.047  19.549  0.00  0.00    +0.000 A 
ATOM     16  C   UNL     1       1.293  10.233  18.298  0.00  0.00    +0.000 A 
ATOM     17  C   UNL     1       2.079   9.238  17.732  0.00  0.00    +0.000 A 
ATOM     18  C   UNL     1       2.311   8.068  18.439  0.00  0.00    +0.000 A 
ATOM     19  C   UNL     1       1.807   7.899  19.743  0.00  0.00    +0.000 A 
ATOM     20  C   UNL     1       0.975   8.894  20.303  0.00  0.00    +0.000 A 
BRANCH  15  22
ATOM     21  C   UNL     1      -1.185  11.429  19.130  0.00  0.00    +0.000 C 
ATOM     22  O   UNL     1      -0.180  10.988  20.045  0.00  0.00    +0.000 OA
ENDBRANCH  15  22
BRANCH  20  23
ATOM     23  O   UNL     1       0.502   8.570  21.551  0.00  0.00    +0.000 OA
ATOM     24  C   UNL     1       0.956   9.290  22.685  0.00  0.00    +0.000 C 
ENDBRANCH  20  23
ENDBRANCH  14  19
ENDBRANCH   1  14
TORSDOF 6
ENDMDL
MODEL 9
REMARK VINA RESULT:      -7.0      0.918      3.064
REMARK  Name = 
REMARK  8 active torsions:
REMARK  status: ('A' for Active; 'I' for Inactive)
REMARK    1  A    between atoms: C_1  and  O_2
REMARK    2  A    between atoms: O_2  and  C_3
REMARK    3  A    between atoms: C_7  and  C_8
REMARK    4  A    between atoms: C_8  and  N_9
REMARK    5  A    between atoms: N_9  and  C_10
REMARK    6  A    between atoms: C_15  and  N_16
REMARK    7  A    between atoms: C_21  and  O_22
REMARK    8  A    between atoms: O_22  and  C_23
REMARK                            x       y       z     vdW  Elec       q    Type
REMARK                         _______ _______ _______ _____ _____    ______ ____
ROOT
ATOM      1  N   UNL     1       5.311   3.408  17.082  0.00  0.00    +0.000 N 
ATOM      2  H   UNL     1       5.652   2.616  17.642  0.00  0.00    +0.000 HD
ENDROOT
BRANCH   1   3
ATOM      3  C   UNL     1       6.129   4.530  17.204  0.00  0.00    +0.000 A 
ATOM      4  C   UNL     1       6.356   5.130  18.449  0.00  0.00    +0.000 A 
ATOM      5  C   UNL     1       7.106   6.300  18.559  0.00  0.00    +0.000 A 
ATOM      6  C   UNL     1       7.614   6.862  17.407  0.00  0.00    +0.000 A 
ATOM      7  N   UNL     1       7.423   6.346  16.175  0.00  0.00    +0.000 NA
ATOM      8  C   UNL     1       6.673   5.203  16.083  0.00  0.00    +0.000 A 
BRANCH   8   9
ATOM      9  N   UNL     1       6.461   4.688  14.758  0.00  0.00    +0.000 N 
ATOM     10  C   UNL     1       7.406   4.601  13.751  0.00  0.00    +0.000 A 
ATOM     11  C   UNL     1       6.778   4.102  12.637  0.00  0.00    +0.000 A 
ATOM     12  C   UNL     1       5.452   3.888  13.044  0.00  0.00    +0.000 A 
ATOM     13  N   UNL     1       5.255   4.195  14.325  0.00  0.00    +0.000 NA
ENDBRANCH   8   9
ENDBRANCH   1   3
BRANCH   1  14
ATOM     14  C   UNL     1       3.860   3.471  17.006  0.00  0.00    +0.000 C 
BRANCH  14  19
ATOM     15  C   UNL     1       2.534   4.306  20.491  0.00  0.00    +0.000 A 
ATOM     16  C   UNL     1       2.173   5.652  20.317  0.00  0.00    +0.000 A 
ATOM     17  C   UNL     1       2.275   6.262  19.073  0.00  0.00    +0.000 A 
ATOM     18  C   UNL     1       2.794   5.547  18.004  0.00  0.00    +0.000 A 
ATOM     19  C   UNL     1       3.270   4.233  18.176  0.00  0.00    +0.000 A 
ATOM     20  C   UNL     1       3.130   3.599  19.430  0.00  0.00    +0.000 A 
BRANCH  15  22
ATOM     21  C   UNL     1       1.287   2.699  21.693  0.00  0.00    +0.000 C 
ATOM     22  O   UNL     1       2.323   3.685  21.694  0.00  0.00    +0.000 OA
ENDBRANCH  15  22
BRANCH  20  23
ATOM     23  O   UNL     1       3.576   2.300  19.437  0.00  0.00    +0.000 OA
ATOM     24  C   UNL     1       4.674   1.936  20.257  0.00  0.00    +0.000 C 
ENDBRANCH  20  23
ENDBRANCH  14  19
ENDBRANCH   1  14
TORSDOF 6
ENDMDL
