MODEL 1
REMARK VINA RESULT:      -7.8      0.000      0.000
REMARK  Name = 
REMARK  11 active torsions:
REMARK  status: ('A' for Active; 'I' for Inactive)
REMARK    1  A    between atoms: C_1  and  C_2
REMARK    2  A    between atoms: C_2  and  C_3
REMARK    3  A    between atoms: C_2  and  C_4
REMARK    4  A    between atoms: C_2  and  C_5
REMARK    5  A    between atoms: C_8  and  O_9
REMARK    6  A    between atoms: C_10  and  C_11
REMARK    7  A    between atoms: C_17  and  C_18
REMARK    8  A    between atoms: C_22  and  C_23
REMARK    9  A    between atoms: C_23  and  C_24
REMARK   10  A    between atoms: C_23  and  C_25
REMARK   11  A    between atoms: C_23  and  C_26
REMARK                            x       y       z     vdW  Elec       q    Type
REMARK                         _______ _______ _______ _____ _____    ______ ____
ROOT
ATOM      1  C   UNL     1       2.352   6.208  20.530  0.00  0.00    +0.000 C 
ATOM      2  CA  UNL     1       1.873   7.339  19.986  0.00  0.00    +0.000 A 
ATOM      3  N   UNL     1       2.211   7.756  18.718  0.00  0.00    +0.000 N 
ATOM      4  C   UNL     1       1.795   8.919  18.131  0.00  0.00    +0.000 A 
ATOM      5  O   UNL     1       2.156   9.229  17.000  0.00  0.00    +0.000 OA
ATOM      6  CA  UNL     1       0.868   9.760  18.960  0.00  0.00    +0.000 A 
ATOM      7  C   UNL     1       0.411  10.908  18.431  0.00  0.00    +0.000 C 
ATOM      8  N   UNL     1       0.505   9.324  20.213  0.00  0.00    +0.000 N 
ATOM      9  C   UNL     1       0.932   8.173  20.814  0.00  0.00    +0.000 A 
ATOM     10  O   UNL     1       0.561   7.851  21.937  0.00  0.00    +0.000 OA
ATOM     11  H   UNL     1       2.842   7.190  18.165  0.00  0.00    +0.000 HD
ATOM     12  H   UNL     1      -0.137   9.916  20.738  0.00  0.00    +0.000 HD
ENDROOT
BRANCH   1  17
ATOM     13  C   UNL     1       5.460   4.978  18.768  0.00  0.00    +0.000 A 
ATOM     14  C   UNL     1       5.124   3.621  18.601  0.00  0.00    +0.000 A 
ATOM     15  C   UNL     1       3.898   3.109  19.044  0.00  0.00    +0.000 A 
ATOM     16  C   UNL     1       2.980   3.950  19.660  0.00  0.00    +0.000 A 
ATOM     17  C   UNL     1       3.277   5.301  19.845  0.00  0.00    +0.000 A 
ATOM     18  C   UNL     1       4.507   5.803  19.395  0.00  0.00    +0.000 A 
BRANCH  13  20
ATOM     19  C   UNL     1       7.380   4.517  17.260  0.00  0.00    +0.000 C 
ATOM     20  C   UNL     1       6.771   5.564  18.212  0.00  0.00    +0.000 C 
ATOM     21  C   UNL     1       7.806   5.886  19.313  0.00  0.00    +0.000 C 
ATOM     22  C   UNL     1       6.550   6.879  17.427  0.00  0.00    +0.000 C 
ENDBRANCH  13  20
BRANCH  16  23
ATOM     23  O   UNL     1       1.779   3.463  20.091  0.00  0.00    +0.000 OA
ATOM     24  H   UNL     1       1.905   2.564  20.435  0.00  0.00    +0.000 HD
ENDBRANCH  16  23
ENDBRANCH   1  17
BRANCH   7  25
ATOM     25  C   UNL     1      -0.527  11.801  19.028  0.00  0.00    +0.000 A 
ATOM     26  N   UNL     1      -0.114  12.675  20.005  0.00  0.00    +0.000 NA
ATOM     27  C   UNL     1      -1.195  13.310  20.381  0.00  0.00    +0.000 A 
ATOM     28  N   UNL     1      -2.285  12.893  19.677  0.00  0.00    +0.000 N 
ATOM     29  C   UNL     1      -1.889  11.912  18.787  0.00  0.00    +0.000 A 
ATOM     30  H   UNL     1      -3.223  13.245  19.806  0.00  0.00    +0.000 HD
BRANCH  29  31
ATOM     31  C   UNL     1      -2.851  11.215  17.837  0.00  0.00    +0.000 C 
ATOM     32  C   UNL     1      -2.815   9.679  18.012  0.00  0.00    +0.000 C 
ATOM     33  C   UNL     1      -4.294  11.680  18.110  0.00  0.00    +0.000 C 
ATOM     34  C   UNL     1      -2.476  11.514  16.372  0.00  0.00    +0.000 C 
ENDBRANCH  29  31
ENDBRANCH   7  25
TORSDOF 5
ENDMDL
MODEL 2
REMARK VINA RESULT:      -7.8      1.971      2.877
REMARK  Name = 
REMARK  11 active torsions:
REMARK  status: ('A' for Active; 'I' for Inactive)
REMARK    1  A    between atoms: C_1  and  C_2
REMARK    2  A    between atoms: C_2  and  C_3
REMARK    3  A    between atoms: C_2  and  C_4
REMARK    4  A    between atoms: C_2  and  C_5
REMARK    5  A    between atoms: C_8  and  O_9
REMARK    6  A    between atoms: C_10  and  C_11
REMARK    7  A    between atoms: C_17  and  C_18
REMARK    8  A    between atoms: C_22  and  C_23
REMARK    9  A    between atoms: C_23  and  C_24
REMARK   10  A    between atoms: C_23  and  C_25
REMARK   11  A    between atoms: C_23  and  C_26
REMARK                            x       y       z     vdW  Elec       q    Type
REMARK                         _______ _______ _______ _____ _____    ______ ____
ROOT
ATOM      1  C   UNL     1       2.487   6.174  19.724  0.00  0.00    +0.000 C 
ATOM      2  CA  UNL     1       2.065   7.440  19.569  0.00  0.00    +0.000 A 
ATOM      3  N   UNL     1       2.246   8.147  18.402  0.00  0.00    +0.000 N 
ATOM      4  C   UNL     1       1.882   9.450  18.202  0.00  0.00    +0.000 A 
ATOM      5  O   UNL     1       2.096  10.017  17.135  0.00  0.00    +0.000 OA
ATOM      6  CA  UNL     1       1.200  10.110  19.364  0.00  0.00    +0.000 A 
ATOM      7  C   UNL     1       0.803  11.387  19.224  0.00  0.00    +0.000 C 
ATOM      8  N   UNL     1       0.989   9.390  20.517  0.00  0.00    +0.000 N 
ATOM      9  C   UNL     1       1.368   8.094  20.731  0.00  0.00    +0.000 A 
ATOM     10  O   UNL     1       1.142   7.518  21.790  0.00  0.00    +0.000 OA
ATOM     11  H   UNL     1       2.713   7.701  17.623  0.00  0.00    +0.000 HD
ATOM     12  H   UNL     1       0.511   9.870  21.279  0.00  0.00    +0.000 HD
ENDROOT
BRANCH   1  17
ATOM     13  C   UNL     1       5.261   5.001  17.441  0.00  0.00    +0.000 A 
ATOM     14  C   UNL     1       4.597   3.957  16.768  0.00  0.00    +0.000 A 
ATOM     15  C   UNL     1       3.260   3.642  17.042  0.00  0.00    +0.000 A 
ATOM     16  C   UNL     1       2.559   4.371  17.994  0.00  0.00    +0.000 A 
ATOM     17  C   UNL     1       3.182   5.412  18.683  0.00  0.00    +0.000 A 
ATOM     18  C   UNL     1       4.521   5.721  18.399  0.00  0.00    +0.000 A 
BRANCH  13  20
ATOM     19  C   UNL     1       6.916   5.110  15.592  0.00  0.00    +0.000 C 
ATOM     20  C   UNL     1       6.704   5.405  17.089  0.00  0.00    +0.000 C 
ATOM     21  C   UNL     1       7.766   4.626  17.898  0.00  0.00    +0.000 C 
ATOM     22  C   UNL     1       6.982   6.906  17.342  0.00  0.00    +0.000 C 
ENDBRANCH  13  20
BRANCH  16  23
ATOM     23  O   UNL     1       1.253   4.076  18.264  0.00  0.00    +0.000 OA
ATOM     24  H   UNL     1       0.926   4.679  18.952  0.00  0.00    +0.000 HD
ENDBRANCH  16  23
ENDBRANCH   1  17
BRANCH   7  25
ATOM     25  C   UNL     1       0.080  12.159  20.180  0.00  0.00    +0.000 A 
ATOM     26  N   UNL     1      -1.081  11.661  20.724  0.00  0.00    +0.000 NA
ATOM     27  C   UNL     1      -1.527  12.606  21.512  0.00  0.00    +0.000 A 
ATOM     28  N   UNL     1      -0.695  13.686  21.511  0.00  0.00    +0.000 N 
ATOM     29  C   UNL     1       0.361  13.431  20.657  0.00  0.00    +0.000 A 
ATOM     30  H   UNL     1      -0.847  14.531  22.044  0.00  0.00    +0.000 HD
BRANCH  29  31
ATOM     31  C   UNL     1       1.487  14.424  20.406  0.00  0.00    +0.000 C 
ATOM     32  C   UNL     1       1.578  14.820  18.915  0.00  0.00    +0.000 C 
ATOM     33  C   UNL     1       1.244  15.712  21.215  0.00  0.00    +0.000 C 
ATOM     34  C   UNL     1       2.846  13.811  20.799  0.00  0.00    +0.000 C 
ENDBRANCH  29  31
ENDBRANCH   7  25
TORSDOF 5
ENDMDL
MODEL 3
REMARK VINA RESULT:      -7.7      1.965      3.018
REMARK  Name = 
REMARK  11 active torsions:
REMARK  status: ('A' for Active; 'I' for Inactive)
REMARK    1  A    between atoms: C_1  and  C_2
REMARK    2  A    between atoms: C_2  and  C_3
REMARK    3  A    between atoms: C_2  and  C_4
REMARK    4  A    between atoms: C_2  and  C_5
REMARK    5  A    between atoms: C_8  and  O_9
REMARK    6  A    between atoms: C_10  and  C_11
REMARK    7  A    between atoms: C_17  and  C_18
REMARK    8  A    between atoms: C_22  and  C_23
REMARK    9  A    between atoms: C_23  and  C_24
REMARK   10  A    between atoms: C_23  and  C_25
REMARK   11  A    between atoms: C_23  and  C_26
REMARK                            x       y       z     vdW  Elec       q    Type
REMARK                         _______ _______ _______ _____ _____    ______ ____
ROOT
ATOM      1  C   UNL     1       2.432   6.235  19.798  0.00  0.00    +0.000 C 
ATOM      2  CA  UNL     1       2.024   7.503  19.625  0.00  0.00    +0.000 A 
ATOM      3  N   UNL     1       2.201   8.186  18.443  0.00  0.00    +0.000 N 
ATOM      4  C   UNL     1       1.851   9.490  18.224  0.00  0.00    +0.000 A 
ATOM      5  O   UNL     1       2.059  10.035  17.145  0.00  0.00    +0.000 OA
ATOM      6  CA  UNL     1       1.191  10.181  19.382  0.00  0.00    +0.000 A 
ATOM      7  C   UNL     1       0.808  11.460  19.223  0.00  0.00    +0.000 C 
ATOM      8  N   UNL     1       0.984   9.484  20.550  0.00  0.00    +0.000 N 
ATOM      9  C   UNL     1       1.349   8.187  20.783  0.00  0.00    +0.000 A 
ATOM     10  O   UNL     1       1.128   7.633  21.855  0.00  0.00    +0.000 OA
ATOM     11  H   UNL     1       2.653   7.721  17.667  0.00  0.00    +0.000 HD
ATOM     12  H   UNL     1       0.521   9.983  21.308  0.00  0.00    +0.000 HD
ENDROOT
BRANCH   1  17
ATOM     13  C   UNL     1       5.149   5.020  17.469  0.00  0.00    +0.000 A 
ATOM     14  C   UNL     1       4.480   3.942  16.857  0.00  0.00    +0.000 A 
ATOM     15  C   UNL     1       3.158   3.618  17.186  0.00  0.00    +0.000 A 
ATOM     16  C   UNL     1       2.477   4.371  18.134  0.00  0.00    +0.000 A 
ATOM     17  C   UNL     1       3.105   5.445  18.763  0.00  0.00    +0.000 A 
ATOM     18  C   UNL     1       4.428   5.764  18.424  0.00  0.00    +0.000 A 
BRANCH  13  20
ATOM     19  C   UNL     1       6.728   6.935  17.362  0.00  0.00    +0.000 C 
ATOM     20  C   UNL     1       6.572   5.433  17.054  0.00  0.00    +0.000 C 
ATOM     21  C   UNL     1       6.855   5.208  15.552  0.00  0.00    +0.000 C 
ATOM     22  C   UNL     1       7.667   4.654  17.822  0.00  0.00    +0.000 C 
ENDBRANCH  13  20
BRANCH  16  23
ATOM     23  O   UNL     1       1.185   4.066  18.458  0.00  0.00    +0.000 OA
ATOM     24  H   UNL     1       0.597   4.748  18.096  0.00  0.00    +0.000 HD
ENDBRANCH  16  23
ENDBRANCH   1  17
BRANCH   7  25
ATOM     25  C   UNL     1       0.106  12.258  20.173  0.00  0.00    +0.000 A 
ATOM     26  N   UNL     1      -1.066  11.794  20.723  0.00  0.00    +0.000 NA
ATOM     27  C   UNL     1      -1.487  12.757  21.504  0.00  0.00    +0.000 A 
ATOM     28  N   UNL     1      -0.628  13.815  21.491  0.00  0.00    +0.000 N 
ATOM     29  C   UNL     1       0.420  13.527  20.638  0.00  0.00    +0.000 A 
ATOM     30  H   UNL     1      -0.758  14.669  22.017  0.00  0.00    +0.000 HD
BRANCH  29  31
ATOM     31  C   UNL     1       1.569  14.489  20.377  0.00  0.00    +0.000 C 
ATOM     32  C   UNL     1       2.929  13.882  20.793  0.00  0.00    +0.000 C 
ATOM     33  C   UNL     1       1.649  14.821  18.875  0.00  0.00    +0.000 C 
ATOM     34  C   UNL     1       1.383  15.787  21.188  0.00  0.00    +0.000 C 
ENDBRANCH  29  31
ENDBRANCH   7  25
TORSDOF 5
ENDMDL
MODEL 4
REMARK VINA RESULT:      -7.7      0.165      1.115
REMARK  Name = 
REMARK  11 active torsions:
REMARK  status: ('A' for Active; 'I' for Inactive)
REMARK    1  A    between atoms: C_1  and  C_2
REMARK    2  A    between atoms: C_2  and  C_3
REMARK    3  A    between atoms: C_2  and  C_4
REMARK    4  A    between atoms: C_2  and  C_5
REMARK    5  A    between atoms: C_8  and  O_9
REMARK    6  A    between atoms: C_10  and  C_11
REMARK    7  A    between atoms: C_17  and  C_18
REMARK    8  A    between atoms: C_22  and  C_23
REMARK    9  A    between atoms: C_23  and  C_24
REMARK   10  A    between atoms: C_23  and  C_25
REMARK   11  A    between atoms: C_23  and  C_26
REMARK                            x       y       z     vdW  Elec       q    Type
REMARK                         _______ _______ _______ _____ _____    ______ ____
ROOT
ATOM      1  C   UNL     1       2.279   6.250  20.625  0.00  0.00    +0.000 C 
ATOM      2  CA  UNL     1       1.831   7.375  20.043  0.00  0.00    +0.000 A 
ATOM      3  N   UNL     1       2.209   7.758  18.776  0.00  0.00    +0.000 N 
ATOM      4  C   UNL     1       1.825   8.913  18.151  0.00  0.00    +0.000 A 
ATOM      5  O   UNL     1       2.222   9.193  17.025  0.00  0.00    +0.000 OA
ATOM      6  CA  UNL     1       0.888   9.784  18.935  0.00  0.00    +0.000 A 
ATOM      7  C   UNL     1       0.461  10.927  18.368  0.00  0.00    +0.000 C 
ATOM      8  N   UNL     1       0.484   9.381  20.187  0.00  0.00    +0.000 N 
ATOM      9  C   UNL     1       0.878   8.239  20.825  0.00  0.00    +0.000 A 
ATOM     10  O   UNL     1       0.472   7.947  21.945  0.00  0.00    +0.000 OA
ATOM     11  H   UNL     1       2.847   7.172  18.253  0.00  0.00    +0.000 HD
ATOM     12  H   UNL     1      -0.164   9.994  20.681  0.00  0.00    +0.000 HD
ENDROOT
BRANCH   1  17
ATOM     13  C   UNL     1       5.361   4.969  18.854  0.00  0.00    +0.000 A 
ATOM     14  C   UNL     1       5.069   3.592  18.823  0.00  0.00    +0.000 A 
ATOM     15  C   UNL     1       3.880   3.083  19.360  0.00  0.00    +0.000 A 
ATOM     16  C   UNL     1       2.956   3.945  19.936  0.00  0.00    +0.000 A 
ATOM     17  C   UNL     1       3.210   5.316  19.987  0.00  0.00    +0.000 A 
ATOM     18  C   UNL     1       4.403   5.816  19.443  0.00  0.00    +0.000 A 
BRANCH  13  20
ATOM     19  C   UNL     1       7.657   5.800  19.311  0.00  0.00    +0.000 C 
ATOM     20  C   UNL     1       6.627   5.546  18.194  0.00  0.00    +0.000 C 
ATOM     21  C   UNL     1       6.371   6.876  17.451  0.00  0.00    +0.000 C 
ATOM     22  C   UNL     1       7.250   4.583  17.156  0.00  0.00    +0.000 C 
ENDBRANCH  13  20
BRANCH  16  23
ATOM     23  O   UNL     1       1.791   3.459  20.457  0.00  0.00    +0.000 OA
ATOM     24  H   UNL     1       1.964   2.602  20.878  0.00  0.00    +0.000 HD
ENDBRANCH  16  23
ENDBRANCH   1  17
BRANCH   7  25
ATOM     25  C   UNL     1      -0.482  11.844  18.919  0.00  0.00    +0.000 A 
ATOM     26  N   UNL     1      -0.071  12.773  19.846  0.00  0.00    +0.000 NA
ATOM     27  C   UNL     1      -1.155  13.421  20.190  0.00  0.00    +0.000 A 
ATOM     28  N   UNL     1      -2.244  12.959  19.513  0.00  0.00    +0.000 N 
ATOM     29  C   UNL     1      -1.845  11.934  18.677  0.00  0.00    +0.000 A 
ATOM     30  H   UNL     1      -3.184  13.312  19.625  0.00  0.00    +0.000 HD
BRANCH  29  31
ATOM     31  C   UNL     1      -2.805  11.180  17.768  0.00  0.00    +0.000 C 
ATOM     32  C   UNL     1      -2.467  11.395  16.275  0.00  0.00    +0.000 C 
ATOM     33  C   UNL     1      -2.721   9.668  18.051  0.00  0.00    +0.000 C 
ATOM     34  C   UNL     1      -4.251  11.671  17.983  0.00  0.00    +0.000 C 
ENDBRANCH  29  31
ENDBRANCH   7  25
TORSDOF 5
ENDMDL
MODEL 5
REMARK VINA RESULT:      -7.7      1.639      2.671
REMARK  Name = 
REMARK  11 active torsions:
REMARK  status: ('A' for Active; 'I' for Inactive)
REMARK    1  A    between atoms: C_1  and  C_2
REMARK    2  A    between atoms: C_2  and  C_3
REMARK    3  A    between atoms: C_2  and  C_4
REMARK    4  A    between atoms: C_2  and  C_5
REMARK    5  A    between atoms: C_8  and  O_9
REMARK    6  A    between atoms: C_10  and  C_11
REMARK    7  A    between atoms: C_17  and  C_18
REMARK    8  A    between atoms: C_22  and  C_23
REMARK    9  A    between atoms: C_23  and  C_24
REMARK   10  A    between atoms: C_23  and  C_25
REMARK   11  A    between atoms: C_23  and  C_26
REMARK                            x       y       z     vdW  Elec       q    Type
REMARK                         _______ _______ _______ _____ _____    ______ ____
ROOT
ATOM      1  C   UNL     1       2.379   6.395  20.105  0.00  0.00    +0.000 C 
ATOM      2  CA  UNL     1       1.942   7.629  19.801  0.00  0.00    +0.000 A 
ATOM      3  N   UNL     1       2.240   8.251  18.610  0.00  0.00    +0.000 N 
ATOM      4  C   UNL     1       1.864   9.520  18.266  0.00  0.00    +0.000 A 
ATOM      5  O   UNL     1       2.186  10.012  17.189  0.00  0.00    +0.000 OA
ATOM      6  CA  UNL     1       1.031  10.241  19.285  0.00  0.00    +0.000 A 
ATOM      7  C   UNL     1       0.616  11.488  18.997  0.00  0.00    +0.000 C 
ATOM      8  N   UNL     1       0.706   9.603  20.459  0.00  0.00    +0.000 N 
ATOM      9  C   UNL     1       1.093   8.343  20.819  0.00  0.00    +0.000 A 
ATOM     10  O   UNL     1       0.760   7.841  21.887  0.00  0.00    +0.000 OA
ATOM     11  H   UNL     1       2.808   7.765  17.929  0.00  0.00    +0.000 HD
ATOM     12  H   UNL     1       0.127  10.121  21.119  0.00  0.00    +0.000 HD
ENDROOT
BRANCH   1  17
ATOM     13  C   UNL     1       5.440   5.146  18.276  0.00  0.00    +0.000 A 
ATOM     14  C   UNL     1       4.886   4.041  17.602  0.00  0.00    +0.000 A 
ATOM     15  C   UNL     1       3.532   3.708  17.729  0.00  0.00    +0.000 A 
ATOM     16  C   UNL     1       2.703   4.481  18.532  0.00  0.00    +0.000 A 
ATOM     17  C   UNL     1       3.214   5.583  19.216  0.00  0.00    +0.000 A 
ATOM     18  C   UNL     1       4.572   5.909  19.079  0.00  0.00    +0.000 A 
BRANCH  13  20
ATOM     19  C   UNL     1       7.571   4.516  17.163  0.00  0.00    +0.000 C 
ATOM     20  C   UNL     1       6.908   5.565  18.077  0.00  0.00    +0.000 C 
ATOM     21  C   UNL     1       7.703   5.634  19.401  0.00  0.00    +0.000 C 
ATOM     22  C   UNL     1       7.047   6.957  17.416  0.00  0.00    +0.000 C 
ENDBRANCH  13  20
BRANCH  16  23
ATOM     23  O   UNL     1       1.379   4.169  18.658  0.00  0.00    +0.000 OA
ATOM     24  H   UNL     1       1.296   3.289  19.060  0.00  0.00    +0.000 HD
ENDBRANCH  16  23
ENDBRANCH   1  17
BRANCH   7  25
ATOM     25  C   UNL     1      -0.237  12.302  19.799  0.00  0.00    +0.000 A 
ATOM     26  N   UNL     1      -1.496  11.858  20.126  0.00  0.00    +0.000 NA
ATOM     27  C   UNL     1      -2.040  12.832  20.811  0.00  0.00    +0.000 A 
ATOM     28  N   UNL     1      -1.178  13.879  20.951  0.00  0.00    +0.000 N 
ATOM     29  C   UNL     1       0.004  13.571  20.306  0.00  0.00    +0.000 A 
ATOM     30  H   UNL     1      -1.390  14.738  21.440  0.00  0.00    +0.000 HD
BRANCH  29  31
ATOM     31  C   UNL     1       1.196  14.516  20.256  0.00  0.00    +0.000 C 
ATOM     32  C   UNL     1       0.936  15.806  21.066  0.00  0.00    +0.000 C 
ATOM     33  C   UNL     1       2.438  13.831  20.857  0.00  0.00    +0.000 C 
ATOM     34  C   UNL     1       1.487  14.941  18.803  0.00  0.00    +0.000 C 
ENDBRANCH  29  31
ENDBRANCH   7  25
TORSDOF 5
ENDMDL
MODEL 6
REMARK VINA RESULT:      -7.6      1.616      2.762
REMARK  Name = 
REMARK  11 active torsions:
REMARK  status: ('A' for Active; 'I' for Inactive)
REMARK    1  A    between atoms: C_1  and  C_2
REMARK    2  A    between atoms: C_2  and  C_3
REMARK    3  A    between atoms: C_2  and  C_4
REMARK    4  A    between atoms: C_2  and  C_5
REMARK    5  A    between atoms: C_8  and  O_9
REMARK    6  A    between atoms: C_10  and  C_11
REMARK    7  A    between atoms: C_17  and  C_18
REMARK    8  A    between atoms: C_22  and  C_23
REMARK    9  A    between atoms: C_23  and  C_24
REMARK   10  A    between atoms: C_23  and  C_25
REMARK   11  A    between atoms: C_23  and  C_26
REMARK                            x       y       z     vdW  Elec       q    Type
REMARK                         _______ _______ _______ _____ _____    ______ ____
ROOT
ATOM      1  C   UNL     1       2.419   6.457  20.203  0.00  0.00    +0.000 C 
ATOM      2  CA  UNL     1       1.957   7.675  19.872  0.00  0.00    +0.000 A 
ATOM      3  N   UNL     1       2.205   8.257  18.649  0.00  0.00    +0.000 N 
ATOM      4  C   UNL     1       1.804   9.509  18.273  0.00  0.00    +0.000 A 
ATOM      5  O   UNL     1       2.081   9.965  17.169  0.00  0.00    +0.000 OA
ATOM      6  CA  UNL     1       1.000  10.258  19.296  0.00  0.00    +0.000 A 
ATOM      7  C   UNL     1       0.561  11.489  18.979  0.00  0.00    +0.000 C 
ATOM      8  N   UNL     1       0.724   9.659  20.503  0.00  0.00    +0.000 N 
ATOM      9  C   UNL     1       1.138   8.417  20.893  0.00  0.00    +0.000 A 
ATOM     10  O   UNL     1       0.849   7.951  21.990  0.00  0.00    +0.000 OA
ATOM     11  H   UNL     1       2.755   7.752  17.965  0.00  0.00    +0.000 HD
ATOM     12  H   UNL     1       0.163  10.195  21.165  0.00  0.00    +0.000 HD
ENDROOT
BRANCH   1  17
ATOM     13  C   UNL     1       5.440   5.133  18.360  0.00  0.00    +0.000 A 
ATOM     14  C   UNL     1       4.859   4.034  17.699  0.00  0.00    +0.000 A 
ATOM     15  C   UNL     1       3.499   3.730  17.838  0.00  0.00    +0.000 A 
ATOM     16  C   UNL     1       2.692   4.525  18.642  0.00  0.00    +0.000 A 
ATOM     17  C   UNL     1       3.230   5.622  19.314  0.00  0.00    +0.000 A 
ATOM     18  C   UNL     1       4.594   5.919  19.165  0.00  0.00    +0.000 A 
BRANCH  13  20
ATOM     19  C   UNL     1       7.566   5.649  19.538  0.00  0.00    +0.000 C 
ATOM     20  C   UNL     1       6.915   5.521  18.147  0.00  0.00    +0.000 C 
ATOM     21  C   UNL     1       7.086   6.863  17.400  0.00  0.00    +0.000 C 
ATOM     22  C   UNL     1       7.697   4.467  17.329  0.00  0.00    +0.000 C 
ENDBRANCH  13  20
BRANCH  16  23
ATOM     23  O   UNL     1       1.363   4.241  18.780  0.00  0.00    +0.000 OA
ATOM     24  H   UNL     1       0.957   4.180  17.901  0.00  0.00    +0.000 HD
ENDBRANCH  16  23
ENDBRANCH   1  17
BRANCH   7  25
ATOM     25  C   UNL     1      -0.272  12.323  19.781  0.00  0.00    +0.000 A 
ATOM     26  N   UNL     1      -1.541  11.909  20.109  0.00  0.00    +0.000 NA
ATOM     27  C   UNL     1      -2.061  12.896  20.795  0.00  0.00    +0.000 A 
ATOM     28  N   UNL     1      -1.175  13.922  20.935  0.00  0.00    +0.000 N 
ATOM     29  C   UNL     1      -0.000  13.586  20.289  0.00  0.00    +0.000 A 
ATOM     30  H   UNL     1      -1.366  14.785  21.424  0.00  0.00    +0.000 HD
BRANCH  29  31
ATOM     31  C   UNL     1       1.213  14.502  20.238  0.00  0.00    +0.000 C 
ATOM     32  C   UNL     1       1.571  14.896  18.787  0.00  0.00    +0.000 C 
ATOM     33  C   UNL     1       0.927  15.801  21.015  0.00  0.00    +0.000 C 
ATOM     34  C   UNL     1       2.448  13.798  20.836  0.00  0.00    +0.000 C 
ENDBRANCH  29  31
ENDBRANCH   7  25
TORSDOF 5
ENDMDL
MODEL 7
REMARK VINA RESULT:      -7.5      2.019      8.854
REMARK  Name = 
REMARK  11 active torsions:
REMARK  status: ('A' for Active; 'I' for Inactive)
REMARK    1  A    between atoms: C_1  and  C_2
REMARK    2  A    between atoms: C_2  and  C_3
REMARK    3  A    between atoms: C_2  and  C_4
REMARK    4  A    between atoms: C_2  and  C_5
REMARK    5  A    between atoms: C_8  and  O_9
REMARK    6  A    between atoms: C_10  and  C_11
REMARK    7  A    between atoms: C_17  and  C_18
REMARK    8  A    between atoms: C_22  and  C_23
REMARK    9  A    between atoms: C_23  and  C_24
REMARK   10  A    between atoms: C_23  and  C_25
REMARK   11  A    between atoms: C_23  and  C_26
REMARK                            x       y       z     vdW  Elec       q    Type
REMARK                         _______ _______ _______ _____ _____    ______ ____
ROOT
ATOM      1  C   UNL     1       0.226   9.823  20.834  0.00  0.00    +0.000 C 
ATOM      2  CA  UNL     1       1.053   9.030  20.132  0.00  0.00    +0.000 A 
ATOM      3  N   UNL     1       1.531   9.371  18.886  0.00  0.00    +0.000 N 
ATOM      4  C   UNL     1       2.334   8.586  18.106  0.00  0.00    +0.000 A 
ATOM      5  O   UNL     1       2.703   8.954  16.995  0.00  0.00    +0.000 OA
ATOM      6  CA  UNL     1       2.730   7.271  18.712  0.00  0.00    +0.000 A 
ATOM      7  C   UNL     1       3.534   6.461  18.001  0.00  0.00    +0.000 C 
ATOM      8  N   UNL     1       2.280   6.949  19.972  0.00  0.00    +0.000 N 
ATOM      9  C   UNL     1       1.461   7.720  20.749  0.00  0.00    +0.000 A 
ATOM     10  O   UNL     1       1.103   7.363  21.866  0.00  0.00    +0.000 OA
ATOM     11  H   UNL     1       1.255  10.254  18.477  0.00  0.00    +0.000 HD
ATOM     12  H   UNL     1       2.583   6.055  20.354  0.00  0.00    +0.000 HD
ENDROOT
BRANCH   1  17
ATOM     13  C   UNL     1      -0.176  13.570  20.550  0.00  0.00    +0.000 A 
ATOM     14  C   UNL     1      -1.069  13.636  19.464  0.00  0.00    +0.000 A 
ATOM     15  C   UNL     1      -1.547  12.480  18.835  0.00  0.00    +0.000 A 
ATOM     16  C   UNL     1      -1.141  11.230  19.286  0.00  0.00    +0.000 A 
ATOM     17  C   UNL     1      -0.257  11.122  20.359  0.00  0.00    +0.000 A 
ATOM     18  C   UNL     1       0.213  12.288  20.984  0.00  0.00    +0.000 A 
BRANCH  13  20
ATOM     19  C   UNL     1      -0.425  14.852  22.664  0.00  0.00    +0.000 C 
ATOM     20  C   UNL     1       0.288  14.833  21.298  0.00  0.00    +0.000 C 
ATOM     21  C   UNL     1      -0.052  16.141  20.548  0.00  0.00    +0.000 C 
ATOM     22  C   UNL     1       1.817  14.856  21.537  0.00  0.00    +0.000 C 
ENDBRANCH  13  20
BRANCH  16  23
ATOM     23  O   UNL     1      -1.605  10.096  18.683  0.00  0.00    +0.000 OA
ATOM     24  H   UNL     1      -0.888   9.694  18.167  0.00  0.00    +0.000 HD
ENDBRANCH  16  23
ENDBRANCH   1  17
BRANCH   7  25
ATOM     25  C   UNL     1       4.075   5.214  18.431  0.00  0.00    +0.000 A 
ATOM     26  N   UNL     1       3.239   4.239  18.921  0.00  0.00    +0.000 NA
ATOM     27  C   UNL     1       4.027   3.253  19.273  0.00  0.00    +0.000 A 
ATOM     28  N   UNL     1       5.332   3.547  19.016  0.00  0.00    +0.000 N 
ATOM     29  C   UNL     1       5.403   4.814  18.468  0.00  0.00    +0.000 A 
ATOM     30  H   UNL     1       6.110   2.933  19.211  0.00  0.00    +0.000 HD
BRANCH  29  31
ATOM     31  C   UNL     1       6.712   5.471  18.058  0.00  0.00    +0.000 C 
ATOM     32  C   UNL     1       7.539   4.564  17.118  0.00  0.00    +0.000 C 
ATOM     33  C   UNL     1       6.430   6.785  17.305  0.00  0.00    +0.000 C 
ATOM     34  C   UNL     1       7.584   5.758  19.296  0.00  0.00    +0.000 C 
ENDBRANCH  29  31
ENDBRANCH   7  25
TORSDOF 5
ENDMDL
MODEL 8
REMARK VINA RESULT:      -7.4      1.984      3.207
REMARK  Name = 
REMARK  11 active torsions:
REMARK  status: ('A' for Active; 'I' for Inactive)
REMARK    1  A    between atoms: C_1  and  C_2
REMARK    2  A    between atoms: C_2  and  C_3
REMARK    3  A    between atoms: C_2  and  C_4
REMARK    4  A    between atoms: C_2  and  C_5
REMARK    5  A    between atoms: C_8  and  O_9
REMARK    6  A    between atoms: C_10  and  C_11
REMARK    7  A    between atoms: C_17  and  C_18
REMARK    8  A    between atoms: C_22  and  C_23
REMARK    9  A    between atoms: C_23  and  C_24
REMARK   10  A    between atoms: C_23  and  C_25
REMARK   11  A    between atoms: C_23  and  C_26
REMARK                            x       y       z     vdW  Elec       q    Type
REMARK                         _______ _______ _______ _____ _____    ______ ____
ROOT
ATOM      1  C   UNL     1       1.819   6.592  20.584  0.00  0.00    +0.000 C 
ATOM      2  CA  UNL     1       1.600   7.850  20.165  0.00  0.00    +0.000 A 
ATOM      3  N   UNL     1       1.847   8.257  18.874  0.00  0.00    +0.000 N 
ATOM      4  C   UNL     1       1.690   9.531  18.403  0.00  0.00    +0.000 A 
ATOM      5  O   UNL     1       1.949   9.819  17.239  0.00  0.00    +0.000 OA
ATOM      6  CA  UNL     1       1.171  10.524  19.401  0.00  0.00    +0.000 A 
ATOM      7  C   UNL     1       0.979  11.791  18.994  0.00  0.00    +0.000 C 
ATOM      8  N   UNL     1       0.893  10.106  20.682  0.00  0.00    +0.000 N 
ATOM      9  C   UNL     1       1.066   8.839  21.165  0.00  0.00    +0.000 A 
ATOM     10  O   UNL     1       0.792   8.543  22.323  0.00  0.00    +0.000 OA
ATOM     11  H   UNL     1       2.204   7.586  18.205  0.00  0.00    +0.000 HD
ATOM     12  H   UNL     1       0.529  10.807  21.326  0.00  0.00    +0.000 HD
ENDROOT
BRANCH   1  17
ATOM     13  C   UNL     1       4.086   4.766  18.175  0.00  0.00    +0.000 A 
ATOM     14  C   UNL     1       3.435   3.518  18.127  0.00  0.00    +0.000 A 
ATOM     15  C   UNL     1       2.267   3.272  18.859  0.00  0.00    +0.000 A 
ATOM     16  C   UNL     1       1.724   4.275  19.651  0.00  0.00    +0.000 A 
ATOM     17  C   UNL     1       2.339   5.525  19.726  0.00  0.00    +0.000 A 
ATOM     18  C   UNL     1       3.508   5.761  18.986  0.00  0.00    +0.000 A 
BRANCH  13  20
ATOM     19  C   UNL     1       5.290   6.570  16.963  0.00  0.00    +0.000 C 
ATOM     20  C   UNL     1       5.324   5.069  17.311  0.00  0.00    +0.000 C 
ATOM     21  C   UNL     1       5.357   4.261  15.995  0.00  0.00    +0.000 C 
ATOM     22  C   UNL     1       6.652   4.760  18.042  0.00  0.00    +0.000 C 
ENDBRANCH  13  20
BRANCH  16  23
ATOM     23  O   UNL     1       0.581   4.048  20.365  0.00  0.00    +0.000 OA
ATOM     24  H   UNL     1       0.799   3.535  21.160  0.00  0.00    +0.000 HD
ENDBRANCH  16  23
ENDBRANCH   1  17
BRANCH   7  25
ATOM     25  C   UNL     1       0.429  12.855  19.768  0.00  0.00    +0.000 A 
ATOM     26  N   UNL     1      -0.828  12.728  20.309  0.00  0.00    +0.000 NA
ATOM     27  C   UNL     1      -1.064  13.868  20.907  0.00  0.00    +0.000 A 
ATOM     28  N   UNL     1      -0.006  14.719  20.787  0.00  0.00    +0.000 N 
ATOM     29  C   UNL     1       0.984  14.095  20.052  0.00  0.00    +0.000 A 
ATOM     30  H   UNL     1       0.027  15.654  21.168  0.00  0.00    +0.000 HD
BRANCH  29  31
ATOM     31  C   UNL     1       2.314  14.755  19.719  0.00  0.00    +0.000 C 
ATOM     32  C   UNL     1       2.699  14.547  18.236  0.00  0.00    +0.000 C 
ATOM     33  C   UNL     1       2.227  16.272  19.968  0.00  0.00    +0.000 C 
ATOM     34  C   UNL     1       3.447  14.151  20.572  0.00  0.00    +0.000 C 
ENDBRANCH  29  31
ENDBRANCH   7  25
TORSDOF 5
ENDMDL
MODEL 9
REMARK VINA RESULT:      -7.4      2.658      3.988
REMARK  Name = 
REMARK  11 active torsions:
REMARK  status: ('A' for Active; 'I' for Inactive)
REMARK    1  A    between atoms: C_1  and  C_2
REMARK    2  A    between atoms: C_2  and  C_3
REMARK    3  A    between atoms: C_2  and  C_4
REMARK    4  A    between atoms: C_2  and  C_5
REMARK    5  A    between atoms: C_8  and  O_9
REMARK    6  A    between atoms: C_10  and  C_11
REMARK    7  A    between atoms: C_17  and  C_18
REMARK    8  A    between atoms: C_22  and  C_23
REMARK    9  A    between atoms: C_23  and  C_24
REMARK   10  A    between atoms: C_23  and  C_25
REMARK   11  A    between atoms: C_23  and  C_26
REMARK                            x       y       z     vdW  Elec       q    Type
REMARK                         _______ _______ _______ _____ _____    ______ ____
ROOT
ATOM      1  C   UNL     1       1.445   8.154  21.102  0.00  0.00    +0.000 C 
ATOM      2  CA  UNL     1       0.598   9.158  20.821  0.00  0.00    +0.000 A 
ATOM      3  N   UNL     1       0.034   9.330  19.577  0.00  0.00    +0.000 N 
ATOM      4  C   UNL     1      -0.794  10.357  19.219  0.00  0.00    +0.000 A 
ATOM      5  O   UNL     1      -1.243  10.451  18.081  0.00  0.00    +0.000 OA
ATOM      6  CA  UNL     1      -1.116  11.332  20.314  0.00  0.00    +0.000 A 
ATOM      7  C   UNL     1      -1.940  12.356  20.030  0.00  0.00    +0.000 C 
ATOM      8  N   UNL     1      -0.578  11.138  21.566  0.00  0.00    +0.000 N 
ATOM      9  C   UNL     1       0.266  10.125  21.926  0.00  0.00    +0.000 A 
ATOM     10  O   UNL     1       0.703  10.018  23.066  0.00  0.00    +0.000 OA
ATOM     11  H   UNL     1       0.259   8.675  18.839  0.00  0.00    +0.000 HD
ATOM     12  H   UNL     1      -0.832  11.814  22.286  0.00  0.00    +0.000 HD
ENDROOT
BRANCH   1  17
ATOM     13  C   UNL     1       2.006   4.763  19.530  0.00  0.00    +0.000 A 
ATOM     14  C   UNL     1       2.557   5.156  18.295  0.00  0.00    +0.000 A 
ATOM     15  C   UNL     1       2.757   6.505  17.977  0.00  0.00    +0.000 A 
ATOM     16  C   UNL     1       2.411   7.490  18.894  0.00  0.00    +0.000 A 
ATOM     17  C   UNL     1       1.862   7.141  20.128  0.00  0.00    +0.000 A 
ATOM     18  C   UNL     1       1.669   5.786  20.437  0.00  0.00    +0.000 A 
BRANCH  13  20
ATOM     19  C   UNL     1       3.226   2.606  19.696  0.00  0.00    +0.000 C 
ATOM     20  C   UNL     1       1.860   3.281  19.918  0.00  0.00    +0.000 C 
ATOM     21  C   UNL     1       0.801   2.535  19.075  0.00  0.00    +0.000 C 
ATOM     22  C   UNL     1       1.448   3.090  21.397  0.00  0.00    +0.000 C 
ENDBRANCH  13  20
BRANCH  16  23
ATOM     23  O   UNL     1       2.606   8.809  18.597  0.00  0.00    +0.000 OA
ATOM     24  H   UNL     1       2.698   9.311  19.422  0.00  0.00    +0.000 HD
ENDBRANCH  16  23
ENDBRANCH   1  17
BRANCH   7  25
ATOM     25  C   UNL     1      -2.418  13.338  20.947  0.00  0.00    +0.000 A 
ATOM     26  N   UNL     1      -1.532  14.004  21.760  0.00  0.00    +0.000 NA
ATOM     27  C   UNL     1      -2.269  14.786  22.507  0.00  0.00    +0.000 A 
ATOM     28  N   UNL     1      -3.592  14.663  22.200  0.00  0.00    +0.000 N 
ATOM     29  C   UNL     1      -3.727  13.730  21.189  0.00  0.00    +0.000 A 
ATOM     30  H   UNL     1      -4.339  15.169  22.654  0.00  0.00    +0.000 HD
BRANCH  29  31
ATOM     31  C   UNL     1      -5.071  13.336  20.595  0.00  0.00    +0.000 C 
ATOM     32  C   UNL     1      -5.975  12.639  21.638  0.00  0.00    +0.000 C 
ATOM     33  C   UNL     1      -5.816  14.589  20.098  0.00  0.00    +0.000 C 
ATOM     34  C   UNL     1      -4.878  12.347  19.428  0.00  0.00    +0.000 C 
ENDBRANCH  29  31
ENDBRANCH   7  25
TORSDOF 5
ENDMDL
