MODEL 1
REMARK VINA RESULT:      -7.8      0.000      0.000
REMARK  Name = 
REMARK  9 active torsions:
REMARK  status: ('A' for Active; 'I' for Inactive)
REMARK    1  A    between atoms: C_1  and  O_2
REMARK    2  A    between atoms: O_2  and  C_3
REMARK    3  A    between atoms: C_7  and  C_8
REMARK    4  A    between atoms: C_18  and  O_19
REMARK    5  A    between atoms: C_20  and  O_21
REMARK    6  A    between atoms: O_21  and  C_22
REMARK    7  A    between atoms: C_22  and  C_23
REMARK    8  A    between atoms: C_23  and  C_24
REMARK    9  A    between atoms: C_24  and  N_25
REMARK                            x       y       z     vdW  Elec       q    Type
REMARK                         _______ _______ _______ _____ _____    ______ ____
ROOT
ATOM      1  C   UNL     1       0.404  10.445  21.408  0.00  0.00    +0.000 A 
ATOM      2  C   UNL     1       0.811   9.114  21.549  0.00  0.00    +0.000 A 
ATOM      3  C   UNL     1       1.374   8.433  20.480  0.00  0.00    +0.000 A 
ATOM      4  O   UNL     1       1.745   7.135  20.718  0.00  0.00    +0.000 OA
ATOM      5  C   UNL     1       2.321   6.432  19.687  0.00  0.00    +0.000 A 
ATOM      6  C   UNL     1       2.551   6.909  18.455  0.00  0.00    +0.000 A 
ATOM      7  C   UNL     1       2.156   8.293  18.164  0.00  0.00    +0.000 A 
ATOM      8  O   UNL     1       2.334   8.783  17.053  0.00  0.00    +0.000 OA
ATOM      9  C   UNL     1       1.546   9.068  19.255  0.00  0.00    +0.000 A 
ATOM     10  C   UNL     1       1.152  10.406  19.089  0.00  0.00    +0.000 A 
ATOM     11  C   UNL     1       0.581  11.116  20.168  0.00  0.00    +0.000 A 
ENDROOT
BRANCH   5  12
ATOM     12  C   UNL     1       2.699   5.064  20.039  0.00  0.00    +0.000 A 
ATOM     13  C   UNL     1       1.966   4.366  21.007  0.00  0.00    +0.000 A 
ATOM     14  C   UNL     1       2.327   3.064  21.351  0.00  0.00    +0.000 A 
ATOM     15  C   UNL     1       3.418   2.456  20.731  0.00  0.00    +0.000 A 
ATOM     16  C   UNL     1       4.147   3.144  19.762  0.00  0.00    +0.000 A 
ATOM     17  C   UNL     1       3.788   4.447  19.414  0.00  0.00    +0.000 A 
ENDBRANCH   5  12
BRANCH   1  19
ATOM     18  C   UNL     1      -1.169  10.552  23.206  0.00  0.00    +0.000 C 
ATOM     19  O   UNL     1      -0.116  11.163  22.461  0.00  0.00    +0.000 OA
ENDBRANCH   1  19
BRANCH  10  20
ATOM     20  O   UNL     1       1.335  11.006  17.866  0.00  0.00    +0.000 OA
ATOM     21  H   UNL     1       0.731  10.599  17.204  0.00  0.00    +0.000 HD
ENDBRANCH  10  20
BRANCH  11  22
ATOM     22  O   UNL     1       0.161  12.431  20.146  0.00  0.00    +0.000 OA
BRANCH  22  23
ATOM     23  C   UNL     1      -0.943  12.772  19.304  0.00  0.00    +0.000 C 
BRANCH  23  24
ATOM     24  C   UNL     1      -2.153  11.901  19.638  0.00  0.00    +0.000 C 
BRANCH  24  25
ATOM     25  C   UNL     1      -3.289  12.168  18.635  0.00  0.00    +0.000 C 
BRANCH  25  26
ATOM     26  N   UNL     1      -3.845  10.955  18.010  0.00  0.00    +0.000 NA
ATOM     27  C   UNL     1      -2.789   9.955  17.766  0.00  0.00    +0.000 C 
ATOM     28  C   UNL     1      -2.298  10.231  16.359  0.00  0.00    +0.000 C 
ATOM     29  C   UNL     1      -3.574  10.590  15.630  0.00  0.00    +0.000 C 
ATOM     30  C   UNL     1      -4.470  11.205  16.699  0.00  0.00    +0.000 C 
ENDBRANCH  25  26
ENDBRANCH  24  25
ENDBRANCH  23  24
ENDBRANCH  22  23
ENDBRANCH  11  22
TORSDOF 8
ENDMDL
MODEL 2
REMARK VINA RESULT:      -7.6      3.351      8.170
REMARK  Name = 
REMARK  9 active torsions:
REMARK  status: ('A' for Active; 'I' for Inactive)
REMARK    1  A    between atoms: C_1  and  O_2
REMARK    2  A    between atoms: O_2  and  C_3
REMARK    3  A    between atoms: C_7  and  C_8
REMARK    4  A    between atoms: C_18  and  O_19
REMARK    5  A    between atoms: C_20  and  O_21
REMARK    6  A    between atoms: O_21  and  C_22
REMARK    7  A    between atoms: C_22  and  C_23
REMARK    8  A    between atoms: C_23  and  C_24
REMARK    9  A    between atoms: C_24  and  N_25
REMARK                            x       y       z     vdW  Elec       q    Type
REMARK                         _______ _______ _______ _____ _____    ______ ____
ROOT
ATOM      1  C   UNL     1       2.684   5.440  20.083  0.00  0.00    +0.000 A 
ATOM      2  C   UNL     1       1.853   6.374  20.713  0.00  0.00    +0.000 A 
ATOM      3  C   UNL     1       1.624   7.614  20.136  0.00  0.00    +0.000 A 
ATOM      4  O   UNL     1       0.792   8.457  20.826  0.00  0.00    +0.000 OA
ATOM      5  C   UNL     1       0.527   9.689  20.278  0.00  0.00    +0.000 A 
ATOM      6  C   UNL     1       1.020  10.144  19.117  0.00  0.00    +0.000 A 
ATOM      7  C   UNL     1       1.922   9.269  18.358  0.00  0.00    +0.000 A 
ATOM      8  O   UNL     1       2.410   9.633  17.292  0.00  0.00    +0.000 OA
ATOM      9  C   UNL     1       2.212   7.942  18.920  0.00  0.00    +0.000 A 
ATOM     10  C   UNL     1       3.045   7.020  18.264  0.00  0.00    +0.000 A 
ATOM     11  C   UNL     1       3.287   5.751  18.835  0.00  0.00    +0.000 A 
ENDROOT
BRANCH   5  12
ATOM     12  C   UNL     1      -0.383  10.511  21.076  0.00  0.00    +0.000 A 
ATOM     13  C   UNL     1      -0.515  10.271  22.449  0.00  0.00    +0.000 A 
ATOM     14  C   UNL     1      -1.386  11.047  23.212  0.00  0.00    +0.000 A 
ATOM     15  C   UNL     1      -2.125  12.064  22.608  0.00  0.00    +0.000 A 
ATOM     16  C   UNL     1      -1.992  12.311  21.242  0.00  0.00    +0.000 A 
ATOM     17  C   UNL     1      -1.120  11.536  20.475  0.00  0.00    +0.000 A 
ENDBRANCH   5  12
BRANCH   1  19
ATOM     18  C   UNL     1       1.819   3.592  21.332  0.00  0.00    +0.000 C 
ATOM     19  O   UNL     1       2.896   4.185  20.606  0.00  0.00    +0.000 OA
ENDBRANCH   1  19
BRANCH  10  20
ATOM     20  O   UNL     1       3.613   7.375  17.063  0.00  0.00    +0.000 OA
ATOM     21  H   UNL     1       3.484   6.650  16.410  0.00  0.00    +0.000 HD
ENDBRANCH  10  20
BRANCH  11  22
ATOM     22  O   UNL     1       4.072   4.752  18.295  0.00  0.00    +0.000 OA
BRANCH  22  23
ATOM     23  C   UNL     1       3.680   4.191  17.041  0.00  0.00    +0.000 C 
BRANCH  23  24
ATOM     24  C   UNL     1       4.790   4.375  16.008  0.00  0.00    +0.000 C 
BRANCH  24  25
ATOM     25  C   UNL     1       6.093   3.726  16.510  0.00  0.00    +0.000 C 
BRANCH  25  26
ATOM     26  N   UNL     1       7.250   4.636  16.543  0.00  0.00    +0.000 NA
ATOM     27  C   UNL     1       7.935   4.575  17.848  0.00  0.00    +0.000 C 
ATOM     28  C   UNL     1       7.290   5.663  18.685  0.00  0.00    +0.000 C 
ATOM     29  C   UNL     1       7.078   6.771  17.677  0.00  0.00    +0.000 C 
ATOM     30  C   UNL     1       6.889   6.052  16.346  0.00  0.00    +0.000 C 
ENDBRANCH  25  26
ENDBRANCH  24  25
ENDBRANCH  23  24
ENDBRANCH  22  23
ENDBRANCH  11  22
TORSDOF 8
ENDMDL
MODEL 3
REMARK VINA RESULT:      -7.6      0.807      1.289
REMARK  Name = 
REMARK  9 active torsions:
REMARK  status: ('A' for Active; 'I' for Inactive)
REMARK    1  A    between atoms: C_1  and  O_2
REMARK    2  A    between atoms: O_2  and  C_3
REMARK    3  A    between atoms: C_7  and  C_8
REMARK    4  A    between atoms: C_18  and  O_19
REMARK    5  A    between atoms: C_20  and  O_21
REMARK    6  A    between atoms: O_21  and  C_22
REMARK    7  A    between atoms: C_22  and  C_23
REMARK    8  A    between atoms: C_23  and  C_24
REMARK    9  A    between atoms: C_24  and  N_25
REMARK                            x       y       z     vdW  Elec       q    Type
REMARK                         _______ _______ _______ _____ _____    ______ ____
ROOT
ATOM      1  C   UNL     1       0.683  10.088  21.670  0.00  0.00    +0.000 A 
ATOM      2  C   UNL     1       0.987   8.723  21.635  0.00  0.00    +0.000 A 
ATOM      3  C   UNL     1       1.485   8.141  20.478  0.00  0.00    +0.000 A 
ATOM      4  O   UNL     1       1.756   6.800  20.545  0.00  0.00    +0.000 OA
ATOM      5  C   UNL     1       2.266   6.190  19.424  0.00  0.00    +0.000 A 
ATOM      6  C   UNL     1       2.519   6.801  18.256  0.00  0.00    +0.000 A 
ATOM      7  C   UNL     1       2.229   8.236  18.149  0.00  0.00    +0.000 A 
ATOM      8  O   UNL     1       2.434   8.847  17.104  0.00  0.00    +0.000 OA
ATOM      9  C   UNL     1       1.693   8.911  19.339  0.00  0.00    +0.000 A 
ATOM     10  C   UNL     1       1.401  10.285  19.350  0.00  0.00    +0.000 A 
ATOM     11  C   UNL     1       0.899  10.895  20.520  0.00  0.00    +0.000 A 
ENDROOT
BRANCH   5  12
ATOM     12  C   UNL     1       2.541   4.764  19.595  0.00  0.00    +0.000 A 
ATOM     13  C   UNL     1       3.844   4.281  19.428  0.00  0.00    +0.000 A 
ATOM     14  C   UNL     1       4.109   2.920  19.582  0.00  0.00    +0.000 A 
ATOM     15  C   UNL     1       3.075   2.041  19.904  0.00  0.00    +0.000 A 
ATOM     16  C   UNL     1       1.776   2.519  20.078  0.00  0.00    +0.000 A 
ATOM     17  C   UNL     1       1.508   3.880  19.925  0.00  0.00    +0.000 A 
ENDBRANCH   5  12
BRANCH   1  19
ATOM     18  C   UNL     1      -1.111  10.428  23.216  0.00  0.00    +0.000 C 
ATOM     19  O   UNL     1       0.231  10.704  22.815  0.00  0.00    +0.000 OA
ENDBRANCH   1  19
BRANCH  10  20
ATOM     20  O   UNL     1       1.618  11.019  18.208  0.00  0.00    +0.000 OA
ATOM     21  H   UNL     1       1.296  11.939  18.340  0.00  0.00    +0.000 HD
ENDBRANCH  10  20
BRANCH  11  22
ATOM     22  O   UNL     1       0.581  12.230  20.671  0.00  0.00    +0.000 OA
BRANCH  22  23
ATOM     23  C   UNL     1      -0.753  12.644  20.368  0.00  0.00    +0.000 C 
BRANCH  23  24
ATOM     24  C   UNL     1      -0.792  13.363  19.021  0.00  0.00    +0.000 C 
BRANCH  24  25
ATOM     25  C   UNL     1      -1.331  12.419  17.932  0.00  0.00    +0.000 C 
BRANCH  25  26
ATOM     26  N   UNL     1      -2.173  11.323  18.441  0.00  0.00    +0.000 NA
ATOM     27  C   UNL     1      -1.862  10.054  17.758  0.00  0.00    +0.000 C 
ATOM     28  C   UNL     1      -2.815   9.993  16.581  0.00  0.00    +0.000 C 
ATOM     29  C   UNL     1      -4.087  10.573  17.157  0.00  0.00    +0.000 C 
ATOM     30  C   UNL     1      -3.616  11.546  18.231  0.00  0.00    +0.000 C 
ENDBRANCH  25  26
ENDBRANCH  24  25
ENDBRANCH  23  24
ENDBRANCH  22  23
ENDBRANCH  11  22
TORSDOF 8
ENDMDL
MODEL 4
REMARK VINA RESULT:      -7.5      3.406      8.179
REMARK  Name = 
REMARK  9 active torsions:
REMARK  status: ('A' for Active; 'I' for Inactive)
REMARK    1  A    between atoms: C_1  and  O_2
REMARK    2  A    between atoms: O_2  and  C_3
REMARK    3  A    between atoms: C_7  and  C_8
REMARK    4  A    between atoms: C_18  and  O_19
REMARK    5  A    between atoms: C_20  and  O_21
REMARK    6  A    between atoms: O_21  and  C_22
REMARK    7  A    between atoms: C_22  and  C_23
REMARK    8  A    between atoms: C_23  and  C_24
REMARK    9  A    between atoms: C_24  and  N_25
REMARK                            x       y       z     vdW  Elec       q    Type
REMARK                         _______ _______ _______ _____ _____    ______ ____
ROOT
ATOM      1  C   UNL     1       2.745   4.632  20.020  0.00  0.00    +0.000 A 
ATOM      2  C   UNL     1       2.051   5.632  20.710  0.00  0.00    +0.000 A 
ATOM      3  C   UNL     1       1.874   6.885  20.144  0.00  0.00    +0.000 A 
ATOM      4  O   UNL     1       1.177   7.795  20.895  0.00  0.00    +0.000 OA
ATOM      5  C   UNL     1       0.966   9.044  20.361  0.00  0.00    +0.000 A 
ATOM      6  C   UNL     1       1.393   9.455  19.157  0.00  0.00    +0.000 A 
ATOM      7  C   UNL     1       2.153   8.507  18.332  0.00  0.00    +0.000 A 
ATOM      8  O   UNL     1       2.575   8.828  17.224  0.00  0.00    +0.000 OA
ATOM      9  C   UNL     1       2.380   7.162  18.879  0.00  0.00    +0.000 A 
ATOM     10  C   UNL     1       3.076   6.173  18.163  0.00  0.00    +0.000 A 
ATOM     11  C   UNL     1       3.261   4.890  18.722  0.00  0.00    +0.000 A 
ENDROOT
BRANCH   5  12
ATOM     12  C   UNL     1       0.200   9.939  21.226  0.00  0.00    +0.000 A 
ATOM     13  C   UNL     1      -0.098  11.238  20.795  0.00  0.00    +0.000 A 
ATOM     14  C   UNL     1      -0.822  12.098  21.620  0.00  0.00    +0.000 A 
ATOM     15  C   UNL     1      -1.252  11.664  22.873  0.00  0.00    +0.000 A 
ATOM     16  C   UNL     1      -0.963  10.369  23.304  0.00  0.00    +0.000 A 
ATOM     17  C   UNL     1      -0.239   9.506  22.481  0.00  0.00    +0.000 A 
ENDBRANCH   5  12
BRANCH   1  19
ATOM     18  C   UNL     1       1.748   2.519  20.535  0.00  0.00    +0.000 C 
ATOM     19  O   UNL     1       2.898   3.364  20.535  0.00  0.00    +0.000 OA
ENDBRANCH   1  19
BRANCH  10  20
ATOM     20  O   UNL     1       3.565   6.477  16.914  0.00  0.00    +0.000 OA
ATOM     21  H   UNL     1       3.047   7.219  16.527  0.00  0.00    +0.000 HD
ENDBRANCH  10  20
BRANCH  11  22
ATOM     22  O   UNL     1       3.912   3.828  18.126  0.00  0.00    +0.000 OA
BRANCH  22  23
ATOM     23  C   UNL     1       5.339   3.785  18.203  0.00  0.00    +0.000 C 
BRANCH  23  24
ATOM     24  C   UNL     1       5.951   4.016  16.822  0.00  0.00    +0.000 C 
BRANCH  24  25
ATOM     25  C   UNL     1       6.931   5.202  16.870  0.00  0.00    +0.000 C 
BRANCH  25  26
ATOM     26  N   UNL     1       6.672   6.160  17.959  0.00  0.00    +0.000 NA
ATOM     27  C   UNL     1       6.454   7.519  17.427  0.00  0.00    +0.000 C 
ATOM     28  C   UNL     1       7.823   8.169  17.429  0.00  0.00    +0.000 C 
ATOM     29  C   UNL     1       8.436   7.643  18.708  0.00  0.00    +0.000 C 
ATOM     30  C   UNL     1       7.789   6.278  18.914  0.00  0.00    +0.000 C 
ENDBRANCH  25  26
ENDBRANCH  24  25
ENDBRANCH  23  24
ENDBRANCH  22  23
ENDBRANCH  11  22
TORSDOF 8
ENDMDL
MODEL 5
REMARK VINA RESULT:      -7.3      3.495      8.105
REMARK  Name = 
REMARK  9 active torsions:
REMARK  status: ('A' for Active; 'I' for Inactive)
REMARK    1  A    between atoms: C_1  and  O_2
REMARK    2  A    between atoms: O_2  and  C_3
REMARK    3  A    between atoms: C_7  and  C_8
REMARK    4  A    between atoms: C_18  and  O_19
REMARK    5  A    between atoms: C_20  and  O_21
REMARK    6  A    between atoms: O_21  and  C_22
REMARK    7  A    between atoms: C_22  and  C_23
REMARK    8  A    between atoms: C_23  and  C_24
REMARK    9  A    between atoms: C_24  and  N_25
REMARK                            x       y       z     vdW  Elec       q    Type
REMARK                         _______ _______ _______ _____ _____    ______ ____
ROOT
ATOM      1  C   UNL     1       2.632   5.477  20.151  0.00  0.00    +0.000 A 
ATOM      2  C   UNL     1       1.801   6.415  20.774  0.00  0.00    +0.000 A 
ATOM      3  C   UNL     1       1.571   7.651  20.187  0.00  0.00    +0.000 A 
ATOM      4  O   UNL     1       0.739   8.499  20.871  0.00  0.00    +0.000 OA
ATOM      5  C   UNL     1       0.473   9.727  20.315  0.00  0.00    +0.000 A 
ATOM      6  C   UNL     1       0.967  10.174  19.150  0.00  0.00    +0.000 A 
ATOM      7  C   UNL     1       1.870   9.294  18.398  0.00  0.00    +0.000 A 
ATOM      8  O   UNL     1       2.358   9.650  17.329  0.00  0.00    +0.000 OA
ATOM      9  C   UNL     1       2.159   7.971  18.969  0.00  0.00    +0.000 A 
ATOM     10  C   UNL     1       2.993   7.045  18.321  0.00  0.00    +0.000 A 
ATOM     11  C   UNL     1       3.235   5.780  18.900  0.00  0.00    +0.000 A 
ENDROOT
BRANCH   5  12
ATOM     12  C   UNL     1      -0.436  10.554  21.106  0.00  0.00    +0.000 A 
ATOM     13  C   UNL     1      -1.163  11.579  20.487  0.00  0.00    +0.000 A 
ATOM     14  C   UNL     1      -2.026  12.376  21.239  0.00  0.00    +0.000 A 
ATOM     15  C   UNL     1      -2.166  12.150  22.608  0.00  0.00    +0.000 A 
ATOM     16  C   UNL     1      -1.449  11.127  23.228  0.00  0.00    +0.000 A 
ATOM     17  C   UNL     1      -0.586  10.328  22.478  0.00  0.00    +0.000 A 
ENDBRANCH   5  12
BRANCH   1  19
ATOM     18  C   UNL     1       1.695   3.505  21.128  0.00  0.00    +0.000 C 
ATOM     19  O   UNL     1       2.844   4.226  20.683  0.00  0.00    +0.000 OA
ENDBRANCH   1  19
BRANCH  10  20
ATOM     20  O   UNL     1       3.561   7.391  17.117  0.00  0.00    +0.000 OA
ATOM     21  H   UNL     1       3.079   6.947  16.384  0.00  0.00    +0.000 HD
ENDBRANCH  10  20
BRANCH  11  22
ATOM     22  O   UNL     1       4.020   4.777  18.368  0.00  0.00    +0.000 OA
BRANCH  22  23
ATOM     23  C   UNL     1       5.361   4.647  18.845  0.00  0.00    +0.000 C 
BRANCH  23  24
ATOM     24  C   UNL     1       6.281   5.623  18.114  0.00  0.00    +0.000 C 
BRANCH  24  25
ATOM     25  C   UNL     1       7.013   4.903  16.967  0.00  0.00    +0.000 C 
BRANCH  25  26
ATOM     26  N   UNL     1       6.841   5.532  15.647  0.00  0.00    +0.000 NA
ATOM     27  C   UNL     1       5.417   5.582  15.266  0.00  0.00    +0.000 C 
ATOM     28  C   UNL     1       5.170   4.306  14.485  0.00  0.00    +0.000 C 
ATOM     29  C   UNL     1       6.450   4.153  13.693  0.00  0.00    +0.000 C 
ATOM     30  C   UNL     1       7.521   4.807  14.558  0.00  0.00    +0.000 C 
ENDBRANCH  25  26
ENDBRANCH  24  25
ENDBRANCH  23  24
ENDBRANCH  22  23
ENDBRANCH  11  22
TORSDOF 8
ENDMDL
MODEL 6
REMARK VINA RESULT:      -7.3      3.960      8.374
REMARK  Name = 
REMARK  9 active torsions:
REMARK  status: ('A' for Active; 'I' for Inactive)
REMARK    1  A    between atoms: C_1  and  O_2
REMARK    2  A    between atoms: O_2  and  C_3
REMARK    3  A    between atoms: C_7  and  C_8
REMARK    4  A    between atoms: C_18  and  O_19
REMARK    5  A    between atoms: C_20  and  O_21
REMARK    6  A    between atoms: O_21  and  C_22
REMARK    7  A    between atoms: C_22  and  C_23
REMARK    8  A    between atoms: C_23  and  C_24
REMARK    9  A    between atoms: C_24  and  N_25
REMARK                            x       y       z     vdW  Elec       q    Type
REMARK                         _______ _______ _______ _____ _____    ______ ____
ROOT
ATOM      1  C   UNL     1       2.910   4.762  20.106  0.00  0.00    +0.000 A 
ATOM      2  C   UNL     1       2.138   5.734  20.752  0.00  0.00    +0.000 A 
ATOM      3  C   UNL     1       1.915   6.966  20.157  0.00  0.00    +0.000 A 
ATOM      4  O   UNL     1       1.142   7.849  20.865  0.00  0.00    +0.000 OA
ATOM      5  C   UNL     1       0.885   9.076  20.301  0.00  0.00    +0.000 A 
ATOM      6  C   UNL     1       1.335   9.490  19.108  0.00  0.00    +0.000 A 
ATOM      7  C   UNL     1       2.175   8.572  18.328  0.00  0.00    +0.000 A 
ATOM      8  O   UNL     1       2.621   8.898  17.232  0.00  0.00    +0.000 OA
ATOM      9  C   UNL     1       2.454   7.251  18.907  0.00  0.00    +0.000 A 
ATOM     10  C   UNL     1       3.228   6.290  18.235  0.00  0.00    +0.000 A 
ATOM     11  C   UNL     1       3.461   5.027  18.823  0.00  0.00    +0.000 A 
ENDROOT
BRANCH   5  12
ATOM     12  C   UNL     1       0.039   9.942  21.121  0.00  0.00    +0.000 A 
ATOM     13  C   UNL     1      -0.528  11.093  20.562  0.00  0.00    +0.000 A 
ATOM     14  C   UNL     1      -1.329  11.926  21.342  0.00  0.00    +0.000 A 
ATOM     15  C   UNL     1      -1.568  11.611  22.680  0.00  0.00    +0.000 A 
ATOM     16  C   UNL     1      -1.010  10.461  23.240  0.00  0.00    +0.000 A 
ATOM     17  C   UNL     1      -0.208   9.625  22.461  0.00  0.00    +0.000 A 
ENDBRANCH   5  12
BRANCH   1  19
ATOM     18  C   UNL     1       1.997   2.622  20.660  0.00  0.00    +0.000 C 
ATOM     19  O   UNL     1       3.112   3.513  20.648  0.00  0.00    +0.000 OA
ENDBRANCH   1  19
BRANCH  10  20
ATOM     20  O   UNL     1       3.748   6.601  17.000  0.00  0.00    +0.000 OA
ATOM     21  H   UNL     1       4.642   6.997  17.108  0.00  0.00    +0.000 HD
ENDBRANCH  10  20
BRANCH  11  22
ATOM     22  O   UNL     1       4.191   3.994  18.271  0.00  0.00    +0.000 OA
BRANCH  22  23
ATOM     23  C   UNL     1       5.506   4.280  17.790  0.00  0.00    +0.000 C 
BRANCH  23  24
ATOM     24  C   UNL     1       5.664   3.783  16.354  0.00  0.00    +0.000 C 
BRANCH  24  25
ATOM     25  C   UNL     1       6.829   4.518  15.666  0.00  0.00    +0.000 C 
BRANCH  25  26
ATOM     26  N   UNL     1       6.474   5.155  14.387  0.00  0.00    +0.000 NA
ATOM     27  C   UNL     1       5.411   4.401  13.696  0.00  0.00    +0.000 C 
ATOM     28  C   UNL     1       6.140   3.423  12.795  0.00  0.00    +0.000 C 
ATOM     29  C   UNL     1       7.316   4.241  12.306  0.00  0.00    +0.000 C 
ATOM     30  C   UNL     1       7.598   5.225  13.435  0.00  0.00    +0.000 C 
ENDBRANCH  25  26
ENDBRANCH  24  25
ENDBRANCH  23  24
ENDBRANCH  22  23
ENDBRANCH  11  22
TORSDOF 8
ENDMDL
MODEL 7
REMARK VINA RESULT:      -7.2      3.367      8.080
REMARK  Name = 
REMARK  9 active torsions:
REMARK  status: ('A' for Active; 'I' for Inactive)
REMARK    1  A    between atoms: C_1  and  O_2
REMARK    2  A    between atoms: O_2  and  C_3
REMARK    3  A    between atoms: C_7  and  C_8
REMARK    4  A    between atoms: C_18  and  O_19
REMARK    5  A    between atoms: C_20  and  O_21
REMARK    6  A    between atoms: O_21  and  C_22
REMARK    7  A    between atoms: C_22  and  C_23
REMARK    8  A    between atoms: C_23  and  C_24
REMARK    9  A    between atoms: C_24  and  N_25
REMARK                            x       y       z     vdW  Elec       q    Type
REMARK                         _______ _______ _______ _____ _____    ______ ____
ROOT
ATOM      1  C   UNL     1       2.393   5.151  20.669  0.00  0.00    +0.000 A 
ATOM      2  C   UNL     1       1.599   6.193  21.161  0.00  0.00    +0.000 A 
ATOM      3  C   UNL     1       1.472   7.377  20.451  0.00  0.00    +0.000 A 
ATOM      4  O   UNL     1       0.669   8.336  21.012  0.00  0.00    +0.000 OA
ATOM      5  C   UNL     1       0.505   9.517  20.330  0.00  0.00    +0.000 A 
ATOM      6  C   UNL     1       1.072   9.818  19.152  0.00  0.00    +0.000 A 
ATOM      7  C   UNL     1       1.945   8.816  18.528  0.00  0.00    +0.000 A 
ATOM      8  O   UNL     1       2.497   9.037  17.454  0.00  0.00    +0.000 OA
ATOM      9  C   UNL     1       2.127   7.541  19.235  0.00  0.00    +0.000 A 
ATOM     10  C   UNL     1       2.925   6.508  18.717  0.00  0.00    +0.000 A 
ATOM     11  C   UNL     1       3.063   5.293  19.424  0.00  0.00    +0.000 A 
ENDROOT
BRANCH   5  12
ATOM     12  C   UNL     1      -0.381  10.471  20.997  0.00  0.00    +0.000 A 
ATOM     13  C   UNL     1      -0.545  10.415  22.386  0.00  0.00    +0.000 A 
ATOM     14  C   UNL     1      -1.394  11.317  23.026  0.00  0.00    +0.000 A 
ATOM     15  C   UNL     1      -2.079  12.277  22.281  0.00  0.00    +0.000 A 
ATOM     16  C   UNL     1      -1.914  12.341  20.898  0.00  0.00    +0.000 A 
ATOM     17  C   UNL     1      -1.064  11.440  20.255  0.00  0.00    +0.000 A 
ENDBRANCH   5  12
BRANCH   1  19
ATOM     18  C   UNL     1       1.344   3.116  21.361  0.00  0.00    +0.000 C 
ATOM     19  O   UNL     1       2.504   3.947  21.327  0.00  0.00    +0.000 OA
ENDBRANCH   1  19
BRANCH  10  20
ATOM     20  O   UNL     1       3.561   6.700  17.513  0.00  0.00    +0.000 OA
ATOM     21  H   UNL     1       3.652   5.839  17.046  0.00  0.00    +0.000 HD
ENDBRANCH  10  20
BRANCH  11  22
ATOM     22  O   UNL     1       3.803   4.198  19.026  0.00  0.00    +0.000 OA
BRANCH  22  23
ATOM     23  C   UNL     1       3.156   3.199  18.236  0.00  0.00    +0.000 C 
BRANCH  23  24
ATOM     24  C   UNL     1       3.602   3.304  16.779  0.00  0.00    +0.000 C 
BRANCH  24  25
ATOM     25  C   UNL     1       5.089   3.694  16.707  0.00  0.00    +0.000 C 
BRANCH  25  26
ATOM     26  N   UNL     1       5.373   4.850  15.841  0.00  0.00    +0.000 NA
ATOM     27  C   UNL     1       5.052   4.548  14.433  0.00  0.00    +0.000 C 
ATOM     28  C   UNL     1       6.342   4.020  13.837  0.00  0.00    +0.000 C 
ATOM     29  C   UNL     1       7.390   4.888  14.498  0.00  0.00    +0.000 C 
ATOM     30  C   UNL     1       6.790   5.256  15.850  0.00  0.00    +0.000 C 
ENDBRANCH  25  26
ENDBRANCH  24  25
ENDBRANCH  23  24
ENDBRANCH  22  23
ENDBRANCH  11  22
TORSDOF 8
ENDMDL
MODEL 8
REMARK VINA RESULT:      -7.2      1.802      2.881
REMARK  Name = 
REMARK  9 active torsions:
REMARK  status: ('A' for Active; 'I' for Inactive)
REMARK    1  A    between atoms: C_1  and  O_2
REMARK    2  A    between atoms: O_2  and  C_3
REMARK    3  A    between atoms: C_7  and  C_8
REMARK    4  A    between atoms: C_18  and  O_19
REMARK    5  A    between atoms: C_20  and  O_21
REMARK    6  A    between atoms: O_21  and  C_22
REMARK    7  A    between atoms: C_22  and  C_23
REMARK    8  A    between atoms: C_23  and  C_24
REMARK    9  A    between atoms: C_24  and  N_25
REMARK                            x       y       z     vdW  Elec       q    Type
REMARK                         _______ _______ _______ _____ _____    ______ ____
ROOT
ATOM      1  C   UNL     1       0.383  10.534  21.557  0.00  0.00    +0.000 A 
ATOM      2  C   UNL     1       0.777   9.196  21.662  0.00  0.00    +0.000 A 
ATOM      3  C   UNL     1       1.327   8.536  20.574  0.00  0.00    +0.000 A 
ATOM      4  O   UNL     1       1.686   7.229  20.778  0.00  0.00    +0.000 OA
ATOM      5  C   UNL     1       2.250   6.545  19.727  0.00  0.00    +0.000 A 
ATOM      6  C   UNL     1       2.477   7.051  18.505  0.00  0.00    +0.000 A 
ATOM      7  C   UNL     1       2.094   8.445  18.251  0.00  0.00    +0.000 A 
ATOM      8  O   UNL     1       2.271   8.961  17.151  0.00  0.00    +0.000 OA
ATOM      9  C   UNL     1       1.499   9.199  19.364  0.00  0.00    +0.000 A 
ATOM     10  C   UNL     1       1.117  10.544  19.234  0.00  0.00    +0.000 A 
ATOM     11  C   UNL     1       0.559  11.234  20.333  0.00  0.00    +0.000 A 
ENDROOT
BRANCH   5  12
ATOM     12  C   UNL     1       2.616   5.165  20.043  0.00  0.00    +0.000 A 
ATOM     13  C   UNL     1       3.641   4.535  19.329  0.00  0.00    +0.000 A 
ATOM     14  C   UNL     1       3.988   3.217  19.621  0.00  0.00    +0.000 A 
ATOM     15  C   UNL     1       3.314   2.526  20.628  0.00  0.00    +0.000 A 
ATOM     16  C   UNL     1       2.296   3.151  21.347  0.00  0.00    +0.000 A 
ATOM     17  C   UNL     1       1.947   4.471  21.057  0.00  0.00    +0.000 A 
ENDBRANCH   5  12
BRANCH   1  19
ATOM     18  C   UNL     1      -1.304  10.712  23.244  0.00  0.00    +0.000 C 
ATOM     19  O   UNL     1      -0.124  11.231  22.630  0.00  0.00    +0.000 OA
ENDBRANCH   1  19
BRANCH  10  20
ATOM     20  O   UNL     1       1.299  11.173  18.024  0.00  0.00    +0.000 OA
ATOM     21  H   UNL     1       1.230  10.515  17.296  0.00  0.00    +0.000 HD
ENDBRANCH  10  20
BRANCH  11  22
ATOM     22  O   UNL     1       0.152  12.553  20.345  0.00  0.00    +0.000 OA
BRANCH  22  23
ATOM     23  C   UNL     1      -0.910  12.938  19.472  0.00  0.00    +0.000 C 
BRANCH  23  24
ATOM     24  C   UNL     1      -2.220  12.285  19.909  0.00  0.00    +0.000 C 
BRANCH  24  25
ATOM     25  C   UNL     1      -3.031  13.258  20.783  0.00  0.00    +0.000 C 
BRANCH  25  26
ATOM     26  N   UNL     1      -3.966  12.603  21.714  0.00  0.00    +0.000 NA
ATOM     27  C   UNL     1      -5.330  12.565  21.156  0.00  0.00    +0.000 C 
ATOM     28  C   UNL     1      -6.001  13.827  21.660  0.00  0.00    +0.000 C 
ATOM     29  C   UNL     1      -5.461  13.946  23.069  0.00  0.00    +0.000 C 
ATOM     30  C   UNL     1      -4.083  13.296  23.010  0.00  0.00    +0.000 C 
ENDBRANCH  25  26
ENDBRANCH  24  25
ENDBRANCH  23  24
ENDBRANCH  22  23
ENDBRANCH  11  22
TORSDOF 8
ENDMDL
MODEL 9
REMARK VINA RESULT:      -7.2      2.340      3.438
REMARK  Name = 
REMARK  9 active torsions:
REMARK  status: ('A' for Active; 'I' for Inactive)
REMARK    1  A    between atoms: C_1  and  O_2
REMARK    2  A    between atoms: O_2  and  C_3
REMARK    3  A    between atoms: C_7  and  C_8
REMARK    4  A    between atoms: C_18  and  O_19
REMARK    5  A    between atoms: C_20  and  O_21
REMARK    6  A    between atoms: O_21  and  C_22
REMARK    7  A    between atoms: C_22  and  C_23
REMARK    8  A    between atoms: C_23  and  C_24
REMARK    9  A    between atoms: C_24  and  N_25
REMARK                            x       y       z     vdW  Elec       q    Type
REMARK                         _______ _______ _______ _____ _____    ______ ____
ROOT
ATOM      1  C   UNL     1       0.417  10.515  21.633  0.00  0.00    +0.000 A 
ATOM      2  C   UNL     1       0.804   9.173  21.718  0.00  0.00    +0.000 A 
ATOM      3  C   UNL     1       1.336   8.521  20.616  0.00  0.00    +0.000 A 
ATOM      4  O   UNL     1       1.689   7.210  20.801  0.00  0.00    +0.000 OA
ATOM      5  C   UNL     1       2.235   6.535  19.736  0.00  0.00    +0.000 A 
ATOM      6  C   UNL     1       2.450   7.052  18.517  0.00  0.00    +0.000 A 
ATOM      7  C   UNL     1       2.073   8.452  18.283  0.00  0.00    +0.000 A 
ATOM      8  O   UNL     1       2.240   8.978  17.187  0.00  0.00    +0.000 OA
ATOM      9  C   UNL     1       1.497   9.197  19.411  0.00  0.00    +0.000 A 
ATOM     10  C   UNL     1       1.122  10.546  19.301  0.00  0.00    +0.000 A 
ATOM     11  C   UNL     1       0.583  11.227  20.414  0.00  0.00    +0.000 A 
ENDROOT
BRANCH   5  12
ATOM     12  C   UNL     1       2.596   5.149  20.032  0.00  0.00    +0.000 A 
ATOM     13  C   UNL     1       1.925   4.456  21.047  0.00  0.00    +0.000 A 
ATOM     14  C   UNL     1       2.270   3.137  21.338  0.00  0.00    +0.000 A 
ATOM     15  C   UNL     1       3.284   2.507  20.617  0.00  0.00    +0.000 A 
ATOM     16  C   UNL     1       3.951   3.190  19.601  0.00  0.00    +0.000 A 
ATOM     17  C   UNL     1       3.607   4.510  19.306  0.00  0.00    +0.000 A 
ENDBRANCH   5  12
BRANCH   1  19
ATOM     18  C   UNL     1      -1.393  10.882  23.152  0.00  0.00    +0.000 C 
ATOM     19  O   UNL     1      -0.071  11.203  22.720  0.00  0.00    +0.000 OA
ENDBRANCH   1  19
BRANCH  10  20
ATOM     20  O   UNL     1       1.294  11.187  18.096  0.00  0.00    +0.000 OA
ATOM     21  H   UNL     1       0.609  10.881  17.459  0.00  0.00    +0.000 HD
ENDBRANCH  10  20
BRANCH  11  22
ATOM     22  O   UNL     1       0.185  12.548  20.446  0.00  0.00    +0.000 OA
BRANCH  22  23
ATOM     23  C   UNL     1      -1.071  12.888  19.856  0.00  0.00    +0.000 C 
BRANCH  23  24
ATOM     24  C   UNL     1      -1.072  14.351  19.416  0.00  0.00    +0.000 C 
BRANCH  24  25
ATOM     25  C   UNL     1       0.346  14.778  18.995  0.00  0.00    +0.000 C 
BRANCH  25  26
ATOM     26  N   UNL     1       0.679  16.176  19.315  0.00  0.00    +0.000 NA
ATOM     27  C   UNL     1      -0.505  17.046  19.184  0.00  0.00    +0.000 C 
ATOM     28  C   UNL     1      -0.466  17.557  17.757  0.00  0.00    +0.000 C 
ATOM     29  C   UNL     1       1.014  17.778  17.528  0.00  0.00    +0.000 C 
ATOM     30  C   UNL     1       1.701  16.754  18.424  0.00  0.00    +0.000 C 
ENDBRANCH  25  26
ENDBRANCH  24  25
ENDBRANCH  23  24
ENDBRANCH  22  23
ENDBRANCH  11  22
TORSDOF 8
ENDMDL
