MODEL 1
REMARK VINA RESULT:      -8.0      0.000      0.000
REMARK  Name = 
REMARK  10 active torsions:
REMARK  status: ('A' for Active; 'I' for Inactive)
REMARK    1  A    between atoms: C_1  and  O_2
REMARK    2  A    between atoms: O_2  and  C_3
REMARK    3  A    between atoms: C_9  and  C_10
REMARK    4  A    between atoms: C_11  and  C_12
REMARK    5  A    between atoms: C_12  and  O_14
REMARK    6  A    between atoms: O_14  and  C_15
REMARK    7  A    between atoms: C_15  and  C_16
REMARK    8  A    between atoms: C_15  and  C_17
REMARK    9  A    between atoms: C_18  and  C_19
REMARK   10  A    between atoms: C_23  and  N_24
REMARK                            x       y       z     vdW  Elec       q    Type
REMARK                         _______ _______ _______ _____ _____    ______ ____
ROOT
ATOM      1  C   UNL     1       2.013   3.494  18.897  0.00  0.00    +0.000 C 
ATOM      2  O   UNL     1       0.878   3.877  18.637  0.00  0.00    +0.000 OA
ATOM      3  N   UNL     1       3.121   3.728  18.125  0.00  0.00    +0.000 N 
ATOM      4  C   UNL     1       3.806   2.617  17.699  0.00  0.00    +0.000 C 
ATOM      5  O   UNL     1       3.507   1.449  17.933  0.00  0.00    +0.000 OA
ATOM      6  N   UNL     1       4.959   2.877  17.006  0.00  0.00    +0.000 N 
ATOM      7  C   UNL     1       5.458   4.122  16.714  0.00  0.00    +0.000 C 
ATOM      8  C   UNL     1       6.888   4.137  16.236  0.00  0.00    +0.000 C 
ATOM      9  C   UNL     1       4.654   5.191  16.880  0.00  0.00    +0.000 C 
ATOM     10  C   UNL     1       3.238   5.005  17.401  0.00  0.00    +0.000 C 
ATOM     11  H   UNL     1       5.508   2.043  16.817  0.00  0.00    +0.000 HD
ENDROOT
BRANCH  10  12
ATOM     12  C   UNL     1       2.793   6.147  18.319  0.00  0.00    +0.000 A 
ATOM     13  C   UNL     1       2.823   5.999  19.717  0.00  0.00    +0.000 A 
ATOM     14  C   UNL     1       2.369   7.023  20.547  0.00  0.00    +0.000 A 
ATOM     15  C   UNL     1       1.882   8.207  19.996  0.00  0.00    +0.000 A 
ATOM     16  C   UNL     1       1.847   8.363  18.605  0.00  0.00    +0.000 A 
ATOM     17  C   UNL     1       2.298   7.340  17.764  0.00  0.00    +0.000 A 
BRANCH  16  18
ATOM     18  N   UNL     1       1.346   9.615  18.024  0.00  0.00    +0.000 N 
ATOM     19  O   UNL     1       2.164  10.351  17.456  0.00  0.00    +0.000 OA
ATOM     20  O   UNL     1       0.134   9.850  18.118  0.00  0.00    +0.000 OA
ENDBRANCH  16  18
ENDBRANCH  10  12
BRANCH   1  22
ATOM     21  C   UNL     1       1.371   2.881  21.081  0.00  0.00    +0.000 C 
ATOM     22  O   UNL     1       2.374   2.895  20.068  0.00  0.00    +0.000 OA
ENDBRANCH   1  22
BRANCH   9  23
ATOM     23  C   UNL     1       5.197   6.552  16.607  0.00  0.00    +0.000 C 
ATOM     24  O   UNL     1       5.094   7.108  15.522  0.00  0.00    +0.000 OA
BRANCH  23  25
ATOM     25  O   UNL     1       5.816   7.096  17.689  0.00  0.00    +0.000 OA
BRANCH  25  26
ATOM     26  C   UNL     1       7.262   7.121  17.608  0.00  0.00    +0.000 C 
ATOM     27  C   UNL     1       7.741   8.568  17.633  0.00  0.00    +0.000 C 
ATOM     28  C   UNL     1       7.848   6.344  18.781  0.00  0.00    +0.000 C 
ENDBRANCH  25  26
ENDBRANCH  23  25
ENDBRANCH   9  23
TORSDOF 6
ENDMDL
MODEL 2
REMARK VINA RESULT:      -7.0      5.956      9.011
REMARK  Name = 
REMARK  10 active torsions:
REMARK  status: ('A' for Active; 'I' for Inactive)
REMARK    1  A    between atoms: C_1  and  O_2
REMARK    2  A    between atoms: O_2  and  C_3
REMARK    3  A    between atoms: C_9  and  C_10
REMARK    4  A    between atoms: C_11  and  C_12
REMARK    5  A    between atoms: C_12  and  O_14
REMARK    6  A    between atoms: O_14  and  C_15
REMARK    7  A    between atoms: C_15  and  C_16
REMARK    8  A    between atoms: C_15  and  C_17
REMARK    9  A    between atoms: C_18  and  C_19
REMARK   10  A    between atoms: C_23  and  N_24
REMARK                            x       y       z     vdW  Elec       q    Type
REMARK                         _______ _______ _______ _____ _____    ______ ____
ROOT
ATOM      1  C   UNL     1       0.145  10.065  19.322  0.00  0.00    +0.000 C 
ATOM      2  O   UNL     1      -1.035   9.787  19.141  0.00  0.00    +0.000 OA
ATOM      3  N   UNL     1       0.751  11.229  18.925  0.00  0.00    +0.000 N 
ATOM      4  C   UNL     1       1.836  11.092  18.095  0.00  0.00    +0.000 C 
ATOM      5  O   UNL     1       2.294  10.035  17.671  0.00  0.00    +0.000 OA
ATOM      6  N   UNL     1       2.479  12.262  17.784  0.00  0.00    +0.000 N 
ATOM      7  C   UNL     1       2.127  13.514  18.224  0.00  0.00    +0.000 C 
ATOM      8  C   UNL     1       3.173  14.578  18.011  0.00  0.00    +0.000 C 
ATOM      9  C   UNL     1       0.917  13.677  18.794  0.00  0.00    +0.000 C 
ATOM     10  C   UNL     1      -0.014  12.487  18.960  0.00  0.00    +0.000 C 
ATOM     11  H   UNL     1       3.348  12.118  17.278  0.00  0.00    +0.000 HD
ENDROOT
BRANCH  10  12
ATOM     12  C   UNL     1      -0.824  12.549  20.258  0.00  0.00    +0.000 A 
ATOM     13  C   UNL     1      -0.190  12.421  21.507  0.00  0.00    +0.000 A 
ATOM     14  C   UNL     1      -0.937  12.427  22.684  0.00  0.00    +0.000 A 
ATOM     15  C   UNL     1      -2.324  12.561  22.633  0.00  0.00    +0.000 A 
ATOM     16  C   UNL     1      -2.964  12.686  21.393  0.00  0.00    +0.000 A 
ATOM     17  C   UNL     1      -2.223  12.679  20.207  0.00  0.00    +0.000 A 
BRANCH  16  18
ATOM     18  N   UNL     1      -4.423  12.840  21.338  0.00  0.00    +0.000 N 
ATOM     19  O   UNL     1      -5.087  12.357  22.265  0.00  0.00    +0.000 OA
ATOM     20  O   UNL     1      -4.901  13.461  20.379  0.00  0.00    +0.000 OA
ENDBRANCH  16  18
ENDBRANCH  10  12
BRANCH   1  22
ATOM     21  C   UNL     1       0.478   8.829  21.302  0.00  0.00    +0.000 C 
ATOM     22  O   UNL     1       1.006   9.319  20.072  0.00  0.00    +0.000 OA
ENDBRANCH   1  22
BRANCH   9  23
ATOM     23  C   UNL     1       0.540  15.022  19.313  0.00  0.00    +0.000 C 
ATOM     24  O   UNL     1       1.000  15.496  20.343  0.00  0.00    +0.000 OA
BRANCH  23  25
ATOM     25  O   UNL     1      -0.369  15.654  18.521  0.00  0.00    +0.000 OA
BRANCH  25  26
ATOM     26  C   UNL     1      -0.469  17.083  18.739  0.00  0.00    +0.000 C 
ATOM     27  C   UNL     1      -0.376  17.801  17.398  0.00  0.00    +0.000 C 
ATOM     28  C   UNL     1      -1.795  17.397  19.422  0.00  0.00    +0.000 C 
ENDBRANCH  25  26
ENDBRANCH  23  25
ENDBRANCH   9  23
TORSDOF 6
ENDMDL
MODEL 3
REMARK VINA RESULT:      -6.9      8.945     11.802
REMARK  Name = 
REMARK  10 active torsions:
REMARK  status: ('A' for Active; 'I' for Inactive)
REMARK    1  A    between atoms: C_1  and  O_2
REMARK    2  A    between atoms: O_2  and  C_3
REMARK    3  A    between atoms: C_9  and  C_10
REMARK    4  A    between atoms: C_11  and  C_12
REMARK    5  A    between atoms: C_12  and  O_14
REMARK    6  A    between atoms: O_14  and  C_15
REMARK    7  A    between atoms: C_15  and  C_16
REMARK    8  A    between atoms: C_15  and  C_17
REMARK    9  A    between atoms: C_18  and  C_19
REMARK   10  A    between atoms: C_23  and  N_24
REMARK                            x       y       z     vdW  Elec       q    Type
REMARK                         _______ _______ _______ _____ _____    ______ ____
ROOT
ATOM      1  C   UNL     1      -5.951  13.169  23.454  0.00  0.00    +0.000 C 
ATOM      2  O   UNL     1      -5.976  14.390  23.555  0.00  0.00    +0.000 OA
ATOM      3  N   UNL     1      -6.279  12.464  22.325  0.00  0.00    +0.000 N 
ATOM      4  C   UNL     1      -7.284  11.539  22.461  0.00  0.00    +0.000 C 
ATOM      5  O   UNL     1      -7.916  11.303  23.487  0.00  0.00    +0.000 OA
ATOM      6  N   UNL     1      -7.532  10.784  21.344  0.00  0.00    +0.000 N 
ATOM      7  C   UNL     1      -6.875  10.886  20.143  0.00  0.00    +0.000 C 
ATOM      8  C   UNL     1      -7.107   9.738  19.194  0.00  0.00    +0.000 C 
ATOM      9  C   UNL     1      -6.100  11.967  19.925  0.00  0.00    +0.000 C 
ATOM     10  C   UNL     1      -5.950  13.027  21.005  0.00  0.00    +0.000 C 
ATOM     11  H   UNL     1      -8.187  10.026  21.512  0.00  0.00    +0.000 HD
ENDROOT
BRANCH  10  12
ATOM     12  C   UNL     1      -4.541  13.626  21.049  0.00  0.00    +0.000 A 
ATOM     13  C   UNL     1      -4.324  14.977  20.721  0.00  0.00    +0.000 A 
ATOM     14  C   UNL     1      -3.035  15.505  20.712  0.00  0.00    +0.000 A 
ATOM     15  C   UNL     1      -1.945  14.696  21.032  0.00  0.00    +0.000 A 
ATOM     16  C   UNL     1      -2.151  13.350  21.358  0.00  0.00    +0.000 A 
ATOM     17  C   UNL     1      -3.441  12.811  21.367  0.00  0.00    +0.000 A 
BRANCH  16  18
ATOM     18  N   UNL     1      -1.005  12.501  21.707  0.00  0.00    +0.000 N 
ATOM     19  O   UNL     1      -0.038  13.041  22.260  0.00  0.00    +0.000 OA
ATOM     20  O   UNL     1      -1.083  11.292  21.447  0.00  0.00    +0.000 OA
ENDBRANCH  16  18
ENDBRANCH  10  12
BRANCH   1  22
ATOM     21  C   UNL     1      -4.119  12.585  24.818  0.00  0.00    +0.000 C 
ATOM     22  O   UNL     1      -5.459  12.327  24.408  0.00  0.00    +0.000 OA
ENDBRANCH   1  22
BRANCH   9  23
ATOM     23  C   UNL     1      -5.348  12.068  18.642  0.00  0.00    +0.000 C 
ATOM     24  O   UNL     1      -5.684  12.806  17.726  0.00  0.00    +0.000 OA
BRANCH  23  25
ATOM     25  O   UNL     1      -4.260  11.252  18.606  0.00  0.00    +0.000 OA
BRANCH  25  26
ATOM     26  C   UNL     1      -3.401  11.442  17.456  0.00  0.00    +0.000 C 
ATOM     27  C   UNL     1      -2.001  11.815  17.931  0.00  0.00    +0.000 C 
ATOM     28  C   UNL     1      -3.362  10.156  16.637  0.00  0.00    +0.000 C 
ENDBRANCH  25  26
ENDBRANCH  23  25
ENDBRANCH   9  23
TORSDOF 6
ENDMDL
MODEL 4
REMARK VINA RESULT:      -6.6      5.909      8.795
REMARK  Name = 
REMARK  10 active torsions:
REMARK  status: ('A' for Active; 'I' for Inactive)
REMARK    1  A    between atoms: C_1  and  O_2
REMARK    2  A    between atoms: O_2  and  C_3
REMARK    3  A    between atoms: C_9  and  C_10
REMARK    4  A    between atoms: C_11  and  C_12
REMARK    5  A    between atoms: C_12  and  O_14
REMARK    6  A    between atoms: O_14  and  C_15
REMARK    7  A    between atoms: C_15  and  C_16
REMARK    8  A    between atoms: C_15  and  C_17
REMARK    9  A    between atoms: C_18  and  C_19
REMARK   10  A    between atoms: C_23  and  N_24
REMARK                            x       y       z     vdW  Elec       q    Type
REMARK                         _______ _______ _______ _____ _____    ______ ____
ROOT
ATOM      1  C   UNL     1       0.159  10.028  19.317  0.00  0.00    +0.000 C 
ATOM      2  O   UNL     1      -1.021   9.750  19.138  0.00  0.00    +0.000 OA
ATOM      3  N   UNL     1       0.766  11.190  18.918  0.00  0.00    +0.000 N 
ATOM      4  C   UNL     1       1.849  11.052  18.086  0.00  0.00    +0.000 C 
ATOM      5  O   UNL     1       2.306   9.994  17.663  0.00  0.00    +0.000 OA
ATOM      6  N   UNL     1       2.493  12.221  17.774  0.00  0.00    +0.000 N 
ATOM      7  C   UNL     1       2.144  13.473  18.213  0.00  0.00    +0.000 C 
ATOM      8  C   UNL     1       3.190  14.536  17.998  0.00  0.00    +0.000 C 
ATOM      9  C   UNL     1       0.934  13.638  18.785  0.00  0.00    +0.000 C 
ATOM     10  C   UNL     1       0.002  12.449  18.953  0.00  0.00    +0.000 C 
ATOM     11  H   UNL     1       3.361  12.075  17.267  0.00  0.00    +0.000 HD
ENDROOT
BRANCH  10  12
ATOM     12  C   UNL     1      -0.806  12.513  20.253  0.00  0.00    +0.000 A 
ATOM     13  C   UNL     1      -0.180  12.326  21.498  0.00  0.00    +0.000 A 
ATOM     14  C   UNL     1      -0.927  12.333  22.675  0.00  0.00    +0.000 A 
ATOM     15  C   UNL     1      -2.306  12.530  22.626  0.00  0.00    +0.000 A 
ATOM     16  C   UNL     1      -2.939  12.715  21.391  0.00  0.00    +0.000 A 
ATOM     17  C   UNL     1      -2.197  12.706  20.205  0.00  0.00    +0.000 A 
BRANCH  16  18
ATOM     18  N   UNL     1      -4.389  12.935  21.340  0.00  0.00    +0.000 N 
ATOM     19  O   UNL     1      -5.091  12.328  22.160  0.00  0.00    +0.000 OA
ATOM     20  O   UNL     1      -4.823  13.728  20.493  0.00  0.00    +0.000 OA
ENDBRANCH  16  18
ENDBRANCH  10  12
BRANCH   1  22
ATOM     21  C   UNL     1       0.473   8.733  21.262  0.00  0.00    +0.000 C 
ATOM     22  O   UNL     1       1.021   9.281  20.067  0.00  0.00    +0.000 OA
ENDBRANCH   1  22
BRANCH   9  23
ATOM     23  C   UNL     1       0.559  14.984  19.303  0.00  0.00    +0.000 C 
ATOM     24  O   UNL     1      -0.218  15.732  18.725  0.00  0.00    +0.000 OA
BRANCH  23  25
ATOM     25  O   UNL     1       1.176  15.284  20.478  0.00  0.00    +0.000 OA
BRANCH  25  26
ATOM     26  C   UNL     1       0.644  16.446  21.161  0.00  0.00    +0.000 C 
ATOM     27  C   UNL     1      -0.297  15.990  22.269  0.00  0.00    +0.000 C 
ATOM     28  C   UNL     1       1.795  17.262  21.738  0.00  0.00    +0.000 C 
ENDBRANCH  25  26
ENDBRANCH  23  25
ENDBRANCH   9  23
TORSDOF 6
ENDMDL
MODEL 5
REMARK VINA RESULT:      -6.6      7.002     11.729
REMARK  Name = 
REMARK  10 active torsions:
REMARK  status: ('A' for Active; 'I' for Inactive)
REMARK    1  A    between atoms: C_1  and  O_2
REMARK    2  A    between atoms: O_2  and  C_3
REMARK    3  A    between atoms: C_9  and  C_10
REMARK    4  A    between atoms: C_11  and  C_12
REMARK    5  A    between atoms: C_12  and  O_14
REMARK    6  A    between atoms: O_14  and  C_15
REMARK    7  A    between atoms: C_15  and  C_16
REMARK    8  A    between atoms: C_15  and  C_17
REMARK    9  A    between atoms: C_18  and  C_19
REMARK   10  A    between atoms: C_23  and  N_24
REMARK                            x       y       z     vdW  Elec       q    Type
REMARK                         _______ _______ _______ _____ _____    ______ ____
ROOT
ATOM      1  C   UNL     1       0.955  14.577  21.433  0.00  0.00    +0.000 C 
ATOM      2  O   UNL     1       0.950  14.555  20.207  0.00  0.00    +0.000 OA
ATOM      3  N   UNL     1      -0.161  14.634  22.225  0.00  0.00    +0.000 N 
ATOM      4  C   UNL     1      -0.230  15.691  23.098  0.00  0.00    +0.000 C 
ATOM      5  O   UNL     1       0.603  16.586  23.216  0.00  0.00    +0.000 OA
ATOM      6  N   UNL     1      -1.309  15.678  23.942  0.00  0.00    +0.000 N 
ATOM      7  C   UNL     1      -2.292  14.720  23.975  0.00  0.00    +0.000 C 
ATOM      8  C   UNL     1      -3.175  14.759  25.195  0.00  0.00    +0.000 C 
ATOM      9  C   UNL     1      -2.377  13.852  22.947  0.00  0.00    +0.000 C 
ATOM     10  C   UNL     1      -1.384  13.933  21.798  0.00  0.00    +0.000 C 
ATOM     11  H   UNL     1      -1.265  16.397  24.658  0.00  0.00    +0.000 HD
ENDROOT
BRANCH  10  12
ATOM     12  C   UNL     1      -1.008  12.554  21.248  0.00  0.00    +0.000 A 
ATOM     13  C   UNL     1      -1.403  12.164  19.955  0.00  0.00    +0.000 A 
ATOM     14  C   UNL     1      -1.104  10.889  19.478  0.00  0.00    +0.000 A 
ATOM     15  C   UNL     1      -0.406   9.987  20.280  0.00  0.00    +0.000 A 
ATOM     16  C   UNL     1      -0.010  10.365  21.569  0.00  0.00    +0.000 A 
ATOM     17  C   UNL     1      -0.309  11.642  22.057  0.00  0.00    +0.000 A 
BRANCH  16  18
ATOM     18  N   UNL     1       0.736   9.421  22.409  0.00  0.00    +0.000 N 
ATOM     19  O   UNL     1       1.383   8.532  21.838  0.00  0.00    +0.000 OA
ATOM     20  O   UNL     1       0.691   9.582  23.636  0.00  0.00    +0.000 OA
ENDBRANCH  16  18
ENDBRANCH  10  12
BRANCH   1  22
ATOM     21  C   UNL     1       3.304  14.725  21.565  0.00  0.00    +0.000 C 
ATOM     22  O   UNL     1       2.070  14.407  22.201  0.00  0.00    +0.000 OA
ENDBRANCH   1  22
BRANCH   9  23
ATOM     23  C   UNL     1      -3.413  12.782  22.990  0.00  0.00    +0.000 C 
ATOM     24  O   UNL     1      -3.363  11.833  23.759  0.00  0.00    +0.000 OA
BRANCH  23  25
ATOM     25  O   UNL     1      -4.407  12.978  22.082  0.00  0.00    +0.000 OA
BRANCH  25  26
ATOM     26  C   UNL     1      -5.741  13.020  22.646  0.00  0.00    +0.000 C 
ATOM     27  C   UNL     1      -6.114  14.468  22.944  0.00  0.00    +0.000 C 
ATOM     28  C   UNL     1      -6.726  12.406  21.659  0.00  0.00    +0.000 C 
ENDBRANCH  25  26
ENDBRANCH  23  25
ENDBRANCH   9  23
TORSDOF 6
ENDMDL
MODEL 6
REMARK VINA RESULT:      -6.6      6.575     10.661
REMARK  Name = 
REMARK  10 active torsions:
REMARK  status: ('A' for Active; 'I' for Inactive)
REMARK    1  A    between atoms: C_1  and  O_2
REMARK    2  A    between atoms: O_2  and  C_3
REMARK    3  A    between atoms: C_9  and  C_10
REMARK    4  A    between atoms: C_11  and  C_12
REMARK    5  A    between atoms: C_12  and  O_14
REMARK    6  A    between atoms: O_14  and  C_15
REMARK    7  A    between atoms: C_15  and  C_16
REMARK    8  A    between atoms: C_15  and  C_17
REMARK    9  A    between atoms: C_18  and  C_19
REMARK   10  A    between atoms: C_23  and  N_24
REMARK                            x       y       z     vdW  Elec       q    Type
REMARK                         _______ _______ _______ _____ _____    ______ ____
ROOT
ATOM      1  C   UNL     1      -3.247  10.770  17.528  0.00  0.00    +0.000 C 
ATOM      2  O   UNL     1      -2.832   9.653  17.815  0.00  0.00    +0.000 OA
ATOM      3  N   UNL     1      -3.757  11.675  18.421  0.00  0.00    +0.000 N 
ATOM      4  C   UNL     1      -5.034  12.115  18.173  0.00  0.00    +0.000 C 
ATOM      5  O   UNL     1      -5.753  11.761  17.243  0.00  0.00    +0.000 OA
ATOM      6  N   UNL     1      -5.489  13.086  19.026  0.00  0.00    +0.000 N 
ATOM      7  C   UNL     1      -4.788  13.628  20.074  0.00  0.00    +0.000 C 
ATOM      8  C   UNL     1      -5.377  14.892  20.646  0.00  0.00    +0.000 C 
ATOM      9  C   UNL     1      -3.665  13.005  20.486  0.00  0.00    +0.000 C 
ATOM     10  C   UNL     1      -3.189  11.747  19.778  0.00  0.00    +0.000 C 
ATOM     11  H   UNL     1      -6.380  13.482  18.742  0.00  0.00    +0.000 HD
ENDROOT
BRANCH  10  12
ATOM     12  C   UNL     1      -1.663  11.662  19.691  0.00  0.00    +0.000 A 
ATOM     13  C   UNL     1      -0.942  12.519  18.839  0.00  0.00    +0.000 A 
ATOM     14  C   UNL     1       0.442  12.403  18.724  0.00  0.00    +0.000 A 
ATOM     15  C   UNL     1       1.127  11.434  19.457  0.00  0.00    +0.000 A 
ATOM     16  C   UNL     1       0.418  10.575  20.305  0.00  0.00    +0.000 A 
ATOM     17  C   UNL     1      -0.972  10.682  20.425  0.00  0.00    +0.000 A 
BRANCH  16  18
ATOM     18  N   UNL     1       1.139   9.564  21.087  0.00  0.00    +0.000 N 
ATOM     19  O   UNL     1       1.458   8.514  20.513  0.00  0.00    +0.000 OA
ATOM     20  O   UNL     1       1.403   9.828  22.268  0.00  0.00    +0.000 OA
ENDBRANCH  16  18
ENDBRANCH  10  12
BRANCH   1  22
ATOM     21  C   UNL     1      -3.042  10.424  15.205  0.00  0.00    +0.000 C 
ATOM     22  O   UNL     1      -3.135  11.339  16.293  0.00  0.00    +0.000 OA
ENDBRANCH   1  22
BRANCH   9  23
ATOM     23  C   UNL     1      -2.872  13.606  21.595  0.00  0.00    +0.000 C 
ATOM     24  O   UNL     1      -2.184  14.608  21.460  0.00  0.00    +0.000 OA
BRANCH  23  25
ATOM     25  O   UNL     1      -2.996  12.916  22.761  0.00  0.00    +0.000 OA
BRANCH  25  26
ATOM     26  C   UNL     1      -3.877  13.529  23.735  0.00  0.00    +0.000 C 
ATOM     27  C   UNL     1      -4.543  12.439  24.565  0.00  0.00    +0.000 C 
ATOM     28  C   UNL     1      -3.069  14.463  24.629  0.00  0.00    +0.000 C 
ENDBRANCH  25  26
ENDBRANCH  23  25
ENDBRANCH   9  23
TORSDOF 6
ENDMDL
MODEL 7
REMARK VINA RESULT:      -6.6      6.926     10.258
REMARK  Name = 
REMARK  10 active torsions:
REMARK  status: ('A' for Active; 'I' for Inactive)
REMARK    1  A    between atoms: C_1  and  O_2
REMARK    2  A    between atoms: O_2  and  C_3
REMARK    3  A    between atoms: C_9  and  C_10
REMARK    4  A    between atoms: C_11  and  C_12
REMARK    5  A    between atoms: C_12  and  O_14
REMARK    6  A    between atoms: O_14  and  C_15
REMARK    7  A    between atoms: C_15  and  C_16
REMARK    8  A    between atoms: C_15  and  C_17
REMARK    9  A    between atoms: C_18  and  C_19
REMARK   10  A    between atoms: C_23  and  N_24
REMARK                            x       y       z     vdW  Elec       q    Type
REMARK                         _______ _______ _______ _____ _____    ______ ____
ROOT
ATOM      1  C   UNL     1      -5.616  12.935  21.293  0.00  0.00    +0.000 C 
ATOM      2  O   UNL     1      -5.538  14.119  21.597  0.00  0.00    +0.000 OA
ATOM      3  N   UNL     1      -5.000  12.355  20.215  0.00  0.00    +0.000 N 
ATOM      4  C   UNL     1      -5.822  11.718  19.319  0.00  0.00    +0.000 C 
ATOM      5  O   UNL     1      -7.045  11.637  19.390  0.00  0.00    +0.000 OA
ATOM      6  N   UNL     1      -5.176  11.069  18.299  0.00  0.00    +0.000 N 
ATOM      7  C   UNL     1      -3.817  11.015  18.114  0.00  0.00    +0.000 C 
ATOM      8  C   UNL     1      -3.352   9.980  17.122  0.00  0.00    +0.000 C 
ATOM      9  C   UNL     1      -3.040  11.863  18.817  0.00  0.00    +0.000 C 
ATOM     10  C   UNL     1      -3.669  12.833  19.804  0.00  0.00    +0.000 C 
ATOM     11  H   UNL     1      -5.797  10.502  17.729  0.00  0.00    +0.000 HD
ENDROOT
BRANCH  10  12
ATOM     12  C   UNL     1      -2.804  13.049  21.049  0.00  0.00    +0.000 A 
ATOM     13  C   UNL     1      -2.739  12.071  22.058  0.00  0.00    +0.000 A 
ATOM     14  C   UNL     1      -1.992  12.294  23.213  0.00  0.00    +0.000 A 
ATOM     15  C   UNL     1      -1.298  13.493  23.378  0.00  0.00    +0.000 A 
ATOM     16  C   UNL     1      -1.359  14.473  22.380  0.00  0.00    +0.000 A 
ATOM     17  C   UNL     1      -2.108  14.259  21.219  0.00  0.00    +0.000 A 
BRANCH  16  18
ATOM     18  N   UNL     1      -0.619  15.730  22.547  0.00  0.00    +0.000 N 
ATOM     19  O   UNL     1       0.362  15.722  23.303  0.00  0.00    +0.000 OA
ATOM     20  O   UNL     1      -1.006  16.717  21.906  0.00  0.00    +0.000 OA
ENDBRANCH  16  18
ENDBRANCH  10  12
BRANCH   1  22
ATOM     21  C   UNL     1      -7.297  12.438  22.870  0.00  0.00    +0.000 C 
ATOM     22  O   UNL     1      -6.217  11.980  22.061  0.00  0.00    +0.000 OA
ENDBRANCH   1  22
BRANCH   9  23
ATOM     23  C   UNL     1      -1.560  11.787  18.656  0.00  0.00    +0.000 C 
ATOM     24  O   UNL     1      -0.916  12.588  17.992  0.00  0.00    +0.000 OA
BRANCH  23  25
ATOM     25  O   UNL     1      -1.014  10.733  19.321  0.00  0.00    +0.000 OA
BRANCH  25  26
ATOM     26  C   UNL     1       0.413  10.834  19.545  0.00  0.00    +0.000 C 
ATOM     27  C   UNL     1       0.690  10.784  21.043  0.00  0.00    +0.000 C 
ATOM     28  C   UNL     1       1.119   9.686  18.833  0.00  0.00    +0.000 C 
ENDBRANCH  25  26
ENDBRANCH  23  25
ENDBRANCH   9  23
TORSDOF 6
ENDMDL
MODEL 8
REMARK VINA RESULT:      -6.5      8.969     11.656
REMARK  Name = 
REMARK  10 active torsions:
REMARK  status: ('A' for Active; 'I' for Inactive)
REMARK    1  A    between atoms: C_1  and  O_2
REMARK    2  A    between atoms: O_2  and  C_3
REMARK    3  A    between atoms: C_9  and  C_10
REMARK    4  A    between atoms: C_11  and  C_12
REMARK    5  A    between atoms: C_12  and  O_14
REMARK    6  A    between atoms: O_14  and  C_15
REMARK    7  A    between atoms: C_15  and  C_16
REMARK    8  A    between atoms: C_15  and  C_17
REMARK    9  A    between atoms: C_18  and  C_19
REMARK   10  A    between atoms: C_23  and  N_24
REMARK                            x       y       z     vdW  Elec       q    Type
REMARK                         _______ _______ _______ _____ _____    ______ ____
ROOT
ATOM      1  C   UNL     1      -1.540  13.749  20.438  0.00  0.00    +0.000 C 
ATOM      2  O   UNL     1      -1.507  13.444  21.625  0.00  0.00    +0.000 OA
ATOM      3  N   UNL     1      -2.074  12.977  19.439  0.00  0.00    +0.000 N 
ATOM      4  C   UNL     1      -1.226  12.648  18.411  0.00  0.00    +0.000 C 
ATOM      5  O   UNL     1      -0.043  12.968  18.318  0.00  0.00    +0.000 OA
ATOM      6  N   UNL     1      -1.804  11.953  17.382  0.00  0.00    +0.000 N 
ATOM      7  C   UNL     1      -3.121  11.573  17.309  0.00  0.00    +0.000 C 
ATOM      8  C   UNL     1      -3.576  11.116  15.946  0.00  0.00    +0.000 C 
ATOM      9  C   UNL     1      -3.873  11.644  18.426  0.00  0.00    +0.000 C 
ATOM     10  C   UNL     1      -3.264  12.158  19.721  0.00  0.00    +0.000 C 
ATOM     11  H   UNL     1      -1.189  11.837  16.582  0.00  0.00    +0.000 HD
ENDROOT
BRANCH  10  12
ATOM     12  C   UNL     1      -4.256  12.978  20.552  0.00  0.00    +0.000 A 
ATOM     13  C   UNL     1      -4.731  14.217  20.087  0.00  0.00    +0.000 A 
ATOM     14  C   UNL     1      -5.593  14.984  20.869  0.00  0.00    +0.000 A 
ATOM     15  C   UNL     1      -5.993  14.527  22.124  0.00  0.00    +0.000 A 
ATOM     16  C   UNL     1      -5.523  13.296  22.596  0.00  0.00    +0.000 A 
ATOM     17  C   UNL     1      -4.656  12.520  21.819  0.00  0.00    +0.000 A 
BRANCH  16  18
ATOM     18  N   UNL     1      -5.955  12.807  23.911  0.00  0.00    +0.000 N 
ATOM     19  O   UNL     1      -5.154  12.119  24.559  0.00  0.00    +0.000 OA
ATOM     20  O   UNL     1      -7.085  13.126  24.303  0.00  0.00    +0.000 OA
ENDBRANCH  16  18
ENDBRANCH  10  12
BRANCH   1  22
ATOM     21  C   UNL     1      -1.386  16.069  20.826  0.00  0.00    +0.000 C 
ATOM     22  O   UNL     1      -1.176  14.968  19.946  0.00  0.00    +0.000 OA
ENDBRANCH   1  22
BRANCH   9  23
ATOM     23  C   UNL     1      -5.314  11.274  18.350  0.00  0.00    +0.000 C 
ATOM     24  O   UNL     1      -6.143  11.933  17.738  0.00  0.00    +0.000 OA
BRANCH  23  25
ATOM     25  O   UNL     1      -5.600  10.135  19.037  0.00  0.00    +0.000 OA
BRANCH  25  26
ATOM     26  C   UNL     1      -7.005   9.945  19.334  0.00  0.00    +0.000 C 
ATOM     27  C   UNL     1      -7.226   8.517  19.820  0.00  0.00    +0.000 C 
ATOM     28  C   UNL     1      -7.435  10.945  20.401  0.00  0.00    +0.000 C 
ENDBRANCH  25  26
ENDBRANCH  23  25
ENDBRANCH   9  23
TORSDOF 6
ENDMDL
MODEL 9
REMARK VINA RESULT:      -6.5      7.994     11.647
REMARK  Name = 
REMARK  10 active torsions:
REMARK  status: ('A' for Active; 'I' for Inactive)
REMARK    1  A    between atoms: C_1  and  O_2
REMARK    2  A    between atoms: O_2  and  C_3
REMARK    3  A    between atoms: C_9  and  C_10
REMARK    4  A    between atoms: C_11  and  C_12
REMARK    5  A    between atoms: C_12  and  O_14
REMARK    6  A    between atoms: O_14  and  C_15
REMARK    7  A    between atoms: C_15  and  C_16
REMARK    8  A    between atoms: C_15  and  C_17
REMARK    9  A    between atoms: C_18  and  C_19
REMARK   10  A    between atoms: C_23  and  N_24
REMARK                            x       y       z     vdW  Elec       q    Type
REMARK                         _______ _______ _______ _____ _____    ______ ____
ROOT
ATOM      1  C   UNL     1      -2.062  12.348  23.255  0.00  0.00    +0.000 C 
ATOM      2  O   UNL     1      -1.151  13.167  23.295  0.00  0.00    +0.000 OA
ATOM      3  N   UNL     1      -3.347  12.615  22.860  0.00  0.00    +0.000 N 
ATOM      4  C   UNL     1      -4.332  12.334  23.775  0.00  0.00    +0.000 C 
ATOM      5  O   UNL     1      -4.161  11.884  24.905  0.00  0.00    +0.000 OA
ATOM      6  N   UNL     1      -5.612  12.524  23.325  0.00  0.00    +0.000 N 
ATOM      7  C   UNL     1      -5.968  12.963  22.075  0.00  0.00    +0.000 C 
ATOM      8  C   UNL     1      -7.422  12.776  21.726  0.00  0.00    +0.000 C 
ATOM      9  C   UNL     1      -5.015  13.502  21.289  0.00  0.00    +0.000 C 
ATOM     10  C   UNL     1      -3.580  13.592  21.784  0.00  0.00    +0.000 C 
ATOM     11  H   UNL     1      -6.317  12.186  23.974  0.00  0.00    +0.000 HD
ENDROOT
BRANCH  10  12
ATOM     12  C   UNL     1      -2.557  13.366  20.667  0.00  0.00    +0.000 A 
ATOM     13  C   UNL     1      -1.712  14.407  20.244  0.00  0.00    +0.000 A 
ATOM     14  C   UNL     1      -0.818  14.212  19.192  0.00  0.00    +0.000 A 
ATOM     15  C   UNL     1      -0.753  12.976  18.549  0.00  0.00    +0.000 A 
ATOM     16  C   UNL     1      -1.593  11.934  18.962  0.00  0.00    +0.000 A 
ATOM     17  C   UNL     1      -2.494  12.122  20.015  0.00  0.00    +0.000 A 
BRANCH  16  18
ATOM     18  N   UNL     1      -1.516  10.629  18.294  0.00  0.00    +0.000 N 
ATOM     19  O   UNL     1      -2.567  10.151  17.847  0.00  0.00    +0.000 OA
ATOM     20  O   UNL     1      -0.403  10.093  18.201  0.00  0.00    +0.000 OA
ENDBRANCH  16  18
ENDBRANCH  10  12
BRANCH   1  22
ATOM     21  C   UNL     1      -0.714  10.442  22.924  0.00  0.00    +0.000 C 
ATOM     22  O   UNL     1      -1.904  11.009  23.466  0.00  0.00    +0.000 OA
ENDBRANCH   1  22
BRANCH   9  23
ATOM     23  C   UNL     1      -5.380  13.945  19.913  0.00  0.00    +0.000 C 
ATOM     24  O   UNL     1      -5.681  15.098  19.639  0.00  0.00    +0.000 OA
BRANCH  23  25
ATOM     25  O   UNL     1      -5.343  12.929  19.009  0.00  0.00    +0.000 OA
BRANCH  25  26
ATOM     26  C   UNL     1      -6.614  12.633  18.381  0.00  0.00    +0.000 C 
ATOM     27  C   UNL     1      -6.597  13.148  16.946  0.00  0.00    +0.000 C 
ATOM     28  C   UNL     1      -6.852  11.128  18.405  0.00  0.00    +0.000 C 
ENDBRANCH  25  26
ENDBRANCH  23  25
ENDBRANCH   9  23
TORSDOF 6
ENDMDL
