MODEL 1
REMARK VINA RESULT:      -7.3      0.000      0.000
REMARK  Name = 
REMARK  6 active torsions:
REMARK  status: ('A' for Active; 'I' for Inactive)
REMARK    1  A    between atoms: C_1  and  O_2
REMARK    2  A    between atoms: O_2  and  C_3
REMARK    3  A    between atoms: C_6  and  C_7
REMARK    4  A    between atoms: C_7  and  N_8
REMARK    5  A    between atoms: C_10  and  S_11
REMARK    6  A    between atoms: S_11  and  C_14
REMARK                            x       y       z     vdW  Elec       q    Type
REMARK                         _______ _______ _______ _____ _____    ______ ____
ROOT
ATOM      1  N   UNL     1      -0.118  13.882  19.154  0.00  0.00    +0.000 N 
ATOM      2  C   UNL     1      -0.018  12.763  18.276  0.00  0.00    +0.000 A 
ATOM      3  C   UNL     1      -0.531  11.569  18.640  0.00  0.00    +0.000 A 
ATOM      4  C   UNL     1      -1.986  11.914  18.719  0.00  0.00    +0.000 A 
ATOM      5  O   UNL     1      -2.827  11.332  18.049  0.00  0.00    +0.000 OA
ATOM      6  C   UNL     1      -2.314  13.008  19.692  0.00  0.00    +0.000 A 
ATOM      7  C   UNL     1      -3.491  12.784  20.409  0.00  0.00    +0.000 A 
ATOM      8  C   UNL     1      -3.332  12.883  21.776  0.00  0.00    +0.000 A 
ATOM      9  C   UNL     1      -2.136  13.276  22.328  0.00  0.00    +0.000 A 
ATOM     10  C   UNL     1      -1.059  13.797  21.552  0.00  0.00    +0.000 A 
ATOM     11  C   UNL     1      -1.160  13.749  20.150  0.00  0.00    +0.000 A 
ATOM     12  O   UNL     1      -2.125  12.944  23.666  0.00  0.00    +0.000 OA
ATOM     13  C   UNL     1      -3.394  12.246  23.827  0.00  0.00    +0.000 C 
ATOM     14  O   UNL     1      -4.211  12.332  22.646  0.00  0.00    +0.000 OA
ENDROOT
BRANCH   3  15
ATOM     15  S   UNL     1       0.174  10.868  20.125  0.00  0.00    +0.000 S 
ATOM     16  O   UNL     1       1.256  11.691  20.642  0.00  0.00    +0.000 OA
ATOM     17  O   UNL     1      -0.879  10.414  21.016  0.00  0.00    +0.000 OA
BRANCH  15  18
ATOM     18  C   UNL     1       1.019   9.388  19.592  0.00  0.00    +0.000 A 
ATOM     19  C   UNL     1       1.484   9.293  18.279  0.00  0.00    +0.000 A 
ATOM     20  C   UNL     1       2.231   8.175  17.898  0.00  0.00    +0.000 A 
ATOM     21  C   UNL     1       2.523   7.178  18.831  0.00  0.00    +0.000 A 
ATOM     22 CL   UNL     1       3.452   5.812  18.356  0.00  0.00    +0.000 Cl
ATOM     23  C   UNL     1       2.087   7.291  20.151  0.00  0.00    +0.000 A 
ATOM     24  C   UNL     1       1.333   8.400  20.537  0.00  0.00    +0.000 A 
ENDBRANCH  15  18
ENDBRANCH   3  15
BRANCH   1  25
ATOM     25  C   UNL     1       0.809  15.025  18.840  0.00  0.00    +0.000 C 
BRANCH  25  29
ATOM     26  C   UNL     1       5.202  15.079  19.252  0.00  0.00    +0.000 A 
ATOM     27  C   UNL     1       4.564  14.940  18.015  0.00  0.00    +0.000 A 
ATOM     28  C   UNL     1       3.175  14.832  17.894  0.00  0.00    +0.000 A 
ATOM     29  C   UNL     1       2.336  14.842  19.021  0.00  0.00    +0.000 A 
ATOM     30  C   UNL     1       2.999  14.902  20.282  0.00  0.00    +0.000 A 
ATOM     31  C   UNL     1       4.424  15.025  20.393  0.00  0.00    +0.000 A 
BRANCH  26  33
ATOM     32  C   UNL     1       7.188  15.287  17.918  0.00  0.00    +0.000 C 
ATOM     33  O   UNL     1       6.560  15.194  19.194  0.00  0.00    +0.000 OA
ENDBRANCH  26  33
ENDBRANCH  25  29
ENDBRANCH   1  25
TORSDOF 5
ENDMDL
MODEL 2
REMARK VINA RESULT:      -7.3      3.416      7.149
REMARK  Name = 
REMARK  6 active torsions:
REMARK  status: ('A' for Active; 'I' for Inactive)
REMARK    1  A    between atoms: C_1  and  O_2
REMARK    2  A    between atoms: O_2  and  C_3
REMARK    3  A    between atoms: C_6  and  C_7
REMARK    4  A    between atoms: C_7  and  N_8
REMARK    5  A    between atoms: C_10  and  S_11
REMARK    6  A    between atoms: S_11  and  C_14
REMARK                            x       y       z     vdW  Elec       q    Type
REMARK                         _______ _______ _______ _____ _____    ______ ____
ROOT
ATOM      1  N   UNL     1       0.642  10.464  20.616  0.00  0.00    +0.000 N 
ATOM      2  C   UNL     1      -0.774  10.367  20.473  0.00  0.00    +0.000 A 
ATOM      3  C   UNL     1      -1.521  11.485  20.357  0.00  0.00    +0.000 A 
ATOM      4  C   UNL     1      -1.002  12.021  19.058  0.00  0.00    +0.000 A 
ATOM      5  O   UNL     1      -1.736  12.220  18.101  0.00  0.00    +0.000 OA
ATOM      6  C   UNL     1       0.471  12.302  19.045  0.00  0.00    +0.000 A 
ATOM      7  C   UNL     1       0.811  13.470  18.360  0.00  0.00    +0.000 A 
ATOM      8  C   UNL     1       1.593  14.336  19.097  0.00  0.00    +0.000 A 
ATOM      9  C   UNL     1       2.059  13.989  20.343  0.00  0.00    +0.000 A 
ATOM     10  C   UNL     1       1.952  12.669  20.870  0.00  0.00    +0.000 A 
ATOM     11  C   UNL     1       1.187  11.725  20.161  0.00  0.00    +0.000 A 
ATOM     12  O   UNL     1       2.483  15.126  20.999  0.00  0.00    +0.000 OA
ATOM     13  C   UNL     1       2.143  16.180  20.053  0.00  0.00    +0.000 C 
ATOM     14  O   UNL     1       1.700  15.650  18.790  0.00  0.00    +0.000 OA
ENDROOT
BRANCH   3  15
ATOM     15  S   UNL     1      -1.420  12.607  21.745  0.00  0.00    +0.000 S 
ATOM     16  O   UNL     1      -0.614  12.052  22.821  0.00  0.00    +0.000 OA
ATOM     17  O   UNL     1      -1.175  13.961  21.281  0.00  0.00    +0.000 OA
BRANCH  15  18
ATOM     18  C   UNL     1      -3.060  12.633  22.450  0.00  0.00    +0.000 A 
ATOM     19  C   UNL     1      -3.220  12.520  23.833  0.00  0.00    +0.000 A 
ATOM     20  C   UNL     1      -4.498  12.641  24.385  0.00  0.00    +0.000 A 
ATOM     21  C   UNL     1      -5.595  12.893  23.559  0.00  0.00    +0.000 A 
ATOM     22 CL   UNL     1      -7.162  13.051  24.249  0.00  0.00    +0.000 Cl
ATOM     23  C   UNL     1      -5.429  13.040  22.182  0.00  0.00    +0.000 A 
ATOM     24  C   UNL     1      -4.157  12.911  21.622  0.00  0.00    +0.000 A 
ENDBRANCH  15  18
ENDBRANCH   3  15
BRANCH   1  25
ATOM     25  C   UNL     1       1.319   9.221  21.128  0.00  0.00    +0.000 C 
BRANCH  25  29
ATOM     26  C   UNL     1       2.861   6.123  18.390  0.00  0.00    +0.000 A 
ATOM     27  C   UNL     1       2.592   7.430  17.972  0.00  0.00    +0.000 A 
ATOM     28  C   UNL     1       2.018   8.386  18.816  0.00  0.00    +0.000 A 
ATOM     29  C   UNL     1       1.663   8.079  20.141  0.00  0.00    +0.000 A 
ATOM     30  C   UNL     1       1.867   6.723  20.534  0.00  0.00    +0.000 A 
ATOM     31  C   UNL     1       2.467   5.755  19.663  0.00  0.00    +0.000 A 
BRANCH  26  33
ATOM     32  C   UNL     1       3.307   3.909  17.577  0.00  0.00    +0.000 C 
ATOM     33  O   UNL     1       3.442   5.322  17.452  0.00  0.00    +0.000 OA
ENDBRANCH  26  33
ENDBRANCH  25  29
ENDBRANCH   1  25
TORSDOF 5
ENDMDL
MODEL 3
REMARK VINA RESULT:      -7.2      3.014      6.703
REMARK  Name = 
REMARK  6 active torsions:
REMARK  status: ('A' for Active; 'I' for Inactive)
REMARK    1  A    between atoms: C_1  and  O_2
REMARK    2  A    between atoms: O_2  and  C_3
REMARK    3  A    between atoms: C_6  and  C_7
REMARK    4  A    between atoms: C_7  and  N_8
REMARK    5  A    between atoms: C_10  and  S_11
REMARK    6  A    between atoms: S_11  and  C_14
REMARK                            x       y       z     vdW  Elec       q    Type
REMARK                         _______ _______ _______ _____ _____    ______ ____
ROOT
ATOM      1  N   UNL     1       0.034  10.395  20.576  0.00  0.00    +0.000 N 
ATOM      2  C   UNL     1       0.461  11.666  21.062  0.00  0.00    +0.000 A 
ATOM      3  C   UNL     1       0.167  12.788  20.371  0.00  0.00    +0.000 A 
ATOM      4  C   UNL     1      -1.328  12.779  20.470  0.00  0.00    +0.000 A 
ATOM      5  O   UNL     1      -1.949  13.708  20.966  0.00  0.00    +0.000 OA
ATOM      6  C   UNL     1      -1.983  11.557  19.899  0.00  0.00    +0.000 A 
ATOM      7  C   UNL     1      -3.162  11.828  19.203  0.00  0.00    +0.000 A 
ATOM      8  C   UNL     1      -3.185  11.303  17.927  0.00  0.00    +0.000 A 
ATOM      9  C   UNL     1      -2.166  10.503  17.468  0.00  0.00    +0.000 A 
ATOM     10  C   UNL     1      -1.138   9.995  18.316  0.00  0.00    +0.000 A 
ATOM     11  C   UNL     1      -1.066  10.469  19.638  0.00  0.00    +0.000 A 
ATOM     12  O   UNL     1      -2.241  10.420  16.094  0.00  0.00    +0.000 OA
ATOM     13  C   UNL     1      -3.349  11.314  15.785  0.00  0.00    +0.000 C 
ATOM     14  O   UNL     1      -4.026  11.765  16.972  0.00  0.00    +0.000 OA
ENDROOT
BRANCH   3  15
ATOM     15  S   UNL     1       0.825  12.846  18.711  0.00  0.00    +0.000 S 
ATOM     16  O   UNL     1       1.598  11.653  18.402  0.00  0.00    +0.000 OA
ATOM     17  O   UNL     1      -0.189  13.311  17.782  0.00  0.00    +0.000 OA
BRANCH  15  18
ATOM     18  C   UNL     1       2.069  14.127  18.742  0.00  0.00    +0.000 A 
ATOM     19  C   UNL     1       1.850  15.283  19.494  0.00  0.00    +0.000 A 
ATOM     20  C   UNL     1       2.868  16.236  19.593  0.00  0.00    +0.000 A 
ATOM     21  C   UNL     1       4.094  16.017  18.962  0.00  0.00    +0.000 A 
ATOM     22 CL   UNL     1       5.344  17.190  19.098  0.00  0.00    +0.000 Cl
ATOM     23  C   UNL     1       4.322  14.846  18.240  0.00  0.00    +0.000 A 
ATOM     24  C   UNL     1       3.308  13.895  18.128  0.00  0.00    +0.000 A 
ENDBRANCH  15  18
ENDBRANCH   3  15
BRANCH   1  25
ATOM     25  C   UNL     1       0.736   9.210  21.184  0.00  0.00    +0.000 C 
BRANCH  25  29
ATOM     26  C   UNL     1       2.564   6.284  18.433  0.00  0.00    +0.000 A 
ATOM     27  C   UNL     1       2.231   5.969  19.754  0.00  0.00    +0.000 A 
ATOM     28  C   UNL     1       1.736   6.920  20.652  0.00  0.00    +0.000 A 
ATOM     29  C   UNL     1       1.558   8.262  20.277  0.00  0.00    +0.000 A 
ATOM     30  C   UNL     1       1.976   8.593  18.954  0.00  0.00    +0.000 A 
ATOM     31  C   UNL     1       2.470   7.606  18.038  0.00  0.00    +0.000 A 
BRANCH  26  33
ATOM     32  C   UNL     1       2.447   3.947  17.897  0.00  0.00    +0.000 C 
ATOM     33  O   UNL     1       3.011   5.237  17.682  0.00  0.00    +0.000 OA
ENDBRANCH  26  33
ENDBRANCH  25  29
ENDBRANCH   1  25
TORSDOF 5
ENDMDL
MODEL 4
REMARK VINA RESULT:      -7.2      3.049      6.692
REMARK  Name = 
REMARK  6 active torsions:
REMARK  status: ('A' for Active; 'I' for Inactive)
REMARK    1  A    between atoms: C_1  and  O_2
REMARK    2  A    between atoms: O_2  and  C_3
REMARK    3  A    between atoms: C_6  and  C_7
REMARK    4  A    between atoms: C_7  and  N_8
REMARK    5  A    between atoms: C_10  and  S_11
REMARK    6  A    between atoms: S_11  and  C_14
REMARK                            x       y       z     vdW  Elec       q    Type
REMARK                         _______ _______ _______ _____ _____    ______ ____
ROOT
ATOM      1  N   UNL     1       0.461  10.229  20.712  0.00  0.00    +0.000 N 
ATOM      2  C   UNL     1       0.951  11.479  21.191  0.00  0.00    +0.000 A 
ATOM      3  C   UNL     1       0.659  12.619  20.529  0.00  0.00    +0.000 A 
ATOM      4  C   UNL     1      -0.828  12.656  20.702  0.00  0.00    +0.000 A 
ATOM      5  O   UNL     1      -1.395  13.596  21.239  0.00  0.00    +0.000 OA
ATOM      6  C   UNL     1      -1.549  11.462  20.148  0.00  0.00    +0.000 A 
ATOM      7  C   UNL     1      -2.751  11.779  19.515  0.00  0.00    +0.000 A 
ATOM      8  C   UNL     1      -2.853  11.273  18.235  0.00  0.00    +0.000 A 
ATOM      9  C   UNL     1      -1.883  10.448  17.717  0.00  0.00    +0.000 A 
ATOM     10  C   UNL     1      -0.832   9.897  18.507  0.00  0.00    +0.000 A 
ATOM     11  C   UNL     1      -0.680  10.351  19.829  0.00  0.00    +0.000 A 
ATOM     12  O   UNL     1      -2.028  10.387  16.347  0.00  0.00    +0.000 OA
ATOM     13  C   UNL     1      -3.120  11.319  16.104  0.00  0.00    +0.000 C 
ATOM     14  O   UNL     1      -3.724  11.774  17.328  0.00  0.00    +0.000 OA
ENDROOT
BRANCH   3  15
ATOM     15  S   UNL     1       1.238  12.680  18.840  0.00  0.00    +0.000 S 
ATOM     16  O   UNL     1       1.929  11.455  18.469  0.00  0.00    +0.000 OA
ATOM     17  O   UNL     1       0.205  13.219  17.973  0.00  0.00    +0.000 OA
BRANCH  15  18
ATOM     18  C   UNL     1       2.548  13.893  18.834  0.00  0.00    +0.000 A 
ATOM     19  C   UNL     1       2.745  14.691  17.705  0.00  0.00    +0.000 A 
ATOM     20  C   UNL     1       3.706  15.704  17.745  0.00  0.00    +0.000 A 
ATOM     21  C   UNL     1       4.443  15.924  18.910  0.00  0.00    +0.000 A 
ATOM     22 CL   UNL     1       5.617  17.180  18.952  0.00  0.00    +0.000 Cl
ATOM     23  C   UNL     1       4.221  15.148  20.047  0.00  0.00    +0.000 A 
ATOM     24  C   UNL     1       3.270  14.128  20.013  0.00  0.00    +0.000 A 
ENDBRANCH  15  18
ENDBRANCH   3  15
BRANCH   1  25
ATOM     25  C   UNL     1       1.154   9.015  21.270  0.00  0.00    +0.000 C 
BRANCH  25  29
ATOM     26  C   UNL     1       2.799   5.792  18.743  0.00  0.00    +0.000 A 
ATOM     27  C   UNL     1       2.752   7.127  18.326  0.00  0.00    +0.000 A 
ATOM     28  C   UNL     1       2.149   8.132  19.088  0.00  0.00    +0.000 A 
ATOM     29  C   UNL     1       1.537   7.852  20.322  0.00  0.00    +0.000 A 
ATOM     30  C   UNL     1       1.518   6.477  20.702  0.00  0.00    +0.000 A 
ATOM     31  C   UNL     1       2.151   5.457  19.918  0.00  0.00    +0.000 A 
BRANCH  26  33
ATOM     32  C   UNL     1       4.152   3.832  18.441  0.00  0.00    +0.000 C 
ATOM     33  O   UNL     1       3.443   4.941  17.894  0.00  0.00    +0.000 OA
ENDBRANCH  26  33
ENDBRANCH  25  29
ENDBRANCH   1  25
TORSDOF 5
ENDMDL
MODEL 5
REMARK VINA RESULT:      -7.2      0.647      1.061
REMARK  Name = 
REMARK  6 active torsions:
REMARK  status: ('A' for Active; 'I' for Inactive)
REMARK    1  A    between atoms: C_1  and  O_2
REMARK    2  A    between atoms: O_2  and  C_3
REMARK    3  A    between atoms: C_6  and  C_7
REMARK    4  A    between atoms: C_7  and  N_8
REMARK    5  A    between atoms: C_10  and  S_11
REMARK    6  A    between atoms: S_11  and  C_14
REMARK                            x       y       z     vdW  Elec       q    Type
REMARK                         _______ _______ _______ _____ _____    ______ ____
ROOT
ATOM      1  N   UNL     1      -0.580  14.086  19.132  0.00  0.00    +0.000 N 
ATOM      2  C   UNL     1      -0.438  12.964  18.263  0.00  0.00    +0.000 A 
ATOM      3  C   UNL     1      -0.826  11.738  18.674  0.00  0.00    +0.000 A 
ATOM      4  C   UNL     1      -2.298  11.962  18.836  0.00  0.00    +0.000 A 
ATOM      5  O   UNL     1      -3.125  11.299  18.225  0.00  0.00    +0.000 OA
ATOM      6  C   UNL     1      -2.659  13.042  19.812  0.00  0.00    +0.000 A 
ATOM      7  C   UNL     1      -3.768  12.732  20.602  0.00  0.00    +0.000 A 
ATOM      8  C   UNL     1      -3.539  12.869  21.955  0.00  0.00    +0.000 A 
ATOM      9  C   UNL     1      -2.349  13.370  22.429  0.00  0.00    +0.000 A 
ATOM     10  C   UNL     1      -1.368  13.966  21.583  0.00  0.00    +0.000 A 
ATOM     11  C   UNL     1      -1.547  13.884  20.191  0.00  0.00    +0.000 A 
ATOM     12  O   UNL     1      -2.232  13.064  23.769  0.00  0.00    +0.000 OA
ATOM     13  C   UNL     1      -3.425  12.265  24.014  0.00  0.00    +0.000 C 
ATOM     14  O   UNL     1      -4.315  12.262  22.883  0.00  0.00    +0.000 OA
ENDROOT
BRANCH   3  15
ATOM     15  S   UNL     1       0.021  11.125  20.122  0.00  0.00    +0.000 S 
ATOM     16  O   UNL     1       1.103  12.011  20.523  0.00  0.00    +0.000 OA
ATOM     17  O   UNL     1      -0.938  10.662  21.109  0.00  0.00    +0.000 OA
BRANCH  15  18
ATOM     18  C   UNL     1       0.888   9.662  19.577  0.00  0.00    +0.000 A 
ATOM     19  C   UNL     1       1.369   9.591  18.268  0.00  0.00    +0.000 A 
ATOM     20  C   UNL     1       2.132   8.486  17.879  0.00  0.00    +0.000 A 
ATOM     21  C   UNL     1       2.424   7.479  18.801  0.00  0.00    +0.000 A 
ATOM     22 CL   UNL     1       3.372   6.129  18.316  0.00  0.00    +0.000 Cl
ATOM     23  C   UNL     1       1.971   7.568  20.117  0.00  0.00    +0.000 A 
ATOM     24  C   UNL     1       1.201   8.663  20.511  0.00  0.00    +0.000 A 
ENDBRANCH  15  18
ENDBRANCH   3  15
BRANCH   1  25
ATOM     25  C   UNL     1       0.226  15.297  18.748  0.00  0.00    +0.000 C 
BRANCH  25  29
ATOM     26  C   UNL     1       4.433  14.948  20.034  0.00  0.00    +0.000 A 
ATOM     27  C   UNL     1       3.425  15.424  20.878  0.00  0.00    +0.000 A 
ATOM     28  C   UNL     1       2.110  15.620  20.444  0.00  0.00    +0.000 A 
ATOM     29  C   UNL     1       1.729  15.361  19.116  0.00  0.00    +0.000 A 
ATOM     30  C   UNL     1       2.780  14.953  18.242  0.00  0.00    +0.000 A 
ATOM     31  C   UNL     1       4.122  14.744  18.703  0.00  0.00    +0.000 A 
BRANCH  26  33
ATOM     32  C   UNL     1       6.824  15.076  19.856  0.00  0.00    +0.000 C 
ATOM     33  O   UNL     1       5.655  14.792  20.620  0.00  0.00    +0.000 OA
ENDBRANCH  26  33
ENDBRANCH  25  29
ENDBRANCH   1  25
TORSDOF 5
ENDMDL
MODEL 6
REMARK VINA RESULT:      -7.0      0.822      1.432
REMARK  Name = 
REMARK  6 active torsions:
REMARK  status: ('A' for Active; 'I' for Inactive)
REMARK    1  A    between atoms: C_1  and  O_2
REMARK    2  A    between atoms: O_2  and  C_3
REMARK    3  A    between atoms: C_6  and  C_7
REMARK    4  A    between atoms: C_7  and  N_8
REMARK    5  A    between atoms: C_10  and  S_11
REMARK    6  A    between atoms: S_11  and  C_14
REMARK                            x       y       z     vdW  Elec       q    Type
REMARK                         _______ _______ _______ _____ _____    ______ ____
ROOT
ATOM      1  N   UNL     1      -0.479  14.500  19.754  0.00  0.00    +0.000 N 
ATOM      2  C   UNL     1      -0.227  13.470  18.800  0.00  0.00    +0.000 A 
ATOM      3  C   UNL     1      -0.640  12.208  19.043  0.00  0.00    +0.000 A 
ATOM      4  C   UNL     1      -2.124  12.410  19.062  0.00  0.00    +0.000 A 
ATOM      5  O   UNL     1      -2.869  11.809  18.301  0.00  0.00    +0.000 OA
ATOM      6  C   UNL     1      -2.605  13.388  20.093  0.00  0.00    +0.000 A 
ATOM      7  C   UNL     1      -3.790  12.999  20.721  0.00  0.00    +0.000 A 
ATOM      8  C   UNL     1      -3.713  13.001  22.098  0.00  0.00    +0.000 A 
ATOM      9  C   UNL     1      -2.590  13.457  22.748  0.00  0.00    +0.000 A 
ATOM     10  C   UNL     1      -1.530  14.136  22.079  0.00  0.00    +0.000 A 
ATOM     11  C   UNL     1      -1.553  14.192  20.673  0.00  0.00    +0.000 A 
ATOM     12  O   UNL     1      -2.617  13.020  24.056  0.00  0.00    +0.000 OA
ATOM     13  C   UNL     1      -3.819  12.198  24.088  0.00  0.00    +0.000 C 
ATOM     14  O   UNL     1      -4.579  12.304  22.870  0.00  0.00    +0.000 OA
ENDROOT
BRANCH   3  15
ATOM     15  S   UNL     1       0.051  11.457  20.510  0.00  0.00    +0.000 S 
ATOM     16  O   UNL     1       1.087  12.291  21.099  0.00  0.00    +0.000 OA
ATOM     17  O   UNL     1      -1.007  10.919  21.346  0.00  0.00    +0.000 OA
BRANCH  15  18
ATOM     18  C   UNL     1       0.967  10.039  19.927  0.00  0.00    +0.000 A 
ATOM     19  C   UNL     1       1.155   8.943  20.772  0.00  0.00    +0.000 A 
ATOM     20  C   UNL     1       1.786   7.799  20.276  0.00  0.00    +0.000 A 
ATOM     21  C   UNL     1       2.201   7.751  18.944  0.00  0.00    +0.000 A 
ATOM     22 CL   UNL     1       2.966   6.335  18.340  0.00  0.00    +0.000 Cl
ATOM     23  C   UNL     1       1.981   8.833  18.092  0.00  0.00    +0.000 A 
ATOM     24  C   UNL     1       1.360   9.983  18.582  0.00  0.00    +0.000 A 
ENDBRANCH  15  18
ENDBRANCH   3  15
BRANCH   1  25
ATOM     25  C   UNL     1       0.349  15.745  19.582  0.00  0.00    +0.000 C 
BRANCH  25  29
ATOM     26  C   UNL     1       4.407  14.858  18.091  0.00  0.00    +0.000 A 
ATOM     27  C   UNL     1       3.987  14.518  19.381  0.00  0.00    +0.000 A 
ATOM     28  C   UNL     1       2.734  14.879  19.885  0.00  0.00    +0.000 A 
ATOM     29  C   UNL     1       1.822  15.625  19.118  0.00  0.00    +0.000 A 
ATOM     30  C   UNL     1       2.287  16.037  17.835  0.00  0.00    +0.000 A 
ATOM     31  C   UNL     1       3.571  15.650  17.325  0.00  0.00    +0.000 A 
BRANCH  26  33
ATOM     32  C   UNL     1       6.790  15.073  18.284  0.00  0.00    +0.000 C 
ATOM     33  O   UNL     1       5.648  14.411  17.747  0.00  0.00    +0.000 OA
ENDBRANCH  26  33
ENDBRANCH  25  29
ENDBRANCH   1  25
TORSDOF 5
ENDMDL
MODEL 7
REMARK VINA RESULT:      -6.9      3.162      6.920
REMARK  Name = 
REMARK  6 active torsions:
REMARK  status: ('A' for Active; 'I' for Inactive)
REMARK    1  A    between atoms: C_1  and  O_2
REMARK    2  A    between atoms: O_2  and  C_3
REMARK    3  A    between atoms: C_6  and  C_7
REMARK    4  A    between atoms: C_7  and  N_8
REMARK    5  A    between atoms: C_10  and  S_11
REMARK    6  A    between atoms: S_11  and  C_14
REMARK                            x       y       z     vdW  Elec       q    Type
REMARK                         _______ _______ _______ _____ _____    ______ ____
ROOT
ATOM      1  N   UNL     1       0.148  12.140  18.856  0.00  0.00    +0.000 N 
ATOM      2  C   UNL     1      -1.133  12.750  18.995  0.00  0.00    +0.000 A 
ATOM      3  C   UNL     1      -1.315  13.747  19.887  0.00  0.00    +0.000 A 
ATOM      4  C   UNL     1      -0.412  14.792  19.309  0.00  0.00    +0.000 A 
ATOM      5  O   UNL     1      -0.825  15.895  18.981  0.00  0.00    +0.000 OA
ATOM      6  C   UNL     1       1.024  14.376  19.188  0.00  0.00    +0.000 A 
ATOM      7  C   UNL     1       1.929  15.390  19.509  0.00  0.00    +0.000 A 
ATOM      8  C   UNL     1       2.865  15.018  20.452  0.00  0.00    +0.000 A 
ATOM      9  C   UNL     1       2.930  13.726  20.920  0.00  0.00    +0.000 A 
ATOM     10  C   UNL     1       2.196  12.653  20.335  0.00  0.00    +0.000 A 
ATOM     11  C   UNL     1       1.237  12.955  19.351  0.00  0.00    +0.000 A 
ATOM     12  O   UNL     1       3.673  13.704  22.081  0.00  0.00    +0.000 OA
ATOM     13  C   UNL     1       3.966  15.115  22.294  0.00  0.00    +0.000 C 
ATOM     14  O   UNL     1       3.559  15.926  21.177  0.00  0.00    +0.000 OA
ENDROOT
BRANCH   3  15
ATOM     15  S   UNL     1      -0.989  13.305  21.588  0.00  0.00    +0.000 S 
ATOM     16  O   UNL     1      -0.541  11.926  21.704  0.00  0.00    +0.000 OA
ATOM     17  O   UNL     1      -0.250  14.365  22.250  0.00  0.00    +0.000 OA
BRANCH  15  18
ATOM     18  C   UNL     1      -2.589  13.271  22.381  0.00  0.00    +0.000 A 
ATOM     19  C   UNL     1      -3.717  13.700  21.678  0.00  0.00    +0.000 A 
ATOM     20  C   UNL     1      -4.977  13.577  22.270  0.00  0.00    +0.000 A 
ATOM     21  C   UNL     1      -5.101  13.012  23.541  0.00  0.00    +0.000 A 
ATOM     22 CL   UNL     1      -6.656  12.856  24.257  0.00  0.00    +0.000 Cl
ATOM     23  C   UNL     1      -3.976  12.554  24.227  0.00  0.00    +0.000 A 
ATOM     24  C   UNL     1      -2.714  12.681  23.647  0.00  0.00    +0.000 A 
ENDBRANCH  15  18
ENDBRANCH   3  15
BRANCH   1  25
ATOM     25  C   UNL     1       0.150  10.812  18.149  0.00  0.00    +0.000 C 
BRANCH  25  29
ATOM     26  C   UNL     1       2.343   7.236  19.520  0.00  0.00    +0.000 A 
ATOM     27  C   UNL     1       1.577   8.027  20.383  0.00  0.00    +0.000 A 
ATOM     28  C   UNL     1       0.957   9.210  19.969  0.00  0.00    +0.000 A 
ATOM     29  C   UNL     1       1.083   9.681  18.651  0.00  0.00    +0.000 A 
ATOM     30  C   UNL     1       1.930   8.913  17.799  0.00  0.00    +0.000 A 
ATOM     31  C   UNL     1       2.550   7.695  18.233  0.00  0.00    +0.000 A 
BRANCH  26  33
ATOM     32  C   UNL     1       1.969   5.155  20.658  0.00  0.00    +0.000 C 
ATOM     33  O   UNL     1       2.860   6.103  20.076  0.00  0.00    +0.000 OA
ENDBRANCH  26  33
ENDBRANCH  25  29
ENDBRANCH   1  25
TORSDOF 5
ENDMDL
MODEL 8
REMARK VINA RESULT:      -6.9      2.773      5.753
REMARK  Name = 
REMARK  6 active torsions:
REMARK  status: ('A' for Active; 'I' for Inactive)
REMARK    1  A    between atoms: C_1  and  O_2
REMARK    2  A    between atoms: O_2  and  C_3
REMARK    3  A    between atoms: C_6  and  C_7
REMARK    4  A    between atoms: C_7  and  N_8
REMARK    5  A    between atoms: C_10  and  S_11
REMARK    6  A    between atoms: S_11  and  C_14
REMARK                            x       y       z     vdW  Elec       q    Type
REMARK                         _______ _______ _______ _____ _____    ______ ____
ROOT
ATOM      1  N   UNL     1      -2.374  12.106  20.107  0.00  0.00    +0.000 N 
ATOM      2  C   UNL     1      -1.884  10.836  20.532  0.00  0.00    +0.000 A 
ATOM      3  C   UNL     1      -0.650  10.733  21.070  0.00  0.00    +0.000 A 
ATOM      4  C   UNL     1      -0.829  11.552  22.311  0.00  0.00    +0.000 A 
ATOM      5  O   UNL     1      -0.639  11.089  23.426  0.00  0.00    +0.000 OA
ATOM      6  C   UNL     1      -1.237  12.974  22.064  0.00  0.00    +0.000 A 
ATOM      7  C   UNL     1      -0.612  13.891  22.912  0.00  0.00    +0.000 A 
ATOM      8  C   UNL     1       0.008  14.927  22.245  0.00  0.00    +0.000 A 
ATOM      9  C   UNL     1      -0.100  15.063  20.881  0.00  0.00    +0.000 A 
ATOM     10  C   UNL     1      -1.003  14.290  20.095  0.00  0.00    +0.000 A 
ATOM     11  C   UNL     1      -1.688  13.228  20.714  0.00  0.00    +0.000 A 
ATOM     12  O   UNL     1       0.880  15.924  20.434  0.00  0.00    +0.000 OA
ATOM     13  C   UNL     1       1.623  16.215  21.653  0.00  0.00    +0.000 C 
ATOM     14  O   UNL     1       0.976  15.679  22.821  0.00  0.00    +0.000 OA
ENDROOT
BRANCH   3  15
ATOM     15  S   UNL     1       0.685  11.244  19.998  0.00  0.00    +0.000 S 
ATOM     16  O   UNL     1       0.185  11.808  18.754  0.00  0.00    +0.000 OA
ATOM     17  O   UNL     1       1.698  11.954  20.759  0.00  0.00    +0.000 OA
BRANCH  15  18
ATOM     18  C   UNL     1       1.465   9.729  19.462  0.00  0.00    +0.000 A 
ATOM     19  C   UNL     1       1.519   8.636  20.329  0.00  0.00    +0.000 A 
ATOM     20  C   UNL     1       2.042   7.424  19.869  0.00  0.00    +0.000 A 
ATOM     21  C   UNL     1       2.483   7.310  18.549  0.00  0.00    +0.000 A 
ATOM     22 CL   UNL     1       3.114   5.812  17.988  0.00  0.00    +0.000 Cl
ATOM     23  C   UNL     1       2.397   8.393  17.675  0.00  0.00    +0.000 A 
ATOM     24  C   UNL     1       1.885   9.609  18.130  0.00  0.00    +0.000 A 
ENDBRANCH  15  18
ENDBRANCH   3  15
BRANCH   1  25
ATOM     25  C   UNL     1      -3.559  12.056  19.180  0.00  0.00    +0.000 C 
BRANCH  25  29
ATOM     26  C   UNL     1      -2.969  10.245  15.200  0.00  0.00    +0.000 A 
ATOM     27  C   UNL     1      -4.021  11.123  15.479  0.00  0.00    +0.000 A 
ATOM     28  C   UNL     1      -4.262  11.625  16.762  0.00  0.00    +0.000 A 
ATOM     29  C   UNL     1      -3.459  11.260  17.856  0.00  0.00    +0.000 A 
ATOM     30  C   UNL     1      -2.439  10.302  17.579  0.00  0.00    +0.000 A 
ATOM     31  C   UNL     1      -2.195   9.803  16.257  0.00  0.00    +0.000 A 
BRANCH  26  33
ATOM     32  C   UNL     1      -4.032   9.853  13.083  0.00  0.00    +0.000 C 
ATOM     33  O   UNL     1      -2.860   9.866  13.894  0.00  0.00    +0.000 OA
ENDBRANCH  26  33
ENDBRANCH  25  29
ENDBRANCH   1  25
TORSDOF 5
ENDMDL
MODEL 9
REMARK VINA RESULT:      -6.8      1.639      2.085
REMARK  Name = 
REMARK  6 active torsions:
REMARK  status: ('A' for Active; 'I' for Inactive)
REMARK    1  A    between atoms: C_1  and  O_2
REMARK    2  A    between atoms: O_2  and  C_3
REMARK    3  A    between atoms: C_6  and  C_7
REMARK    4  A    between atoms: C_7  and  N_8
REMARK    5  A    between atoms: C_10  and  S_11
REMARK    6  A    between atoms: S_11  and  C_14
REMARK                            x       y       z     vdW  Elec       q    Type
REMARK                         _______ _______ _______ _____ _____    ______ ____
ROOT
ATOM      1  N   UNL     1      -1.388  14.805  20.372  0.00  0.00    +0.000 N 
ATOM      2  C   UNL     1      -0.997  13.759  19.485  0.00  0.00    +0.000 A 
ATOM      3  C   UNL     1      -1.283  12.475  19.785  0.00  0.00    +0.000 A 
ATOM      4  C   UNL     1      -2.780  12.518  19.753  0.00  0.00    +0.000 A 
ATOM      5  O   UNL     1      -3.432  11.802  19.006  0.00  0.00    +0.000 OA
ATOM      6  C   UNL     1      -3.395  13.491  20.714  0.00  0.00    +0.000 A 
ATOM      7  C   UNL     1      -4.553  13.011  21.330  0.00  0.00    +0.000 A 
ATOM      8  C   UNL     1      -4.522  13.093  22.707  0.00  0.00    +0.000 A 
ATOM      9  C   UNL     1      -3.475  13.699  23.361  0.00  0.00    +0.000 A 
ATOM     10  C   UNL     1      -2.471  14.452  22.684  0.00  0.00    +0.000 A 
ATOM     11  C   UNL     1      -2.454  14.432  21.278  0.00  0.00    +0.000 A 
ATOM     12  O   UNL     1      -3.499  13.331  24.690  0.00  0.00    +0.000 OA
ATOM     13  C   UNL     1      -4.608  12.388  24.735  0.00  0.00    +0.000 C 
ATOM     14  O   UNL     1      -5.334  12.348  23.493  0.00  0.00    +0.000 OA
ENDROOT
BRANCH   3  15
ATOM     15  S   UNL     1      -0.566  11.880  21.310  0.00  0.00    +0.000 S 
ATOM     16  O   UNL     1       0.436  12.801  21.824  0.00  0.00    +0.000 OA
ATOM     17  O   UNL     1      -1.603  11.374  22.191  0.00  0.00    +0.000 OA
BRANCH  15  18
ATOM     18  C   UNL     1       0.406  10.454  20.848  0.00  0.00    +0.000 A 
ATOM     19  C   UNL     1       0.658   9.455  21.791  0.00  0.00    +0.000 A 
ATOM     20  C   UNL     1       1.333   8.298  21.396  0.00  0.00    +0.000 A 
ATOM     21  C   UNL     1       1.730   8.139  20.067  0.00  0.00    +0.000 A 
ATOM     22 CL   UNL     1       2.551   6.706  19.588  0.00  0.00    +0.000 Cl
ATOM     23  C   UNL     1       1.447   9.122  19.119  0.00  0.00    +0.000 A 
ATOM     24  C   UNL     1       0.781  10.286  19.508  0.00  0.00    +0.000 A 
ENDBRANCH  15  18
ENDBRANCH   3  15
BRANCH   1  25
ATOM     25  C   UNL     1      -0.691  16.121  20.155  0.00  0.00    +0.000 C 
BRANCH  25  29
ATOM     26  C   UNL     1       3.512  16.739  18.958  0.00  0.00    +0.000 A 
ATOM     27  C   UNL     1       2.445  16.894  18.067  0.00  0.00    +0.000 A 
ATOM     28  C   UNL     1       1.122  16.610  18.421  0.00  0.00    +0.000 A 
ATOM     29  C   UNL     1       0.790  16.135  19.701  0.00  0.00    +0.000 A 
ATOM     30  C   UNL     1       1.891  15.903  20.578  0.00  0.00    +0.000 A 
ATOM     31  C   UNL     1       3.243  16.209  20.207  0.00  0.00    +0.000 A 
BRANCH  26  33
ATOM     32  C   UNL     1       5.843  17.150  19.357  0.00  0.00    +0.000 C 
ATOM     33  O   UNL     1       4.736  17.080  18.463  0.00  0.00    +0.000 OA
ENDBRANCH  26  33
ENDBRANCH  25  29
ENDBRANCH   1  25
TORSDOF 5
ENDMDL
