MODEL 1
REMARK VINA RESULT:      -7.9      0.000      0.000
REMARK  Name = 
REMARK  7 active torsions:
REMARK  status: ('A' for Active; 'I' for Inactive)
REMARK    1  A    between atoms: C_1  and  O_2
REMARK    2  A    between atoms: O_2  and  C_3
REMARK    3  A    between atoms: C_6  and  C_7
REMARK    4  A    between atoms: C_10  and  S_11
REMARK    5  A    between atoms: S_11  and  C_12
REMARK    6  A    between atoms: C_18  and  C_19
REMARK    7  A    between atoms: N_22  and  C_23
REMARK                            x       y       z     vdW  Elec       q    Type
REMARK                         _______ _______ _______ _____ _____    ______ ____
ROOT
ATOM      1  C   UNL     1       4.992   4.042  17.101  0.00  0.00    +0.000 A 
ATOM      2  C   UNL     1       5.946   4.836  17.921  0.00  0.00    +0.000 A 
ATOM      3  C   UNL     1       6.948   5.444  17.272  0.00  0.00    +0.000 A 
ATOM      4  C   UNL     1       7.070   5.269  15.876  0.00  0.00    +0.000 A 
ATOM      5  N   UNL     1       7.974   5.666  15.009  0.00  0.00    +0.000 NA
ATOM      6  N   UNL     1       7.633   5.138  13.780  0.00  0.00    +0.000 NA
ATOM      7  C   UNL     1       6.517   4.446  13.927  0.00  0.00    +0.000 A 
ATOM      8  N   UNL     1       6.108   4.507  15.240  0.00  0.00    +0.000 N 
ATOM      9  N   UNL     1       5.023   3.892  15.815  0.00  0.00    +0.000 NA
ENDROOT
BRANCH   7  10
ATOM     10  C   UNL     1       5.841   3.692  12.845  0.00  0.00    +0.000 A 
ATOM     11  C   UNL     1       6.267   2.522  12.189  0.00  0.00    +0.000 A 
ATOM     12  N   UNL     1       5.397   2.121  11.258  0.00  0.00    +0.000 NA
ATOM     13  N   UNL     1       4.412   3.035  11.332  0.00  0.00    +0.000 N 
ATOM     14  C   UNL     1       3.250   2.907  10.488  0.00  0.00    +0.000 C 
ATOM     15  C   UNL     1       4.638   4.009  12.260  0.00  0.00    +0.000 A 
ENDBRANCH   7  10
BRANCH   1  16
ATOM     16  S   UNL     1       3.687   3.334  18.020  0.00  0.00    +0.000 S 
BRANCH  16  22
ATOM     17  C   UNL     1       2.439   4.615  20.275  0.00  0.00    +0.000 A 
ATOM     18  C   UNL     1       1.860   5.759  20.849  0.00  0.00    +0.000 A 
ATOM     19  C   UNL     1       1.767   6.955  20.137  0.00  0.00    +0.000 A 
ATOM     20  C   UNL     1       2.261   7.031  18.839  0.00  0.00    +0.000 A 
ATOM     21  C   UNL     1       2.837   5.896  18.255  0.00  0.00    +0.000 A 
ATOM     22  C   UNL     1       2.930   4.671  18.955  0.00  0.00    +0.000 A 
BRANCH  17  24
ATOM     23  C   UNL     1       1.423   2.773  21.388  0.00  0.00    +0.000 C 
ATOM     24  O   UNL     1       2.608   3.459  20.991  0.00  0.00    +0.000 OA
ENDBRANCH  17  24
BRANCH  20  25
ATOM     25  C   UNL     1       2.188   8.266  18.117  0.00  0.00    +0.000 C 
ATOM     26  N   UNL     1       2.132   9.280  17.550  0.00  0.00    +0.000 NA
ENDBRANCH  20  25
ENDBRANCH  16  22
ENDBRANCH   1  16
TORSDOF 5
ENDMDL
MODEL 2
REMARK VINA RESULT:      -7.3      3.549      8.897
REMARK  Name = 
REMARK  7 active torsions:
REMARK  status: ('A' for Active; 'I' for Inactive)
REMARK    1  A    between atoms: C_1  and  O_2
REMARK    2  A    between atoms: O_2  and  C_3
REMARK    3  A    between atoms: C_6  and  C_7
REMARK    4  A    between atoms: C_10  and  S_11
REMARK    5  A    between atoms: S_11  and  C_12
REMARK    6  A    between atoms: C_18  and  C_19
REMARK    7  A    between atoms: N_22  and  C_23
REMARK                            x       y       z     vdW  Elec       q    Type
REMARK                         _______ _______ _______ _____ _____    ______ ____
ROOT
ATOM      1  C   UNL     1       2.039   7.344  19.517  0.00  0.00    +0.000 A 
ATOM      2  C   UNL     1       2.622   7.545  18.163  0.00  0.00    +0.000 A 
ATOM      3  C   UNL     1       2.506   8.766  17.624  0.00  0.00    +0.000 A 
ATOM      4  C   UNL     1       1.813   9.769  18.337  0.00  0.00    +0.000 A 
ATOM      5  N   UNL     1       1.480  11.003  18.031  0.00  0.00    +0.000 NA
ATOM      6  N   UNL     1       0.732  11.504  19.079  0.00  0.00    +0.000 NA
ATOM      7  C   UNL     1       0.643  10.566  20.004  0.00  0.00    +0.000 A 
ATOM      8  N   UNL     1       1.325   9.444  19.588  0.00  0.00    +0.000 N 
ATOM      9  N   UNL     1       1.442   8.239  20.237  0.00  0.00    +0.000 NA
ENDROOT
BRANCH   7  10
ATOM     10  C   UNL     1      -0.111  10.698  21.273  0.00  0.00    +0.000 A 
ATOM     11  C   UNL     1       0.086  10.017  22.489  0.00  0.00    +0.000 A 
ATOM     12  N   UNL     1      -0.790  10.395  23.425  0.00  0.00    +0.000 NA
ATOM     13  N   UNL     1      -1.537  11.325  22.801  0.00  0.00    +0.000 N 
ATOM     14  C   UNL     1      -2.583  12.006  23.523  0.00  0.00    +0.000 C 
ATOM     15  C   UNL     1      -1.179  11.534  21.502  0.00  0.00    +0.000 A 
ENDBRANCH   7  10
BRANCH   1  16
ATOM     16  S   UNL     1       2.287   5.742  20.163  0.00  0.00    +0.000 S 
BRANCH  16  22
ATOM     17  C   UNL     1       2.511   3.862  17.995  0.00  0.00    +0.000 A 
ATOM     18  C   UNL     1       3.308   3.189  17.055  0.00  0.00    +0.000 A 
ATOM     19  C   UNL     1       4.681   3.424  16.973  0.00  0.00    +0.000 A 
ATOM     20  C   UNL     1       5.280   4.346  17.826  0.00  0.00    +0.000 A 
ATOM     21  C   UNL     1       4.495   5.020  18.769  0.00  0.00    +0.000 A 
ATOM     22  C   UNL     1       3.105   4.787  18.877  0.00  0.00    +0.000 A 
BRANCH  17  24
ATOM     23  C   UNL     1       0.660   2.587  18.777  0.00  0.00    +0.000 C 
ATOM     24  O   UNL     1       1.151   3.698  18.032  0.00  0.00    +0.000 OA
ENDBRANCH  17  24
BRANCH  20  25
ATOM     25  C   UNL     1       6.685   4.606  17.724  0.00  0.00    +0.000 C 
ATOM     26  N   UNL     1       7.829   4.801  17.653  0.00  0.00    +0.000 NA
ENDBRANCH  20  25
ENDBRANCH  16  22
ENDBRANCH   1  16
TORSDOF 5
ENDMDL
MODEL 3
REMARK VINA RESULT:      -7.0      3.347      5.395
REMARK  Name = 
REMARK  7 active torsions:
REMARK  status: ('A' for Active; 'I' for Inactive)
REMARK    1  A    between atoms: C_1  and  O_2
REMARK    2  A    between atoms: O_2  and  C_3
REMARK    3  A    between atoms: C_6  and  C_7
REMARK    4  A    between atoms: C_10  and  S_11
REMARK    5  A    between atoms: S_11  and  C_12
REMARK    6  A    between atoms: C_18  and  C_19
REMARK    7  A    between atoms: N_22  and  C_23
REMARK                            x       y       z     vdW  Elec       q    Type
REMARK                         _______ _______ _______ _____ _____    ______ ____
ROOT
ATOM      1  C   UNL     1       2.718   7.545  18.611  0.00  0.00    +0.000 A 
ATOM      2  C   UNL     1       1.819   7.186  19.741  0.00  0.00    +0.000 A 
ATOM      3  C   UNL     1       1.960   5.961  20.266  0.00  0.00    +0.000 A 
ATOM      4  C   UNL     1       2.906   5.077  19.704  0.00  0.00    +0.000 A 
ATOM      5  N   UNL     1       3.200   3.819  19.952  0.00  0.00    +0.000 NA
ATOM      6  N   UNL     1       4.159   3.428  19.038  0.00  0.00    +0.000 NA
ATOM      7  C   UNL     1       4.439   4.465  18.269  0.00  0.00    +0.000 A 
ATOM      8  N   UNL     1       3.678   5.544  18.658  0.00  0.00    +0.000 N 
ATOM      9  N   UNL     1       3.637   6.795  18.092  0.00  0.00    +0.000 NA
ENDROOT
BRANCH   7  10
ATOM     10  C   UNL     1       5.396   4.445  17.138  0.00  0.00    +0.000 A 
ATOM     11  C   UNL     1       6.785   4.673  17.157  0.00  0.00    +0.000 A 
ATOM     12  N   UNL     1       7.328   4.573  15.940  0.00  0.00    +0.000 NA
ATOM     13  N   UNL     1       6.281   4.271  15.150  0.00  0.00    +0.000 N 
ATOM     14  C   UNL     1       6.488   4.039  13.742  0.00  0.00    +0.000 C 
ATOM     15  C   UNL     1       5.094   4.196  15.820  0.00  0.00    +0.000 A 
ENDBRANCH   7  10
BRANCH   1  16
ATOM     16  S   UNL     1       2.505   9.176  18.028  0.00  0.00    +0.000 S 
BRANCH  16  22
ATOM     17  C   UNL     1       0.371  10.095  19.728  0.00  0.00    +0.000 A 
ATOM     18  C   UNL     1      -0.983  10.426  19.897  0.00  0.00    +0.000 A 
ATOM     19  C   UNL     1      -1.885  10.344  18.836  0.00  0.00    +0.000 A 
ATOM     20  C   UNL     1      -1.444   9.937  17.581  0.00  0.00    +0.000 A 
ATOM     21  C   UNL     1      -0.097   9.601  17.401  0.00  0.00    +0.000 A 
ATOM     22  C   UNL     1       0.830   9.666  18.466  0.00  0.00    +0.000 A 
BRANCH  17  24
ATOM     23  C   UNL     1       0.890   9.774  22.028  0.00  0.00    +0.000 C 
ATOM     24  O   UNL     1       1.280  10.249  20.741  0.00  0.00    +0.000 OA
ENDBRANCH  17  24
BRANCH  20  25
ATOM     25  C   UNL     1      -2.365   9.877  16.485  0.00  0.00    +0.000 C 
ATOM     26  N   UNL     1      -3.096   9.825  15.582  0.00  0.00    +0.000 NA
ENDBRANCH  20  25
ENDBRANCH  16  22
ENDBRANCH   1  16
TORSDOF 5
ENDMDL
MODEL 4
REMARK VINA RESULT:      -7.0      3.472      5.556
REMARK  Name = 
REMARK  7 active torsions:
REMARK  status: ('A' for Active; 'I' for Inactive)
REMARK    1  A    between atoms: C_1  and  O_2
REMARK    2  A    between atoms: O_2  and  C_3
REMARK    3  A    between atoms: C_6  and  C_7
REMARK    4  A    between atoms: C_10  and  S_11
REMARK    5  A    between atoms: S_11  and  C_12
REMARK    6  A    between atoms: C_18  and  C_19
REMARK    7  A    between atoms: N_22  and  C_23
REMARK                            x       y       z     vdW  Elec       q    Type
REMARK                         _______ _______ _______ _____ _____    ______ ____
ROOT
ATOM      1  C   UNL     1       2.599   7.220  18.639  0.00  0.00    +0.000 A 
ATOM      2  C   UNL     1       1.775   6.798  19.803  0.00  0.00    +0.000 A 
ATOM      3  C   UNL     1       2.059   5.609  20.352  0.00  0.00    +0.000 A 
ATOM      4  C   UNL     1       3.077   4.815  19.782  0.00  0.00    +0.000 A 
ATOM      5  N   UNL     1       3.509   3.602  20.049  0.00  0.00    +0.000 NA
ATOM      6  N   UNL     1       4.479   3.291  19.116  0.00  0.00    +0.000 NA
ATOM      7  C   UNL     1       4.626   4.330  18.315  0.00  0.00    +0.000 A 
ATOM      8  N   UNL     1       3.766   5.334  18.702  0.00  0.00    +0.000 N 
ATOM      9  N   UNL     1       3.578   6.558  18.109  0.00  0.00    +0.000 NA
ENDROOT
BRANCH   7  10
ATOM     10  C   UNL     1       5.549   4.382  17.157  0.00  0.00    +0.000 A 
ATOM     11  C   UNL     1       6.924   4.678  17.140  0.00  0.00    +0.000 A 
ATOM     12  N   UNL     1       7.435   4.631  15.906  0.00  0.00    +0.000 NA
ATOM     13  N   UNL     1       6.380   4.294  15.140  0.00  0.00    +0.000 N 
ATOM     14  C   UNL     1       6.555   4.104  13.722  0.00  0.00    +0.000 C 
ATOM     15  C   UNL     1       5.219   4.147  15.842  0.00  0.00    +0.000 A 
ENDBRANCH   7  10
BRANCH   1  16
ATOM     16  S   UNL     1       2.198   8.805  18.025  0.00  0.00    +0.000 S 
BRANCH  16  22
ATOM     17  C   UNL     1      -0.309  10.061  18.677  0.00  0.00    +0.000 A 
ATOM     18  C   UNL     1      -1.211  10.528  19.646  0.00  0.00    +0.000 A 
ATOM     19  C   UNL     1      -0.940  10.397  21.008  0.00  0.00    +0.000 A 
ATOM     20  C   UNL     1       0.238   9.786  21.426  0.00  0.00    +0.000 A 
ATOM     21  C   UNL     1       1.147   9.319  20.469  0.00  0.00    +0.000 A 
ATOM     22  C   UNL     1       0.897   9.454  19.084  0.00  0.00    +0.000 A 
BRANCH  17  24
ATOM     23  C   UNL     1      -1.971   9.965  16.977  0.00  0.00    +0.000 C 
ATOM     24  O   UNL     1      -0.600  10.113  17.340  0.00  0.00    +0.000 OA
ENDBRANCH  17  24
BRANCH  20  25
ATOM     25  C   UNL     1       0.504   9.628  22.825  0.00  0.00    +0.000 C 
ATOM     26  N   UNL     1       0.707   9.515  23.964  0.00  0.00    +0.000 NA
ENDBRANCH  20  25
ENDBRANCH  16  22
ENDBRANCH   1  16
TORSDOF 5
ENDMDL
MODEL 5
REMARK VINA RESULT:      -6.9      9.166     12.268
REMARK  Name = 
REMARK  7 active torsions:
REMARK  status: ('A' for Active; 'I' for Inactive)
REMARK    1  A    between atoms: C_1  and  O_2
REMARK    2  A    between atoms: O_2  and  C_3
REMARK    3  A    between atoms: C_6  and  C_7
REMARK    4  A    between atoms: C_10  and  S_11
REMARK    5  A    between atoms: S_11  and  C_12
REMARK    6  A    between atoms: C_18  and  C_19
REMARK    7  A    between atoms: N_22  and  C_23
REMARK                            x       y       z     vdW  Elec       q    Type
REMARK                         _______ _______ _______ _____ _____    ______ ____
ROOT
ATOM      1  C   UNL     1      10.491  15.035  17.515  0.00  0.00    +0.000 A 
ATOM      2  C   UNL     1      11.405  16.168  17.210  0.00  0.00    +0.000 A 
ATOM      3  C   UNL     1      10.954  17.403  17.470  0.00  0.00    +0.000 A 
ATOM      4  C   UNL     1       9.644  17.564  17.971  0.00  0.00    +0.000 A 
ATOM      5  N   UNL     1       8.922  18.631  18.235  0.00  0.00    +0.000 NA
ATOM      6  N   UNL     1       7.671  18.199  18.630  0.00  0.00    +0.000 NA
ATOM      7  C   UNL     1       7.669  16.878  18.613  0.00  0.00    +0.000 A 
ATOM      8  N   UNL     1       8.905  16.422  18.213  0.00  0.00    +0.000 N 
ATOM      9  N   UNL     1       9.303  15.122  18.025  0.00  0.00    +0.000 NA
ENDROOT
BRANCH   7  10
ATOM     10  C   UNL     1       6.498  16.030  18.938  0.00  0.00    +0.000 A 
ATOM     11  C   UNL     1       5.666  15.306  18.064  0.00  0.00    +0.000 A 
ATOM     12  N   UNL     1       4.701  14.651  18.715  0.00  0.00    +0.000 NA
ATOM     13  N   UNL     1       4.928  14.954  20.007  0.00  0.00    +0.000 N 
ATOM     14  C   UNL     1       4.095  14.382  21.035  0.00  0.00    +0.000 C 
ATOM     15  C   UNL     1       5.989  15.792  20.193  0.00  0.00    +0.000 A 
ENDBRANCH   7  10
BRANCH   1  16
ATOM     16  S   UNL     1      11.182  13.464  17.200  0.00  0.00    +0.000 S 
BRANCH  16  22
ATOM     17  C   UNL     1      10.540  12.396  19.795  0.00  0.00    +0.000 A 
ATOM     18  C   UNL     1       9.915  11.411  20.576  0.00  0.00    +0.000 A 
ATOM     19  C   UNL     1       9.200  10.368  19.987  0.00  0.00    +0.000 A 
ATOM     20  C   UNL     1       9.088  10.298  18.602  0.00  0.00    +0.000 A 
ATOM     21  C   UNL     1       9.709  11.273  17.812  0.00  0.00    +0.000 A 
ATOM     22  C   UNL     1      10.450  12.330  18.390  0.00  0.00    +0.000 A 
BRANCH  17  24
ATOM     23  C   UNL     1      10.407  14.270  21.255  0.00  0.00    +0.000 C 
ATOM     24  O   UNL     1      11.178  13.467  20.364  0.00  0.00    +0.000 OA
ENDBRANCH  17  24
BRANCH  20  25
ATOM     25  C   UNL     1       8.331   9.242  17.999  0.00  0.00    +0.000 C 
ATOM     26  N   UNL     1       7.732   8.382  17.495  0.00  0.00    +0.000 NA
ENDBRANCH  20  25
ENDBRANCH  16  22
ENDBRANCH   1  16
TORSDOF 5
ENDMDL
MODEL 6
REMARK VINA RESULT:      -6.8      4.042      6.268
REMARK  Name = 
REMARK  7 active torsions:
REMARK  status: ('A' for Active; 'I' for Inactive)
REMARK    1  A    between atoms: C_1  and  O_2
REMARK    2  A    between atoms: O_2  and  C_3
REMARK    3  A    between atoms: C_6  and  C_7
REMARK    4  A    between atoms: C_10  and  S_11
REMARK    5  A    between atoms: S_11  and  C_12
REMARK    6  A    between atoms: C_18  and  C_19
REMARK    7  A    between atoms: N_22  and  C_23
REMARK                            x       y       z     vdW  Elec       q    Type
REMARK                         _______ _______ _______ _____ _____    ______ ____
ROOT
ATOM      1  C   UNL     1       2.207   8.588  18.566  0.00  0.00    +0.000 A 
ATOM      2  C   UNL     1       1.408   8.325  19.793  0.00  0.00    +0.000 A 
ATOM      3  C   UNL     1       1.617   7.158  20.418  0.00  0.00    +0.000 A 
ATOM      4  C   UNL     1       2.534   6.238  19.866  0.00  0.00    +0.000 A 
ATOM      5  N   UNL     1       2.874   5.014  20.206  0.00  0.00    +0.000 NA
ATOM      6  N   UNL     1       3.767   4.552  19.259  0.00  0.00    +0.000 NA
ATOM      7  C   UNL     1       3.962   5.515  18.376  0.00  0.00    +0.000 A 
ATOM      8  N   UNL     1       3.212   6.615  18.723  0.00  0.00    +0.000 N 
ATOM      9  N   UNL     1       3.099   7.806  18.047  0.00  0.00    +0.000 NA
ENDROOT
BRANCH   7  10
ATOM     10  C   UNL     1       4.828   5.401  17.179  0.00  0.00    +0.000 A 
ATOM     11  C   UNL     1       5.875   6.246  16.766  0.00  0.00    +0.000 A 
ATOM     12  N   UNL     1       6.438   5.832  15.628  0.00  0.00    +0.000 NA
ATOM     13  N   UNL     1       5.751   4.714  15.324  0.00  0.00    +0.000 N 
ATOM     14  C   UNL     1       6.110   3.947  14.158  0.00  0.00    +0.000 C 
ATOM     15  C   UNL     1       4.763   4.419  16.218  0.00  0.00    +0.000 A 
ENDBRANCH   7  10
BRANCH   1  16
ATOM     16  S   UNL     1       1.913  10.154  17.852  0.00  0.00    +0.000 S 
BRANCH  16  22
ATOM     17  C   UNL     1      -0.886  10.593  18.360  0.00  0.00    +0.000 A 
ATOM     18  C   UNL     1      -1.895  11.224  19.106  0.00  0.00    +0.000 A 
ATOM     19  C   UNL     1      -1.584  12.082  20.161  0.00  0.00    +0.000 A 
ATOM     20  C   UNL     1      -0.255  12.318  20.496  0.00  0.00    +0.000 A 
ATOM     21  C   UNL     1       0.760  11.696  19.758  0.00  0.00    +0.000 A 
ATOM     22  C   UNL     1       0.466  10.834  18.678  0.00  0.00    +0.000 A 
BRANCH  17  24
ATOM     23  C   UNL     1      -2.373   9.919  16.628  0.00  0.00    +0.000 C 
ATOM     24  O   UNL     1      -1.180   9.688  17.375  0.00  0.00    +0.000 OA
ENDBRANCH  17  24
BRANCH  20  25
ATOM     25  C   UNL     1       0.063  13.178  21.596  0.00  0.00    +0.000 C 
ATOM     26  N   UNL     1       0.326  13.892  22.475  0.00  0.00    +0.000 NA
ENDBRANCH  20  25
ENDBRANCH  16  22
ENDBRANCH   1  16
TORSDOF 5
ENDMDL
MODEL 7
REMARK VINA RESULT:      -6.8      4.200      6.490
REMARK  Name = 
REMARK  7 active torsions:
REMARK  status: ('A' for Active; 'I' for Inactive)
REMARK    1  A    between atoms: C_1  and  O_2
REMARK    2  A    between atoms: O_2  and  C_3
REMARK    3  A    between atoms: C_6  and  C_7
REMARK    4  A    between atoms: C_10  and  S_11
REMARK    5  A    between atoms: S_11  and  C_12
REMARK    6  A    between atoms: C_18  and  C_19
REMARK    7  A    between atoms: N_22  and  C_23
REMARK                            x       y       z     vdW  Elec       q    Type
REMARK                         _______ _______ _______ _____ _____    ______ ____
ROOT
ATOM      1  C   UNL     1       2.033   8.823  18.762  0.00  0.00    +0.000 A 
ATOM      2  C   UNL     1       1.299   8.551  20.028  0.00  0.00    +0.000 A 
ATOM      3  C   UNL     1       1.492   7.355  20.600  0.00  0.00    +0.000 A 
ATOM      4  C   UNL     1       2.333   6.416  19.963  0.00  0.00    +0.000 A 
ATOM      5  N   UNL     1       2.637   5.168  20.241  0.00  0.00    +0.000 NA
ATOM      6  N   UNL     1       3.449   4.701  19.226  0.00  0.00    +0.000 NA
ATOM      7  C   UNL     1       3.633   5.685  18.364  0.00  0.00    +0.000 A 
ATOM      8  N   UNL     1       2.955   6.804  18.792  0.00  0.00    +0.000 N 
ATOM      9  N   UNL     1       2.855   8.021  18.164  0.00  0.00    +0.000 NA
ENDROOT
BRANCH   7  10
ATOM     10  C   UNL     1       4.419   5.576  17.112  0.00  0.00    +0.000 A 
ATOM     11  C   UNL     1       5.032   6.599  16.366  0.00  0.00    +0.000 A 
ATOM     12  N   UNL     1       5.659   6.128  15.285  0.00  0.00    +0.000 NA
ATOM     13  N   UNL     1       5.449   4.800  15.352  0.00  0.00    +0.000 N 
ATOM     14  C   UNL     1       6.025   3.932  14.354  0.00  0.00    +0.000 C 
ATOM     15  C   UNL     1       4.697   4.418  16.424  0.00  0.00    +0.000 A 
ENDBRANCH   7  10
BRANCH   1  16
ATOM     16  S   UNL     1       1.766  10.423  18.119  0.00  0.00    +0.000 S 
BRANCH  16  22
ATOM     17  C   UNL     1       0.311  11.756  20.215  0.00  0.00    +0.000 A 
ATOM     18  C   UNL     1      -0.912  12.200  20.744  0.00  0.00    +0.000 A 
ATOM     19  C   UNL     1      -2.111  11.998  20.060  0.00  0.00    +0.000 A 
ATOM     20  C   UNL     1      -2.107  11.356  18.826  0.00  0.00    +0.000 A 
ATOM     21  C   UNL     1      -0.894  10.906  18.289  0.00  0.00    +0.000 A 
ATOM     22  C   UNL     1       0.330  11.090  18.973  0.00  0.00    +0.000 A 
BRANCH  17  24
ATOM     23  C   UNL     1       2.032  13.333  20.680  0.00  0.00    +0.000 C 
ATOM     24  O   UNL     1       1.502  12.019  20.839  0.00  0.00    +0.000 OA
ENDBRANCH  17  24
BRANCH  20  25
ATOM     25  C   UNL     1      -3.335  11.173  18.112  0.00  0.00    +0.000 C 
ATOM     26  N   UNL     1      -4.336  11.044  17.534  0.00  0.00    +0.000 NA
ENDBRANCH  20  25
ENDBRANCH  16  22
ENDBRANCH   1  16
TORSDOF 5
ENDMDL
MODEL 8
REMARK VINA RESULT:      -6.8      4.129      6.687
REMARK  Name = 
REMARK  7 active torsions:
REMARK  status: ('A' for Active; 'I' for Inactive)
REMARK    1  A    between atoms: C_1  and  O_2
REMARK    2  A    between atoms: O_2  and  C_3
REMARK    3  A    between atoms: C_6  and  C_7
REMARK    4  A    between atoms: C_10  and  S_11
REMARK    5  A    between atoms: S_11  and  C_12
REMARK    6  A    between atoms: C_18  and  C_19
REMARK    7  A    between atoms: N_22  and  C_23
REMARK                            x       y       z     vdW  Elec       q    Type
REMARK                         _______ _______ _______ _____ _____    ______ ____
ROOT
ATOM      1  C   UNL     1       1.981   8.388  18.978  0.00  0.00    +0.000 A 
ATOM      2  C   UNL     1       1.153   8.393  20.214  0.00  0.00    +0.000 A 
ATOM      3  C   UNL     1       1.206   7.299  20.986  0.00  0.00    +0.000 A 
ATOM      4  C   UNL     1       1.995   6.203  20.574  0.00  0.00    +0.000 A 
ATOM      5  N   UNL     1       2.170   5.000  21.074  0.00  0.00    +0.000 NA
ATOM      6  N   UNL     1       2.995   4.307  20.210  0.00  0.00    +0.000 NA
ATOM      7  C   UNL     1       3.316   5.113  19.214  0.00  0.00    +0.000 A 
ATOM      8  N   UNL     1       2.717   6.338  19.404  0.00  0.00    +0.000 N 
ATOM      9  N   UNL     1       2.762   7.435  18.579  0.00  0.00    +0.000 NA
ENDROOT
BRANCH   7  10
ATOM     10  C   UNL     1       4.161   4.733  18.057  0.00  0.00    +0.000 A 
ATOM     11  C   UNL     1       3.822   3.946  16.941  0.00  0.00    +0.000 A 
ATOM     12  N   UNL     1       4.843   3.812  16.091  0.00  0.00    +0.000 NA
ATOM     13  N   UNL     1       5.830   4.524  16.666  0.00  0.00    +0.000 N 
ATOM     14  C   UNL     1       7.104   4.650  16.004  0.00  0.00    +0.000 C 
ATOM     15  C   UNL     1       5.475   5.087  17.858  0.00  0.00    +0.000 A 
ENDBRANCH   7  10
BRANCH   1  16
ATOM     16  S   UNL     1       1.896   9.873  18.064  0.00  0.00    +0.000 S 
BRANCH  16  22
ATOM     17  C   UNL     1      -0.833  10.740  18.362  0.00  0.00    +0.000 A 
ATOM     18  C   UNL     1      -1.776  11.569  18.990  0.00  0.00    +0.000 A 
ATOM     19  C   UNL     1      -1.398  12.466  19.989  0.00  0.00    +0.000 A 
ATOM     20  C   UNL     1      -0.067  12.543  20.386  0.00  0.00    +0.000 A 
ATOM     21  C   UNL     1       0.884  11.724  19.764  0.00  0.00    +0.000 A 
ATOM     22  C   UNL     1       0.523  10.818  18.741  0.00  0.00    +0.000 A 
BRANCH  17  24
ATOM     23  C   UNL     1      -2.336  10.113  16.627  0.00  0.00    +0.000 C 
ATOM     24  O   UNL     1      -1.204   9.801  17.437  0.00  0.00    +0.000 OA
ENDBRANCH  17  24
BRANCH  20  25
ATOM     25  C   UNL     1       0.317  13.445  21.430  0.00  0.00    +0.000 C 
ATOM     26  N   UNL     1       0.636  14.162  22.289  0.00  0.00    +0.000 NA
ENDBRANCH  20  25
ENDBRANCH  16  22
ENDBRANCH   1  16
TORSDOF 5
ENDMDL
MODEL 9
REMARK VINA RESULT:      -6.8      4.995      9.196
REMARK  Name = 
REMARK  7 active torsions:
REMARK  status: ('A' for Active; 'I' for Inactive)
REMARK    1  A    between atoms: C_1  and  O_2
REMARK    2  A    between atoms: O_2  and  C_3
REMARK    3  A    between atoms: C_6  and  C_7
REMARK    4  A    between atoms: C_10  and  S_11
REMARK    5  A    between atoms: S_11  and  C_12
REMARK    6  A    between atoms: C_18  and  C_19
REMARK    7  A    between atoms: N_22  and  C_23
REMARK                            x       y       z     vdW  Elec       q    Type
REMARK                         _______ _______ _______ _____ _____    ______ ____
ROOT
ATOM      1  C   UNL     1       1.896   8.494  19.117  0.00  0.00    +0.000 A 
ATOM      2  C   UNL     1       1.879   7.502  20.226  0.00  0.00    +0.000 A 
ATOM      3  C   UNL     1       1.356   7.902  21.393  0.00  0.00    +0.000 A 
ATOM      4  C   UNL     1       0.896   9.231  21.521  0.00  0.00    +0.000 A 
ATOM      5  N   UNL     1       0.421   9.909  22.542  0.00  0.00    +0.000 NA
ATOM      6  N   UNL     1       0.202  11.205  22.115  0.00  0.00    +0.000 NA
ATOM      7  C   UNL     1       0.533  11.277  20.838  0.00  0.00    +0.000 A 
ATOM      8  N   UNL     1       0.968  10.044  20.406  0.00  0.00    +0.000 N 
ATOM      9  N   UNL     1       1.440   9.705  19.162  0.00  0.00    +0.000 NA
ENDROOT
BRANCH   7  10
ATOM     10  C   UNL     1       0.477  12.510  20.019  0.00  0.00    +0.000 A 
ATOM     11  C   UNL     1      -0.585  12.999  19.236  0.00  0.00    +0.000 A 
ATOM     12  N   UNL     1      -0.277  14.149  18.630  0.00  0.00    +0.000 NA
ATOM     13  N   UNL     1       0.983  14.393  19.038  0.00  0.00    +0.000 N 
ATOM     14  C   UNL     1       1.653  15.597  18.614  0.00  0.00    +0.000 C 
ATOM     15  C   UNL     1       1.487  13.430  19.863  0.00  0.00    +0.000 A 
ENDBRANCH   7  10
BRANCH   1  16
ATOM     16  S   UNL     1       2.542   7.870  17.620  0.00  0.00    +0.000 S 
BRANCH  16  22
ATOM     17  C   UNL     1       4.409   5.732  18.099  0.00  0.00    +0.000 A 
ATOM     18  C   UNL     1       4.651   4.371  18.343  0.00  0.00    +0.000 A 
ATOM     19  C   UNL     1       3.602   3.458  18.448  0.00  0.00    +0.000 A 
ATOM     20  C   UNL     1       2.287   3.894  18.322  0.00  0.00    +0.000 A 
ATOM     21  C   UNL     1       2.032   5.249  18.076  0.00  0.00    +0.000 A 
ATOM     22  C   UNL     1       3.082   6.187  17.953  0.00  0.00    +0.000 A 
BRANCH  17  24
ATOM     23  C   UNL     1       6.321   6.581  16.966  0.00  0.00    +0.000 C 
ATOM     24  O   UNL     1       5.426   6.650  18.073  0.00  0.00    +0.000 OA
ENDBRANCH  17  24
BRANCH  20  25
ATOM     25  C   UNL     1       1.208   2.961  18.456  0.00  0.00    +0.000 C 
ATOM     26  N   UNL     1       0.343   2.194  18.581  0.00  0.00    +0.000 NA
ENDBRANCH  20  25
ENDBRANCH  16  22
ENDBRANCH   1  16
TORSDOF 5
ENDMDL
