MODEL 1
REMARK VINA RESULT:      -8.1      0.000      0.000
REMARK  Name = 
REMARK  4 active torsions:
REMARK  status: ('A' for Active; 'I' for Inactive)
REMARK    1  A    between atoms: N_1  and  S_2
REMARK    2  A    between atoms: S_2  and  N_5
REMARK    3  A    between atoms: N_8  and  C_9
REMARK    4  A    between atoms: C_9  and  C_10
REMARK                            x       y       z     vdW  Elec       q    Type
REMARK                         _______ _______ _______ _____ _____    ______ ____
ROOT
ATOM      1  C   UNL     1       2.156   7.589  19.325  0.00  0.00    +0.000 A 
ATOM      2  C   UNL     1       1.968   8.261  18.111  0.00  0.00    +0.000 A 
ATOM      3  C   UNL     1       1.277   9.471  18.076  0.00  0.00    +0.000 A 
ATOM      4  C   UNL     1       0.753  10.026  19.249  0.00  0.00    +0.000 A 
ATOM      5  C   UNL     1       0.889   9.342  20.470  0.00  0.00    +0.000 A 
ATOM      6  C   UNL     1       1.605   8.133  20.495  0.00  0.00    +0.000 A 
ATOM      7  N   UNL     1       0.361   9.851  21.661  0.00  0.00    +0.000 N 
ATOM      8  C   UNL     1      -0.400  11.009  21.819  0.00  0.00    +0.000 A 
ATOM      9  N   UNL     1      -0.899  11.237  23.060  0.00  0.00    +0.000 NA
ATOM     10  C   UNL     1      -1.636  12.362  23.206  0.00  0.00    +0.000 A 
ATOM     11  C   UNL     1      -1.867  13.243  22.165  0.00  0.00    +0.000 A 
ATOM     12  N   UNL     1      -1.382  13.034  20.924  0.00  0.00    +0.000 NA
ATOM     13  C   UNL     1      -0.648  11.900  20.759  0.00  0.00    +0.000 A 
ATOM     14  S   UNL     1      -0.050  11.616  19.109  0.00  0.00    +0.000 S 
ATOM     15  H   UNL     1       0.411   9.297  22.504  0.00  0.00    +0.000 HD
ENDROOT
BRANCH   1  16
ATOM     16  C   UNL     1       2.989   6.328  19.364  0.00  0.00    +0.000 C 
BRANCH  16  20
ATOM     17  N   UNL     1       6.316   5.381  18.057  0.00  0.00    +0.000 NA
ATOM     18  C   UNL     1       5.700   6.726  17.825  0.00  0.00    +0.000 C 
ATOM     19  C   UNL     1       4.263   6.644  17.273  0.00  0.00    +0.000 C 
ATOM     20  N   UNL     1       3.340   5.778  18.045  0.00  0.00    +0.000 NA
ATOM     21  C   UNL     1       3.979   4.448  18.195  0.00  0.00    +0.000 C 
ATOM     22  C   UNL     1       5.392   4.486  18.821  0.00  0.00    +0.000 C 
BRANCH  17  23
ATOM     23  S   UNL     1       7.044   4.639  16.741  0.00  0.00    +0.000 S 
ATOM     24  O   UNL     1       6.078   3.884  15.991  0.00  0.00    +0.000 OA
ATOM     25  O   UNL     1       8.299   4.075  17.168  0.00  0.00    +0.000 OA
BRANCH  23  26
ATOM     26  N   UNL     1       7.438   5.977  15.834  0.00  0.00    +0.000 NA
ATOM     27  H   UNL     1       7.568   5.682  14.866  0.00  0.00    +0.000 HD
ATOM     28  H   UNL     1       8.295   6.379  16.210  0.00  0.00    +0.000 HD
ENDBRANCH  23  26
ENDBRANCH  17  23
ENDBRANCH  16  20
ENDBRANCH   1  16
TORSDOF 4
ENDMDL
MODEL 2
REMARK VINA RESULT:      -8.1      2.315      2.657
REMARK  Name = 
REMARK  4 active torsions:
REMARK  status: ('A' for Active; 'I' for Inactive)
REMARK    1  A    between atoms: N_1  and  S_2
REMARK    2  A    between atoms: S_2  and  N_5
REMARK    3  A    between atoms: N_8  and  C_9
REMARK    4  A    between atoms: C_9  and  C_10
REMARK                            x       y       z     vdW  Elec       q    Type
REMARK                         _______ _______ _______ _____ _____    ______ ____
ROOT
ATOM      1  C   UNL     1       2.126   8.201  18.613  0.00  0.00    +0.000 A 
ATOM      2  C   UNL     1       2.275   9.277  17.729  0.00  0.00    +0.000 A 
ATOM      3  C   UNL     1       1.755  10.529  18.051  0.00  0.00    +0.000 A 
ATOM      4  C   UNL     1       1.068  10.728  19.253  0.00  0.00    +0.000 A 
ATOM      5  C   UNL     1       0.866   9.648  20.132  0.00  0.00    +0.000 A 
ATOM      6  C   UNL     1       1.412   8.396  19.805  0.00  0.00    +0.000 A 
ATOM      7  N   UNL     1       0.166   9.799  21.334  0.00  0.00    +0.000 N 
ATOM      8  C   UNL     1      -0.469  10.949  21.801  0.00  0.00    +0.000 A 
ATOM      9  N   UNL     1      -1.184  10.819  22.947  0.00  0.00    +0.000 NA
ATOM     10  C   UNL     1      -1.796  11.940  23.395  0.00  0.00    +0.000 A 
ATOM     11  C   UNL     1      -1.699  13.154  22.742  0.00  0.00    +0.000 A 
ATOM     12  N   UNL     1      -0.995  13.305  21.601  0.00  0.00    +0.000 NA
ATOM     13  C   UNL     1      -0.383  12.183  21.132  0.00  0.00    +0.000 A 
ATOM     14  S   UNL     1       0.506  12.387  19.606  0.00  0.00    +0.000 S 
ATOM     15  H   UNL     1      -0.027   8.987  21.902  0.00  0.00    +0.000 HD
ENDROOT
BRANCH   1  16
ATOM     16  C   UNL     1       2.777   6.874  18.297  0.00  0.00    +0.000 C 
BRANCH  16  20
ATOM     17  N   UNL     1       4.090   3.425  18.528  0.00  0.00    +0.000 NA
ATOM     18  C   UNL     1       3.058   3.841  17.526  0.00  0.00    +0.000 C 
ATOM     19  C   UNL     1       1.866   4.584  18.161  0.00  0.00    +0.000 C 
ATOM     20  N   UNL     1       2.228   5.725  19.035  0.00  0.00    +0.000 NA
ATOM     21  C   UNL     1       3.208   5.240  20.037  0.00  0.00    +0.000 C 
ATOM     22  C   UNL     1       4.457   4.560  19.431  0.00  0.00    +0.000 C 
BRANCH  17  23
ATOM     23  S   UNL     1       3.831   1.976  19.332  0.00  0.00    +0.000 S 
ATOM     24  O   UNL     1       2.455   1.857  19.725  0.00  0.00    +0.000 OA
ATOM     25  O   UNL     1       4.918   1.763  20.255  0.00  0.00    +0.000 OA
BRANCH  23  26
ATOM     26  N   UNL     1       4.084   0.904  18.086  0.00  0.00    +0.000 NA
ATOM     27  H   UNL     1       4.615   0.110  18.447  0.00  0.00    +0.000 HD
ATOM     28  H   UNL     1       4.602   1.382  17.349  0.00  0.00    +0.000 HD
ENDBRANCH  23  26
ENDBRANCH  17  23
ENDBRANCH  16  20
ENDBRANCH   1  16
TORSDOF 4
ENDMDL
MODEL 3
REMARK VINA RESULT:      -8.0      0.947      1.472
REMARK  Name = 
REMARK  4 active torsions:
REMARK  status: ('A' for Active; 'I' for Inactive)
REMARK    1  A    between atoms: N_1  and  S_2
REMARK    2  A    between atoms: S_2  and  N_5
REMARK    3  A    between atoms: N_8  and  C_9
REMARK    4  A    between atoms: C_9  and  C_10
REMARK                            x       y       z     vdW  Elec       q    Type
REMARK                         _______ _______ _______ _____ _____    ______ ____
ROOT
ATOM      1  C   UNL     1       2.229   7.346  18.989  0.00  0.00    +0.000 A 
ATOM      2  C   UNL     1       2.013   8.065  17.808  0.00  0.00    +0.000 A 
ATOM      3  C   UNL     1       1.361   9.295  17.842  0.00  0.00    +0.000 A 
ATOM      4  C   UNL     1       0.903   9.825  19.054  0.00  0.00    +0.000 A 
ATOM      5  C   UNL     1       1.068   9.095  20.245  0.00  0.00    +0.000 A 
ATOM      6  C   UNL     1       1.745   7.865  20.199  0.00  0.00    +0.000 A 
ATOM      7  N   UNL     1       0.607   9.580  21.474  0.00  0.00    +0.000 N 
ATOM      8  C   UNL     1      -0.111  10.753  21.702  0.00  0.00    +0.000 A 
ATOM      9  N   UNL     1      -0.550  10.954  22.970  0.00  0.00    +0.000 NA
ATOM     10  C   UNL     1      -1.244  12.096  23.185  0.00  0.00    +0.000 A 
ATOM     11  C   UNL     1      -1.489  13.018  22.184  0.00  0.00    +0.000 A 
ATOM     12  N   UNL     1      -1.063  12.837  20.917  0.00  0.00    +0.000 NA
ATOM     13  C   UNL     1      -0.373  11.687  20.684  0.00  0.00    +0.000 A 
ATOM     14  S   UNL     1       0.146  11.443  19.001  0.00  0.00    +0.000 S 
ATOM     15  H   UNL     1       0.673   8.995  22.295  0.00  0.00    +0.000 HD
ENDROOT
BRANCH   1  16
ATOM     16  C   UNL     1       3.023   6.059  18.951  0.00  0.00    +0.000 C 
BRANCH  16  20
ATOM     17  N   UNL     1       5.627   5.009  16.545  0.00  0.00    +0.000 NA
ATOM     18  C   UNL     1       5.210   4.172  17.714  0.00  0.00    +0.000 C 
ATOM     19  C   UNL     1       5.225   4.948  19.046  0.00  0.00    +0.000 C 
ATOM     20  N   UNL     1       4.483   6.231  19.037  0.00  0.00    +0.000 NA
ATOM     21  C   UNL     1       4.975   7.035  17.893  0.00  0.00    +0.000 C 
ATOM     22  C   UNL     1       4.899   6.316  16.526  0.00  0.00    +0.000 C 
BRANCH  17  23
ATOM     23  S   UNL     1       7.272   5.146  16.252  0.00  0.00    +0.000 S 
ATOM     24  O   UNL     1       8.004   4.189  17.035  0.00  0.00    +0.000 OA
ATOM     25  O   UNL     1       7.619   6.545  16.224  0.00  0.00    +0.000 OA
BRANCH  23  26
ATOM     26  N   UNL     1       7.329   4.637  14.670  0.00  0.00    +0.000 NA
ATOM     27  H   UNL     1       6.557   5.074  14.164  0.00  0.00    +0.000 HD
ATOM     28  H   UNL     1       7.245   3.621  14.654  0.00  0.00    +0.000 HD
ENDBRANCH  23  26
ENDBRANCH  17  23
ENDBRANCH  16  20
ENDBRANCH   1  16
TORSDOF 4
ENDMDL
MODEL 4
REMARK VINA RESULT:      -8.0      1.735      2.603
REMARK  Name = 
REMARK  4 active torsions:
REMARK  status: ('A' for Active; 'I' for Inactive)
REMARK    1  A    between atoms: N_1  and  S_2
REMARK    2  A    between atoms: S_2  and  N_5
REMARK    3  A    between atoms: N_8  and  C_9
REMARK    4  A    between atoms: C_9  and  C_10
REMARK                            x       y       z     vdW  Elec       q    Type
REMARK                         _______ _______ _______ _____ _____    ______ ____
ROOT
ATOM      1  C   UNL     1       2.195   7.238  19.021  0.00  0.00    +0.000 A 
ATOM      2  C   UNL     1       1.848   7.060  20.365  0.00  0.00    +0.000 A 
ATOM      3  C   UNL     1       1.192   8.072  21.063  0.00  0.00    +0.000 A 
ATOM      4  C   UNL     1       0.880   9.283  20.435  0.00  0.00    +0.000 A 
ATOM      5  C   UNL     1       1.263   9.499  19.099  0.00  0.00    +0.000 A 
ATOM      6  C   UNL     1       1.906   8.463  18.401  0.00  0.00    +0.000 A 
ATOM      7  N   UNL     1       0.989  10.703  18.441  0.00  0.00    +0.000 N 
ATOM      8  C   UNL     1       0.395  11.843  18.982  0.00  0.00    +0.000 A 
ATOM      9  N   UNL     1       0.338  12.933  18.175  0.00  0.00    +0.000 NA
ATOM     10  C   UNL     1      -0.241  14.035  18.705  0.00  0.00    +0.000 A 
ATOM     11  C   UNL     1      -0.758  14.061  19.987  0.00  0.00    +0.000 A 
ATOM     12  N   UNL     1      -0.711  12.990  20.806  0.00  0.00    +0.000 NA
ATOM     13  C   UNL     1      -0.121  11.878  20.290  0.00  0.00    +0.000 A 
ATOM     14  S   UNL     1      -0.028  10.488  21.394  0.00  0.00    +0.000 S 
ATOM     15  H   UNL     1       1.346  10.853  17.509  0.00  0.00    +0.000 HD
ENDROOT
BRANCH   1  16
ATOM     16  C   UNL     1       2.819   6.098  18.248  0.00  0.00    +0.000 C 
BRANCH  16  20
ATOM     17  N   UNL     1       5.562   5.433  15.860  0.00  0.00    +0.000 NA
ATOM     18  C   UNL     1       4.802   4.345  16.554  0.00  0.00    +0.000 C 
ATOM     19  C   UNL     1       4.728   4.543  18.081  0.00  0.00    +0.000 C 
ATOM     20  N   UNL     1       4.247   5.874  18.523  0.00  0.00    +0.000 NA
ATOM     21  C   UNL     1       5.069   6.904  17.845  0.00  0.00    +0.000 C 
ATOM     22  C   UNL     1       5.101   6.785  16.304  0.00  0.00    +0.000 C 
BRANCH  17  23
ATOM     23  S   UNL     1       7.230   5.274  15.792  0.00  0.00    +0.000 S 
ATOM     24  O   UNL     1       7.640   4.024  16.368  0.00  0.00    +0.000 OA
ATOM     25  O   UNL     1       7.827   6.530  16.171  0.00  0.00    +0.000 OA
BRANCH  23  26
ATOM     26  N   UNL     1       7.443   5.154  14.147  0.00  0.00    +0.000 NA
ATOM     27  H   UNL     1       6.538   4.952  13.719  0.00  0.00    +0.000 HD
ATOM     28  H   UNL     1       8.108   4.404  13.962  0.00  0.00    +0.000 HD
ENDBRANCH  23  26
ENDBRANCH  17  23
ENDBRANCH  16  20
ENDBRANCH   1  16
TORSDOF 4
ENDMDL
MODEL 5
REMARK VINA RESULT:      -7.8      4.047      9.093
REMARK  Name = 
REMARK  4 active torsions:
REMARK  status: ('A' for Active; 'I' for Inactive)
REMARK    1  A    between atoms: N_1  and  S_2
REMARK    2  A    between atoms: S_2  and  N_5
REMARK    3  A    between atoms: N_8  and  C_9
REMARK    4  A    between atoms: C_9  and  C_10
REMARK                            x       y       z     vdW  Elec       q    Type
REMARK                         _______ _______ _______ _____ _____    ______ ____
ROOT
ATOM      1  C   UNL     1       1.711   6.336  20.301  0.00  0.00    +0.000 A 
ATOM      2  C   UNL     1       1.578   4.965  20.550  0.00  0.00    +0.000 A 
ATOM      3  C   UNL     1       2.309   4.041  19.807  0.00  0.00    +0.000 A 
ATOM      4  C   UNL     1       3.176   4.467  18.795  0.00  0.00    +0.000 A 
ATOM      5  C   UNL     1       3.287   5.837  18.498  0.00  0.00    +0.000 A 
ATOM      6  C   UNL     1       2.560   6.760  19.268  0.00  0.00    +0.000 A 
ATOM      7  N   UNL     1       4.127   6.303  17.480  0.00  0.00    +0.000 N 
ATOM      8  C   UNL     1       4.890   5.537  16.599  0.00  0.00    +0.000 A 
ATOM      9  N   UNL     1       5.538   6.214  15.619  0.00  0.00    +0.000 NA
ATOM     10  C   UNL     1       6.278   5.465  14.769  0.00  0.00    +0.000 A 
ATOM     11  C   UNL     1       6.385   4.091  14.886  0.00  0.00    +0.000 A 
ATOM     12  N   UNL     1       5.748   3.399  15.853  0.00  0.00    +0.000 NA
ATOM     13  C   UNL     1       4.990   4.138  16.708  0.00  0.00    +0.000 A 
ATOM     14  S   UNL     1       4.124   3.209  17.951  0.00  0.00    +0.000 S 
ATOM     15  H   UNL     1       4.123   7.285  17.243  0.00  0.00    +0.000 HD
ENDROOT
BRANCH   1  16
ATOM     16  C   UNL     1       0.987   7.333  21.179  0.00  0.00    +0.000 C 
BRANCH  16  20
ATOM     17  N   UNL     1      -0.746  10.540  21.795  0.00  0.00    +0.000 NA
ATOM     18  C   UNL     1      -0.570   9.957  20.427  0.00  0.00    +0.000 C 
ATOM     19  C   UNL     1       0.889   9.562  20.124  0.00  0.00    +0.000 C 
ATOM     20  N   UNL     1       1.534   8.699  21.142  0.00  0.00    +0.000 NA
ATOM     21  C   UNL     1       1.373   9.354  22.463  0.00  0.00    +0.000 C 
ATOM     22  C   UNL     1      -0.089   9.691  22.836  0.00  0.00    +0.000 C 
BRANCH  17  23
ATOM     23  S   UNL     1      -0.444  12.181  21.968  0.00  0.00    +0.000 S 
ATOM     24  O   UNL     1       0.889  12.496  21.536  0.00  0.00    +0.000 OA
ATOM     25  O   UNL     1      -0.963  12.611  23.243  0.00  0.00    +0.000 OA
BRANCH  23  26
ATOM     26  N   UNL     1      -1.491  12.791  20.829  0.00  0.00    +0.000 NA
ATOM     27  H   UNL     1      -1.105  12.599  19.903  0.00  0.00    +0.000 HD
ATOM     28  H   UNL     1      -1.586  13.794  20.982  0.00  0.00    +0.000 HD
ENDBRANCH  23  26
ENDBRANCH  17  23
ENDBRANCH  16  20
ENDBRANCH   1  16
TORSDOF 4
ENDMDL
MODEL 6
REMARK VINA RESULT:      -7.8      2.238      2.831
REMARK  Name = 
REMARK  4 active torsions:
REMARK  status: ('A' for Active; 'I' for Inactive)
REMARK    1  A    between atoms: N_1  and  S_2
REMARK    2  A    between atoms: S_2  and  N_5
REMARK    3  A    between atoms: N_8  and  C_9
REMARK    4  A    between atoms: C_9  and  C_10
REMARK                            x       y       z     vdW  Elec       q    Type
REMARK                         _______ _______ _______ _____ _____    ______ ____
ROOT
ATOM      1  C   UNL     1       2.182   8.058  18.998  0.00  0.00    +0.000 A 
ATOM      2  C   UNL     1       1.807   8.753  17.843  0.00  0.00    +0.000 A 
ATOM      3  C   UNL     1       0.907   9.813  17.921  0.00  0.00    +0.000 A 
ATOM      4  C   UNL     1       0.356  10.192  19.151  0.00  0.00    +0.000 A 
ATOM      5  C   UNL     1       0.684   9.474  20.316  0.00  0.00    +0.000 A 
ATOM      6  C   UNL     1       1.609   8.420  20.226  0.00  0.00    +0.000 A 
ATOM      7  N   UNL     1       0.140   9.806  21.561  0.00  0.00    +0.000 N 
ATOM      8  C   UNL     1      -0.810  10.790  21.831  0.00  0.00    +0.000 A 
ATOM      9  N   UNL     1      -1.272  10.849  23.106  0.00  0.00    +0.000 NA
ATOM     10  C   UNL     1      -2.192  11.807  23.361  0.00  0.00    +0.000 A 
ATOM     11  C   UNL     1      -2.638  12.689  22.393  0.00  0.00    +0.000 A 
ATOM     12  N   UNL     1      -2.193  12.647  21.121  0.00  0.00    +0.000 NA
ATOM     13  C   UNL     1      -1.275  11.681  20.846  0.00  0.00    +0.000 A 
ATOM     14  S   UNL     1      -0.730  11.611  19.156  0.00  0.00    +0.000 S 
ATOM     15  H   UNL     1       0.337   9.222  22.361  0.00  0.00    +0.000 HD
ENDROOT
BRANCH   1  16
ATOM     16  C   UNL     1       3.233   6.973  18.915  0.00  0.00    +0.000 C 
BRANCH  16  20
ATOM     17  N   UNL     1       3.224   3.285  19.169  0.00  0.00    +0.000 NA
ATOM     18  C   UNL     1       4.437   4.074  18.784  0.00  0.00    +0.000 C 
ATOM     19  C   UNL     1       4.167   5.075  17.643  0.00  0.00    +0.000 C 
ATOM     20  N   UNL     1       3.009   5.976  17.856  0.00  0.00    +0.000 NA
ATOM     21  C   UNL     1       1.831   5.137  18.180  0.00  0.00    +0.000 C 
ATOM     22  C   UNL     1       2.039   4.176  19.373  0.00  0.00    +0.000 C 
BRANCH  17  23
ATOM     23  S   UNL     1       2.890   1.910  18.268  0.00  0.00    +0.000 S 
ATOM     24  O   UNL     1       3.877   0.896  18.514  0.00  0.00    +0.000 OA
ATOM     25  O   UNL     1       2.516   2.314  16.936  0.00  0.00    +0.000 OA
BRANCH  23  26
ATOM     26  N   UNL     1       1.481   1.418  19.000  0.00  0.00    +0.000 NA
ATOM     27  H   UNL     1       1.417   0.402  18.924  0.00  0.00    +0.000 HD
ATOM     28  H   UNL     1       0.698   1.867  18.528  0.00  0.00    +0.000 HD
ENDBRANCH  23  26
ENDBRANCH  17  23
ENDBRANCH  16  20
ENDBRANCH   1  16
TORSDOF 4
ENDMDL
MODEL 7
REMARK VINA RESULT:      -7.8      2.322      2.842
REMARK  Name = 
REMARK  4 active torsions:
REMARK  status: ('A' for Active; 'I' for Inactive)
REMARK    1  A    between atoms: N_1  and  S_2
REMARK    2  A    between atoms: S_2  and  N_5
REMARK    3  A    between atoms: N_8  and  C_9
REMARK    4  A    between atoms: C_9  and  C_10
REMARK                            x       y       z     vdW  Elec       q    Type
REMARK                         _______ _______ _______ _____ _____    ______ ____
ROOT
ATOM      1  C   UNL     1       2.095   8.155  18.758  0.00  0.00    +0.000 A 
ATOM      2  C   UNL     1       1.573   8.813  17.638  0.00  0.00    +0.000 A 
ATOM      3  C   UNL     1       0.648   9.842  17.794  0.00  0.00    +0.000 A 
ATOM      4  C   UNL     1       0.217  10.226  19.069  0.00  0.00    +0.000 A 
ATOM      5  C   UNL     1       0.693   9.545  20.204  0.00  0.00    +0.000 A 
ATOM      6  C   UNL     1       1.641   8.522  20.034  0.00  0.00    +0.000 A 
ATOM      7  N   UNL     1       0.272   9.883  21.495  0.00  0.00    +0.000 N 
ATOM      8  C   UNL     1      -0.680  10.839  21.848  0.00  0.00    +0.000 A 
ATOM      9  N   UNL     1      -1.006  10.908  23.163  0.00  0.00    +0.000 NA
ATOM     10  C   UNL     1      -1.929  11.838  23.499  0.00  0.00    +0.000 A 
ATOM     11  C   UNL     1      -2.507  12.684  22.570  0.00  0.00    +0.000 A 
ATOM     12  N   UNL     1      -2.199  12.631  21.258  0.00  0.00    +0.000 NA
ATOM     13  C   UNL     1      -1.280  11.692  20.903  0.00  0.00    +0.000 A 
ATOM     14  S   UNL     1      -0.914  11.606  19.166  0.00  0.00    +0.000 S 
ATOM     15  H   UNL     1       0.574   9.323  22.279  0.00  0.00    +0.000 HD
ENDROOT
BRANCH   1  16
ATOM     16  C   UNL     1       3.170   7.106  18.581  0.00  0.00    +0.000 C 
BRANCH  16  20
ATOM     17  N   UNL     1       3.205   3.453  18.013  0.00  0.00    +0.000 NA
ATOM     18  C   UNL     1       1.943   4.241  18.185  0.00  0.00    +0.000 C 
ATOM     19  C   UNL     1       1.958   5.136  19.441  0.00  0.00    +0.000 C 
ATOM     20  N   UNL     1       3.142   6.018  19.572  0.00  0.00    +0.000 NA
ATOM     21  C   UNL     1       4.355   5.176  19.447  0.00  0.00    +0.000 C 
ATOM     22  C   UNL     1       4.413   4.324  18.159  0.00  0.00    +0.000 C 
BRANCH  17  23
ATOM     23  S   UNL     1       3.315   1.999  18.842  0.00  0.00    +0.000 S 
ATOM     24  O   UNL     1       3.779   2.219  20.184  0.00  0.00    +0.000 OA
ATOM     25  O   UNL     1       3.913   1.018  17.971  0.00  0.00    +0.000 OA
BRANCH  23  26
ATOM     26  N   UNL     1       1.704   1.596  18.935  0.00  0.00    +0.000 NA
ATOM     27  H   UNL     1       1.371   1.382  17.994  0.00  0.00    +0.000 HD
ATOM     28  H   UNL     1       1.196   2.387  19.329  0.00  0.00    +0.000 HD
ENDBRANCH  23  26
ENDBRANCH  17  23
ENDBRANCH  16  20
ENDBRANCH   1  16
TORSDOF 4
ENDMDL
MODEL 8
REMARK VINA RESULT:      -7.8      1.817      2.656
REMARK  Name = 
REMARK  4 active torsions:
REMARK  status: ('A' for Active; 'I' for Inactive)
REMARK    1  A    between atoms: N_1  and  S_2
REMARK    2  A    between atoms: S_2  and  N_5
REMARK    3  A    between atoms: N_8  and  C_9
REMARK    4  A    between atoms: C_9  and  C_10
REMARK                            x       y       z     vdW  Elec       q    Type
REMARK                         _______ _______ _______ _____ _____    ______ ____
ROOT
ATOM      1  C   UNL     1       2.318   6.206  18.957  0.00  0.00    +0.000 A 
ATOM      2  C   UNL     1       2.036   5.888  20.291  0.00  0.00    +0.000 A 
ATOM      3  C   UNL     1       1.542   6.861  21.157  0.00  0.00    +0.000 A 
ATOM      4  C   UNL     1       1.330   8.171  20.711  0.00  0.00    +0.000 A 
ATOM      5  C   UNL     1       1.652   8.521  19.388  0.00  0.00    +0.000 A 
ATOM      6  C   UNL     1       2.131   7.526  18.519  0.00  0.00    +0.000 A 
ATOM      7  N   UNL     1       1.475   9.824  18.908  0.00  0.00    +0.000 N 
ATOM      8  C   UNL     1       1.047  10.937  19.630  0.00  0.00    +0.000 A 
ATOM      9  N   UNL     1       1.064  12.124  18.972  0.00  0.00    +0.000 NA
ATOM     10  C   UNL     1       0.646  13.200  19.678  0.00  0.00    +0.000 A 
ATOM     11  C   UNL     1       0.214  13.110  20.989  0.00  0.00    +0.000 A 
ATOM     12  N   UNL     1       0.191  11.940  21.661  0.00  0.00    +0.000 NA
ATOM     13  C   UNL     1       0.620  10.851  20.967  0.00  0.00    +0.000 A 
ATOM     14  S   UNL     1       0.623   9.325  21.878  0.00  0.00    +0.000 S 
ATOM     15  H   UNL     1       1.790  10.057  17.977  0.00  0.00    +0.000 HD
ENDROOT
BRANCH   1  16
ATOM     16  C   UNL     1       2.761   5.120  18.003  0.00  0.00    +0.000 C 
BRANCH  16  20
ATOM     17  N   UNL     1       5.662   5.575  15.756  0.00  0.00    +0.000 NA
ATOM     18  C   UNL     1       4.797   4.353  15.736  0.00  0.00    +0.000 C 
ATOM     19  C   UNL     1       4.604   3.728  17.132  0.00  0.00    +0.000 C 
ATOM     20  N   UNL     1       4.150   4.666  18.185  0.00  0.00    +0.000 NA
ATOM     21  C   UNL     1       5.073   5.826  18.193  0.00  0.00    +0.000 C 
ATOM     22  C   UNL     1       5.229   6.529  16.825  0.00  0.00    +0.000 C 
BRANCH  17  23
ATOM     23  S   UNL     1       7.320   5.336  15.693  0.00  0.00    +0.000 S 
ATOM     24  O   UNL     1       7.785   5.386  14.334  0.00  0.00    +0.000 OA
ATOM     25  O   UNL     1       7.664   4.258  16.586  0.00  0.00    +0.000 OA
BRANCH  23  26
ATOM     26  N   UNL     1       7.842   6.725  16.445  0.00  0.00    +0.000 NA
ATOM     27  H   UNL     1       7.529   7.526  15.894  0.00  0.00    +0.000 HD
ATOM     28  H   UNL     1       8.860   6.699  16.500  0.00  0.00    +0.000 HD
ENDBRANCH  23  26
ENDBRANCH  17  23
ENDBRANCH  16  20
ENDBRANCH   1  16
TORSDOF 4
ENDMDL
MODEL 9
REMARK VINA RESULT:      -7.8      2.145      2.556
REMARK  Name = 
REMARK  4 active torsions:
REMARK  status: ('A' for Active; 'I' for Inactive)
REMARK    1  A    between atoms: N_1  and  S_2
REMARK    2  A    between atoms: S_2  and  N_5
REMARK    3  A    between atoms: N_8  and  C_9
REMARK    4  A    between atoms: C_9  and  C_10
REMARK                            x       y       z     vdW  Elec       q    Type
REMARK                         _______ _______ _______ _____ _____    ______ ____
ROOT
ATOM      1  C   UNL     1       1.916   8.369  18.835  0.00  0.00    +0.000 A 
ATOM      2  C   UNL     1       1.338   8.951  17.701  0.00  0.00    +0.000 A 
ATOM      3  C   UNL     1       0.383   9.955  17.834  0.00  0.00    +0.000 A 
ATOM      4  C   UNL     1      -0.022  10.389  19.102  0.00  0.00    +0.000 A 
ATOM      5  C   UNL     1       0.511   9.784  20.254  0.00  0.00    +0.000 A 
ATOM      6  C   UNL     1       1.489   8.786  20.105  0.00  0.00    +0.000 A 
ATOM      7  N   UNL     1       0.118  10.173  21.539  0.00  0.00    +0.000 N 
ATOM      8  C   UNL     1      -0.855  11.114  21.874  0.00  0.00    +0.000 A 
ATOM      9  N   UNL     1      -1.143  11.239  23.194  0.00  0.00    +0.000 NA
ATOM     10  C   UNL     1      -2.087  12.154  23.512  0.00  0.00    +0.000 A 
ATOM     11  C   UNL     1      -2.723  12.931  22.561  0.00  0.00    +0.000 A 
ATOM     12  N   UNL     1      -2.453  12.821  21.244  0.00  0.00    +0.000 NA
ATOM     13  C   UNL     1      -1.513  11.896  20.907  0.00  0.00    +0.000 A 
ATOM     14  S   UNL     1      -1.198  11.734  19.166  0.00  0.00    +0.000 S 
ATOM     15  H   UNL     1       0.464   9.665  22.340  0.00  0.00    +0.000 HD
ENDROOT
BRANCH   1  16
ATOM     16  C   UNL     1       3.022   7.349  18.676  0.00  0.00    +0.000 C 
BRANCH  16  20
ATOM     17  N   UNL     1       4.076   3.912  19.539  0.00  0.00    +0.000 NA
ATOM     18  C   UNL     1       4.733   4.722  18.465  0.00  0.00    +0.000 C 
ATOM     19  C   UNL     1       3.727   5.320  17.462  0.00  0.00    +0.000 C 
ATOM     20  N   UNL     1       2.606   6.076  18.067  0.00  0.00    +0.000 NA
ATOM     21  C   UNL     1       1.963   5.206  19.081  0.00  0.00    +0.000 C 
ATOM     22  C   UNL     1       2.929   4.652  20.153  0.00  0.00    +0.000 C 
BRANCH  17  23
ATOM     23  S   UNL     1       3.735   2.309  19.184  0.00  0.00    +0.000 S 
ATOM     24  O   UNL     1       3.879   2.064  17.776  0.00  0.00    +0.000 OA
ATOM     25  O   UNL     1       2.558   1.916  19.918  0.00  0.00    +0.000 OA
BRANCH  23  26
ATOM     26  N   UNL     1       5.010   1.564  19.949  0.00  0.00    +0.000 NA
ATOM     27  H   UNL     1       4.884   0.554  19.874  0.00  0.00    +0.000 HD
ATOM     28  H   UNL     1       5.016   1.858  20.925  0.00  0.00    +0.000 HD
ENDBRANCH  23  26
ENDBRANCH  17  23
ENDBRANCH  16  20
ENDBRANCH   1  16
TORSDOF 4
ENDMDL
