MODEL 1
REMARK VINA RESULT:      -7.5      0.000      0.000
REMARK  Name = 
REMARK  6 active torsions:
REMARK  status: ('A' for Active; 'I' for Inactive)
REMARK    1  A    between atoms: C_1  and  N_2
REMARK    2  A    between atoms: N_2  and  C_3
REMARK    3  A    between atoms: N_2  and  C_17
REMARK    4  A    between atoms: C_3  and  C_4
REMARK    5  A    between atoms: C_4  and  C_5
REMARK    6  A    between atoms: C_10  and  N_11
REMARK                            x       y       z     vdW  Elec       q    Type
REMARK                         _______ _______ _______ _____ _____    ______ ____
ROOT
ATOM      1  C   UNL     1       2.981   6.025  18.897  0.00  0.00    +0.000 C 
ATOM      2  C   UNL     1       1.835   5.158  18.349  0.00  0.00    +0.000 C 
ATOM      3  C   UNL     1       3.453   7.047  17.835  0.00  0.00    +0.000 C 
ATOM      4  C   UNL     1       2.589   8.299  17.718  0.00  0.00    +0.000 C 
ATOM      5  N   UNL     1       1.902   8.612  18.942  0.00  0.00    +0.000 N 
ATOM      6  C   UNL     1       1.181   9.733  19.233  0.00  0.00    +0.000 A 
ATOM      7  C   UNL     1       0.723   9.514  20.522  0.00  0.00    +0.000 A 
ATOM      8  N   UNL     1       1.170   8.302  21.010  0.00  0.00    +0.000 NA
ATOM      9  C   UNL     1       1.867   7.790  20.026  0.00  0.00    +0.000 A 
ATOM     10  O   UNL     1       2.499   6.634  20.113  0.00  0.00    +0.000 OA
ENDROOT
BRANCH   7  11
ATOM     11  N   UNL     1      -0.098  10.382  21.333  0.00  0.00    +0.000 N 
ATOM     12  O   UNL     1      -1.041  10.951  20.755  0.00  0.00    +0.000 OA
ATOM     13  O   UNL     1       0.183  10.491  22.533  0.00  0.00    +0.000 OA
ENDBRANCH   7  11
BRANCH   1  14
ATOM     14  C   UNL     1       4.197   5.186  19.405  0.00  0.00    +0.000 C 
BRANCH  14  16
ATOM     15  C   UNL     1       4.070   2.722  18.885  0.00  0.00    +0.000 C 
ATOM     16  N   UNL     1       4.570   4.051  18.558  0.00  0.00    +0.000 N 
BRANCH  16  17
ATOM     17  C   UNL     1       5.321   4.231  17.408  0.00  0.00    +0.000 A 
ATOM     18  C   UNL     1       4.780   4.029  16.127  0.00  0.00    +0.000 A 
ATOM     19  C   UNL     1       5.516   4.293  14.970  0.00  0.00    +0.000 A 
ATOM     20  C   UNL     1       6.813   4.764  15.082  0.00  0.00    +0.000 A 
ATOM     21  F   UNL     1       7.514   5.046  13.978  0.00  0.00    +0.000 F 
ATOM     22  C   UNL     1       7.393   4.949  16.329  0.00  0.00    +0.000 A 
ATOM     23  C   UNL     1       6.654   4.671  17.481  0.00  0.00    +0.000 A 
ENDBRANCH  16  17
ENDBRANCH  14  16
ENDBRANCH   1  14
TORSDOF 4
ENDMDL
MODEL 2
REMARK VINA RESULT:      -7.4      3.990      7.189
REMARK  Name = 
REMARK  6 active torsions:
REMARK  status: ('A' for Active; 'I' for Inactive)
REMARK    1  A    between atoms: C_1  and  N_2
REMARK    2  A    between atoms: N_2  and  C_3
REMARK    3  A    between atoms: N_2  and  C_17
REMARK    4  A    between atoms: C_3  and  C_4
REMARK    5  A    between atoms: C_4  and  C_5
REMARK    6  A    between atoms: C_10  and  N_11
REMARK                            x       y       z     vdW  Elec       q    Type
REMARK                         _______ _______ _______ _____ _____    ______ ____
ROOT
ATOM      1  C   UNL     1       3.686   3.440  18.342  0.00  0.00    +0.000 C 
ATOM      2  C   UNL     1       3.898   1.917  18.385  0.00  0.00    +0.000 C 
ATOM      3  C   UNL     1       4.697   4.160  19.267  0.00  0.00    +0.000 C 
ATOM      4  C   UNL     1       6.086   4.359  18.670  0.00  0.00    +0.000 C 
ATOM      5  N   UNL     1       6.066   4.418  17.232  0.00  0.00    +0.000 N 
ATOM      6  C   UNL     1       7.094   4.739  16.394  0.00  0.00    +0.000 A 
ATOM      7  C   UNL     1       6.545   4.623  15.127  0.00  0.00    +0.000 A 
ATOM      8  N   UNL     1       5.214   4.261  15.193  0.00  0.00    +0.000 NA
ATOM      9  C   UNL     1       4.970   4.140  16.475  0.00  0.00    +0.000 A 
ATOM     10  O   UNL     1       3.780   3.836  16.958  0.00  0.00    +0.000 OA
ENDROOT
BRANCH   7  11
ATOM     11  N   UNL     1       7.191   4.846  13.855  0.00  0.00    +0.000 N 
ATOM     12  O   UNL     1       6.755   4.191  12.891  0.00  0.00    +0.000 OA
ATOM     13  O   UNL     1       8.112   5.669  13.810  0.00  0.00    +0.000 OA
ENDBRANCH   7  11
BRANCH   1  14
ATOM     14  C   UNL     1       2.230   3.867  18.712  0.00  0.00    +0.000 C 
BRANCH  14  16
ATOM     15  C   UNL     1       2.161   4.391  21.177  0.00  0.00    +0.000 C 
ATOM     16  N   UNL     1       2.121   4.848  19.794  0.00  0.00    +0.000 N 
BRANCH  16  17
ATOM     17  C   UNL     1       2.063   6.206  19.527  0.00  0.00    +0.000 A 
ATOM     18  C   UNL     1       2.325   6.724  18.247  0.00  0.00    +0.000 A 
ATOM     19  C   UNL     1       2.181   8.084  17.963  0.00  0.00    +0.000 A 
ATOM     20  C   UNL     1       1.774   8.948  18.965  0.00  0.00    +0.000 A 
ATOM     21  F   UNL     1       1.608  10.247  18.693  0.00  0.00    +0.000 F 
ATOM     22  C   UNL     1       1.534   8.480  20.249  0.00  0.00    +0.000 A 
ATOM     23  C   UNL     1       1.691   7.120  20.527  0.00  0.00    +0.000 A 
ENDBRANCH  16  17
ENDBRANCH  14  16
ENDBRANCH   1  14
TORSDOF 4
ENDMDL
MODEL 3
REMARK VINA RESULT:      -7.4      0.305      1.212
REMARK  Name = 
REMARK  6 active torsions:
REMARK  status: ('A' for Active; 'I' for Inactive)
REMARK    1  A    between atoms: C_1  and  N_2
REMARK    2  A    between atoms: N_2  and  C_3
REMARK    3  A    between atoms: N_2  and  C_17
REMARK    4  A    between atoms: C_3  and  C_4
REMARK    5  A    between atoms: C_4  and  C_5
REMARK    6  A    between atoms: C_10  and  N_11
REMARK                            x       y       z     vdW  Elec       q    Type
REMARK                         _______ _______ _______ _____ _____    ______ ____
ROOT
ATOM      1  C   UNL     1       3.001   6.061  18.934  0.00  0.00    +0.000 C 
ATOM      2  C   UNL     1       1.911   5.164  18.322  0.00  0.00    +0.000 C 
ATOM      3  C   UNL     1       3.421   7.171  17.939  0.00  0.00    +0.000 C 
ATOM      4  C   UNL     1       2.487   8.375  17.888  0.00  0.00    +0.000 C 
ATOM      5  N   UNL     1       1.774   8.575  19.121  0.00  0.00    +0.000 N 
ATOM      6  C   UNL     1       0.987   9.632  19.471  0.00  0.00    +0.000 A 
ATOM      7  C   UNL     1       0.533   9.310  20.740  0.00  0.00    +0.000 A 
ATOM      8  N   UNL     1       1.046   8.099  21.159  0.00  0.00    +0.000 NA
ATOM      9  C   UNL     1       1.778   7.688  20.154  0.00  0.00    +0.000 A 
ATOM     10  O   UNL     1       2.475   6.566  20.179  0.00  0.00    +0.000 OA
ENDROOT
BRANCH   7  11
ATOM     11  N   UNL     1      -0.344  10.079  21.593  0.00  0.00    +0.000 N 
ATOM     12  O   UNL     1      -0.409   9.724  22.783  0.00  0.00    +0.000 OA
ATOM     13  O   UNL     1      -0.952  11.031  21.089  0.00  0.00    +0.000 OA
ENDBRANCH   7  11
BRANCH   1  14
ATOM     14  C   UNL     1       4.259   5.264  19.403  0.00  0.00    +0.000 C 
BRANCH  14  16
ATOM     15  C   UNL     1       4.237   2.800  18.873  0.00  0.00    +0.000 C 
ATOM     16  N   UNL     1       4.656   4.154  18.535  0.00  0.00    +0.000 N 
BRANCH  16  17
ATOM     17  C   UNL     1       5.351   4.377  17.358  0.00  0.00    +0.000 A 
ATOM     18  C   UNL     1       6.703   4.762  17.355  0.00  0.00    +0.000 A 
ATOM     19  C   UNL     1       7.423   4.903  16.166  0.00  0.00    +0.000 A 
ATOM     20  C   UNL     1       6.792   4.661  14.957  0.00  0.00    +0.000 A 
ATOM     21  F   UNL     1       7.482   4.767  13.816  0.00  0.00    +0.000 F 
ATOM     22  C   UNL     1       5.451   4.308  14.917  0.00  0.00    +0.000 A 
ATOM     23  C   UNL     1       4.736   4.180  16.111  0.00  0.00    +0.000 A 
ENDBRANCH  16  17
ENDBRANCH  14  16
ENDBRANCH   1  14
TORSDOF 4
ENDMDL
MODEL 4
REMARK VINA RESULT:      -7.2      3.962      7.244
REMARK  Name = 
REMARK  6 active torsions:
REMARK  status: ('A' for Active; 'I' for Inactive)
REMARK    1  A    between atoms: C_1  and  N_2
REMARK    2  A    between atoms: N_2  and  C_3
REMARK    3  A    between atoms: N_2  and  C_17
REMARK    4  A    between atoms: C_3  and  C_4
REMARK    5  A    between atoms: C_4  and  C_5
REMARK    6  A    between atoms: C_10  and  N_11
REMARK                            x       y       z     vdW  Elec       q    Type
REMARK                         _______ _______ _______ _____ _____    ______ ____
ROOT
ATOM      1  C   UNL     1       3.641   3.516  18.350  0.00  0.00    +0.000 C 
ATOM      2  C   UNL     1       3.844   1.993  18.425  0.00  0.00    +0.000 C 
ATOM      3  C   UNL     1       4.653   4.251  19.262  0.00  0.00    +0.000 C 
ATOM      4  C   UNL     1       6.044   4.429  18.664  0.00  0.00    +0.000 C 
ATOM      5  N   UNL     1       6.029   4.459  17.226  0.00  0.00    +0.000 N 
ATOM      6  C   UNL     1       7.060   4.756  16.384  0.00  0.00    +0.000 A 
ATOM      7  C   UNL     1       6.514   4.615  15.118  0.00  0.00    +0.000 A 
ATOM      8  N   UNL     1       5.181   4.262  15.189  0.00  0.00    +0.000 NA
ATOM      9  C   UNL     1       4.934   4.170  16.472  0.00  0.00    +0.000 A 
ATOM     10  O   UNL     1       3.740   3.882  16.958  0.00  0.00    +0.000 OA
ENDROOT
BRANCH   7  11
ATOM     11  N   UNL     1       7.164   4.808  13.843  0.00  0.00    +0.000 N 
ATOM     12  O   UNL     1       8.101   5.626  13.817  0.00  0.00    +0.000 OA
ATOM     13  O   UNL     1       6.757   4.147  12.880  0.00  0.00    +0.000 OA
ENDBRANCH   7  11
BRANCH   1  14
ATOM     14  C   UNL     1       2.186   3.958  18.707  0.00  0.00    +0.000 C 
BRANCH  14  16
ATOM     15  C   UNL     1       2.218   4.494  21.170  0.00  0.00    +0.000 C 
ATOM     16  N   UNL     1       2.077   4.938  19.789  0.00  0.00    +0.000 N 
BRANCH  16  17
ATOM     17  C   UNL     1       1.925   6.289  19.522  0.00  0.00    +0.000 A 
ATOM     18  C   UNL     1       1.526   7.203  20.513  0.00  0.00    +0.000 A 
ATOM     19  C   UNL     1       1.457   8.574  20.260  0.00  0.00    +0.000 A 
ATOM     20  C   UNL     1       1.785   9.051  19.001  0.00  0.00    +0.000 A 
ATOM     21  F   UNL     1       1.748  10.366  18.760  0.00  0.00    +0.000 F 
ATOM     22  C   UNL     1       2.156   8.178  17.989  0.00  0.00    +0.000 A 
ATOM     23  C   UNL     1       2.211   6.806  18.248  0.00  0.00    +0.000 A 
ENDBRANCH  16  17
ENDBRANCH  14  16
ENDBRANCH   1  14
TORSDOF 4
ENDMDL
MODEL 5
REMARK VINA RESULT:      -7.2      4.460      6.650
REMARK  Name = 
REMARK  6 active torsions:
REMARK  status: ('A' for Active; 'I' for Inactive)
REMARK    1  A    between atoms: C_1  and  N_2
REMARK    2  A    between atoms: N_2  and  C_3
REMARK    3  A    between atoms: N_2  and  C_17
REMARK    4  A    between atoms: C_3  and  C_4
REMARK    5  A    between atoms: C_4  and  C_5
REMARK    6  A    between atoms: C_10  and  N_11
REMARK                            x       y       z     vdW  Elec       q    Type
REMARK                         _______ _______ _______ _____ _____    ______ ____
ROOT
ATOM      1  C   UNL     1       6.152   5.567  16.890  0.00  0.00    +0.000 C 
ATOM      2  C   UNL     1       7.076   5.009  15.793  0.00  0.00    +0.000 C 
ATOM      3  C   UNL     1       6.552   5.014  18.278  0.00  0.00    +0.000 C 
ATOM      4  C   UNL     1       7.729   5.725  18.938  0.00  0.00    +0.000 C 
ATOM      5  N   UNL     1       7.866   7.089  18.502  0.00  0.00    +0.000 N 
ATOM      6  C   UNL     1       8.702   8.046  18.999  0.00  0.00    +0.000 A 
ATOM      7  C   UNL     1       8.447   9.158  18.212  0.00  0.00    +0.000 A 
ATOM      8  N   UNL     1       7.468   8.890  17.275  0.00  0.00    +0.000 NA
ATOM      9  C   UNL     1       7.154   7.635  17.479  0.00  0.00    +0.000 A 
ATOM     10  O   UNL     1       6.215   7.005  16.797  0.00  0.00    +0.000 OA
ENDROOT
BRANCH   7  11
ATOM     11  N   UNL     1       9.056  10.465  18.295  0.00  0.00    +0.000 N 
ATOM     12  O   UNL     1      10.082  10.553  18.992  0.00  0.00    +0.000 OA
ATOM     13  O   UNL     1       8.528  11.391  17.667  0.00  0.00    +0.000 OA
ENDBRANCH   7  11
BRANCH   1  14
ATOM     14  C   UNL     1       4.640   5.283  16.620  0.00  0.00    +0.000 C 
BRANCH  14  16
ATOM     15  C   UNL     1       3.459   7.281  17.606  0.00  0.00    +0.000 C 
ATOM     16  N   UNL     1       3.713   5.846  17.604  0.00  0.00    +0.000 N 
BRANCH  16  17
ATOM     17  C   UNL     1       3.012   5.030  18.478  0.00  0.00    +0.000 A 
ATOM     18  C   UNL     1       3.127   5.164  19.873  0.00  0.00    +0.000 A 
ATOM     19  C   UNL     1       2.355   4.398  20.749  0.00  0.00    +0.000 A 
ATOM     20  C   UNL     1       1.455   3.479  20.235  0.00  0.00    +0.000 A 
ATOM     21  F   UNL     1       0.692   2.761  21.068  0.00  0.00    +0.000 F 
ATOM     22  C   UNL     1       1.334   3.297  18.865  0.00  0.00    +0.000 A 
ATOM     23  C   UNL     1       2.118   4.060  17.997  0.00  0.00    +0.000 A 
ENDBRANCH  16  17
ENDBRANCH  14  16
ENDBRANCH   1  14
TORSDOF 4
ENDMDL
MODEL 6
REMARK VINA RESULT:      -7.1      1.022      1.595
REMARK  Name = 
REMARK  6 active torsions:
REMARK  status: ('A' for Active; 'I' for Inactive)
REMARK    1  A    between atoms: C_1  and  N_2
REMARK    2  A    between atoms: N_2  and  C_3
REMARK    3  A    between atoms: N_2  and  C_17
REMARK    4  A    between atoms: C_3  and  C_4
REMARK    5  A    between atoms: C_4  and  C_5
REMARK    6  A    between atoms: C_10  and  N_11
REMARK                            x       y       z     vdW  Elec       q    Type
REMARK                         _______ _______ _______ _____ _____    ______ ____
ROOT
ATOM      1  C   UNL     1       3.097   5.534  18.547  0.00  0.00    +0.000 C 
ATOM      2  C   UNL     1       1.906   4.826  17.878  0.00  0.00    +0.000 C 
ATOM      3  C   UNL     1       3.573   6.734  17.694  0.00  0.00    +0.000 C 
ATOM      4  C   UNL     1       2.750   8.007  17.859  0.00  0.00    +0.000 C 
ATOM      5  N   UNL     1       2.110   8.089  19.145  0.00  0.00    +0.000 N 
ATOM      6  C   UNL     1       1.437   9.148  19.679  0.00  0.00    +0.000 A 
ATOM      7  C   UNL     1       1.009   8.689  20.914  0.00  0.00    +0.000 A 
ATOM      8  N   UNL     1       1.428   7.391  21.134  0.00  0.00    +0.000 NA
ATOM      9  C   UNL     1       2.078   7.067  20.043  0.00  0.00    +0.000 A 
ATOM     10  O   UNL     1       2.671   5.900  19.876  0.00  0.00    +0.000 OA
ENDROOT
BRANCH   7  11
ATOM     11  N   UNL     1       0.241   9.399  21.910  0.00  0.00    +0.000 N 
ATOM     12  O   UNL     1      -0.768   8.819  22.348  0.00  0.00    +0.000 OA
ATOM     13  O   UNL     1       0.642  10.515  22.261  0.00  0.00    +0.000 OA
ENDBRANCH   7  11
BRANCH   1  14
ATOM     14  C   UNL     1       4.297   4.576  18.834  0.00  0.00    +0.000 C 
BRANCH  14  16
ATOM     15  C   UNL     1       6.608   5.539  19.138  0.00  0.00    +0.000 C 
ATOM     16  N   UNL     1       5.579   4.992  18.262  0.00  0.00    +0.000 N 
BRANCH  16  17
ATOM     17  C   UNL     1       5.861   4.801  16.919  0.00  0.00    +0.000 A 
ATOM     18  C   UNL     1       6.927   5.460  16.282  0.00  0.00    +0.000 A 
ATOM     19  C   UNL     1       7.259   5.200  14.951  0.00  0.00    +0.000 A 
ATOM     20  C   UNL     1       6.521   4.271  14.235  0.00  0.00    +0.000 A 
ATOM     21  F   UNL     1       6.851   3.996  12.968  0.00  0.00    +0.000 F 
ATOM     22  C   UNL     1       5.444   3.621  14.820  0.00  0.00    +0.000 A 
ATOM     23  C   UNL     1       5.112   3.897  16.149  0.00  0.00    +0.000 A 
ENDBRANCH  16  17
ENDBRANCH  14  16
ENDBRANCH   1  14
TORSDOF 4
ENDMDL
MODEL 7
REMARK VINA RESULT:      -7.1      0.885      1.145
REMARK  Name = 
REMARK  6 active torsions:
REMARK  status: ('A' for Active; 'I' for Inactive)
REMARK    1  A    between atoms: C_1  and  N_2
REMARK    2  A    between atoms: N_2  and  C_3
REMARK    3  A    between atoms: N_2  and  C_17
REMARK    4  A    between atoms: C_3  and  C_4
REMARK    5  A    between atoms: C_4  and  C_5
REMARK    6  A    between atoms: C_10  and  N_11
REMARK                            x       y       z     vdW  Elec       q    Type
REMARK                         _______ _______ _______ _____ _____    ______ ____
ROOT
ATOM      1  C   UNL     1       3.039   5.521  18.568  0.00  0.00    +0.000 C 
ATOM      2  C   UNL     1       1.823   4.817  17.940  0.00  0.00    +0.000 C 
ATOM      3  C   UNL     1       3.551   6.657  17.649  0.00  0.00    +0.000 C 
ATOM      4  C   UNL     1       2.771   7.964  17.748  0.00  0.00    +0.000 C 
ATOM      5  N   UNL     1       2.139   8.135  19.029  0.00  0.00    +0.000 N 
ATOM      6  C   UNL     1       1.502   9.243  19.506  0.00  0.00    +0.000 A 
ATOM      7  C   UNL     1       1.065   8.865  20.765  0.00  0.00    +0.000 A 
ATOM      8  N   UNL     1       1.442   7.568  21.054  0.00  0.00    +0.000 NA
ATOM      9  C   UNL     1       2.076   7.165  19.981  0.00  0.00    +0.000 A 
ATOM     10  O   UNL     1       2.631   5.971  19.876  0.00  0.00    +0.000 OA
ENDROOT
BRANCH   7  11
ATOM     11  N   UNL     1       0.325   9.653  21.723  0.00  0.00    +0.000 N 
ATOM     12  O   UNL     1      -0.621  10.324  21.275  0.00  0.00    +0.000 OA
ATOM     13  O   UNL     1       0.673   9.598  22.909  0.00  0.00    +0.000 OA
ENDBRANCH   7  11
BRANCH   1  14
ATOM     14  C   UNL     1       4.208   4.541  18.903  0.00  0.00    +0.000 C 
BRANCH  14  16
ATOM     15  C   UNL     1       6.498   5.524  19.290  0.00  0.00    +0.000 C 
ATOM     16  N   UNL     1       5.521   4.933  18.385  0.00  0.00    +0.000 N 
BRANCH  16  17
ATOM     17  C   UNL     1       5.878   4.679  17.071  0.00  0.00    +0.000 A 
ATOM     18  C   UNL     1       5.123   3.826  16.247  0.00  0.00    +0.000 A 
ATOM     19  C   UNL     1       5.439   3.640  14.899  0.00  0.00    +0.000 A 
ATOM     20  C   UNL     1       6.524   4.308  14.357  0.00  0.00    +0.000 A 
ATOM     21  F   UNL     1       6.815   4.156  13.060  0.00  0.00    +0.000 F 
ATOM     22  C   UNL     1       7.311   5.136  15.144  0.00  0.00    +0.000 A 
ATOM     23  C   UNL     1       6.994   5.307  16.494  0.00  0.00    +0.000 A 
ENDBRANCH  16  17
ENDBRANCH  14  16
ENDBRANCH   1  14
TORSDOF 4
ENDMDL
MODEL 8
REMARK VINA RESULT:      -7.0      4.460      6.420
REMARK  Name = 
REMARK  6 active torsions:
REMARK  status: ('A' for Active; 'I' for Inactive)
REMARK    1  A    between atoms: C_1  and  N_2
REMARK    2  A    between atoms: N_2  and  C_3
REMARK    3  A    between atoms: N_2  and  C_17
REMARK    4  A    between atoms: C_3  and  C_4
REMARK    5  A    between atoms: C_4  and  C_5
REMARK    6  A    between atoms: C_10  and  N_11
REMARK                            x       y       z     vdW  Elec       q    Type
REMARK                         _______ _______ _______ _____ _____    ______ ____
ROOT
ATOM      1  C   UNL     1       6.176   5.294  16.626  0.00  0.00    +0.000 C 
ATOM      2  C   UNL     1       7.155   4.821  15.537  0.00  0.00    +0.000 C 
ATOM      3  C   UNL     1       6.554   4.696  18.002  0.00  0.00    +0.000 C 
ATOM      4  C   UNL     1       7.681   5.420  18.730  0.00  0.00    +0.000 C 
ATOM      5  N   UNL     1       7.778   6.807  18.358  0.00  0.00    +0.000 N 
ATOM      6  C   UNL     1       8.560   7.772  18.923  0.00  0.00    +0.000 A 
ATOM      7  C   UNL     1       8.287   8.907  18.177  0.00  0.00    +0.000 A 
ATOM      8  N   UNL     1       7.349   8.644  17.197  0.00  0.00    +0.000 NA
ATOM      9  C   UNL     1       7.078   7.370  17.337  0.00  0.00    +0.000 A 
ATOM     10  O   UNL     1       6.186   6.736  16.597  0.00  0.00    +0.000 OA
ENDROOT
BRANCH   7  11
ATOM     11  N   UNL     1       8.842  10.231  18.336  0.00  0.00    +0.000 N 
ATOM     12  O   UNL     1       8.327  11.132  17.651  0.00  0.00    +0.000 OA
ATOM     13  O   UNL     1       9.771  10.376  19.139  0.00  0.00    +0.000 OA
ENDBRANCH   7  11
BRANCH   1  14
ATOM     14  C   UNL     1       4.686   4.965  16.294  0.00  0.00    +0.000 C 
BRANCH  14  16
ATOM     15  C   UNL     1       3.832   2.954  17.553  0.00  0.00    +0.000 C 
ATOM     16  N   UNL     1       3.909   4.401  17.400  0.00  0.00    +0.000 N 
BRANCH  16  17
ATOM     17  C   UNL     1       3.315   5.218  18.349  0.00  0.00    +0.000 A 
ATOM     18  C   UNL     1       3.123   6.593  18.131  0.00  0.00    +0.000 A 
ATOM     19  C   UNL     1       2.448   7.395  19.054  0.00  0.00    +0.000 A 
ATOM     20  C   UNL     1       1.956   6.825  20.216  0.00  0.00    +0.000 A 
ATOM     21  F   UNL     1       1.283   7.582  21.091  0.00  0.00    +0.000 F 
ATOM     22  C   UNL     1       2.150   5.478  20.481  0.00  0.00    +0.000 A 
ATOM     23  C   UNL     1       2.837   4.686  19.558  0.00  0.00    +0.000 A 
ENDBRANCH  16  17
ENDBRANCH  14  16
ENDBRANCH   1  14
TORSDOF 4
ENDMDL
MODEL 9
REMARK VINA RESULT:      -7.0      4.445      6.409
REMARK  Name = 
REMARK  6 active torsions:
REMARK  status: ('A' for Active; 'I' for Inactive)
REMARK    1  A    between atoms: C_1  and  N_2
REMARK    2  A    between atoms: N_2  and  C_3
REMARK    3  A    between atoms: N_2  and  C_17
REMARK    4  A    between atoms: C_3  and  C_4
REMARK    5  A    between atoms: C_4  and  C_5
REMARK    6  A    between atoms: C_10  and  N_11
REMARK                            x       y       z     vdW  Elec       q    Type
REMARK                         _______ _______ _______ _____ _____    ______ ____
ROOT
ATOM      1  C   UNL     1       6.241   5.284  16.583  0.00  0.00    +0.000 C 
ATOM      2  C   UNL     1       7.259   4.809  15.531  0.00  0.00    +0.000 C 
ATOM      3  C   UNL     1       6.557   4.671  17.968  0.00  0.00    +0.000 C 
ATOM      4  C   UNL     1       7.661   5.379  18.748  0.00  0.00    +0.000 C 
ATOM      5  N   UNL     1       7.787   6.767  18.391  0.00  0.00    +0.000 N 
ATOM      6  C   UNL     1       8.555   7.719  18.994  0.00  0.00    +0.000 A 
ATOM      7  C   UNL     1       8.324   8.863  18.247  0.00  0.00    +0.000 A 
ATOM      8  N   UNL     1       7.424   8.617  17.228  0.00  0.00    +0.000 NA
ATOM      9  C   UNL     1       7.135   7.345  17.346  0.00  0.00    +0.000 A 
ATOM     10  O   UNL     1       6.267   6.726  16.566  0.00  0.00    +0.000 OA
ENDROOT
BRANCH   7  11
ATOM     11  N   UNL     1       8.885  10.179  18.439  0.00  0.00    +0.000 N 
ATOM     12  O   UNL     1       8.482  11.070  17.671  0.00  0.00    +0.000 OA
ATOM     13  O   UNL     1       9.710  10.330  19.349  0.00  0.00    +0.000 OA
ENDBRANCH   7  11
BRANCH   1  14
ATOM     14  C   UNL     1       4.763   4.973  16.189  0.00  0.00    +0.000 C 
BRANCH  14  16
ATOM     15  C   UNL     1       3.854   3.027  17.509  0.00  0.00    +0.000 C 
ATOM     16  N   UNL     1       3.920   4.464  17.273  0.00  0.00    +0.000 N 
BRANCH  16  17
ATOM     17  C   UNL     1       3.251   5.325  18.126  0.00  0.00    +0.000 A 
ATOM     18  C   UNL     1       2.762   4.903  19.375  0.00  0.00    +0.000 A 
ATOM     19  C   UNL     1       2.164   5.795  20.268  0.00  0.00    +0.000 A 
ATOM     20  C   UNL     1       2.045   7.130  19.917  0.00  0.00    +0.000 A 
ATOM     21  F   UNL     1       1.498   7.995  20.779  0.00  0.00    +0.000 F 
ATOM     22  C   UNL     1       2.489   7.580  18.682  0.00  0.00    +0.000 A 
ATOM     23  C   UNL     1       3.075   6.678  17.791  0.00  0.00    +0.000 A 
ENDBRANCH  16  17
ENDBRANCH  14  16
ENDBRANCH   1  14
TORSDOF 4
ENDMDL
