MODEL 1
REMARK VINA RESULT:      -7.6      0.000      0.000
REMARK  Name = 
REMARK  7 active torsions:
REMARK  status: ('A' for Active; 'I' for Inactive)
REMARK    1  A    between atoms: C_1  and  C_2
REMARK    2  A    between atoms: C_2  and  N_3
REMARK    3  A    between atoms: C_6  and  C_7
REMARK    4  A    between atoms: C_7  and  C_8
REMARK    5  A    between atoms: N_10  and  C_11
REMARK    6  A    between atoms: N_17  and  C_18
REMARK    7  A    between atoms: C_18  and  C_19
REMARK                            x       y       z     vdW  Elec       q    Type
REMARK                         _______ _______ _______ _____ _____    ______ ____
ROOT
ATOM      1  N   UNL     1       4.557   4.086  18.876  0.00  0.00    +0.000 N 
ATOM      2  C   UNL     1       5.607   4.895  19.220  0.00  0.00    +0.000 C 
ATOM      3  O   UNL     1       6.589   4.574  19.882  0.00  0.00    +0.000 OA
ATOM      4  C   UNL     1       5.429   6.248  18.557  0.00  0.00    +0.000 C 
ATOM      5  N   UNL     1       4.186   6.037  17.831  0.00  0.00    +0.000 N 
ATOM      6  C   UNL     1       3.675   4.754  18.052  0.00  0.00    +0.000 C 
ATOM      7  S   UNL     1       2.251   4.146  17.425  0.00  0.00    +0.000 S 
ENDROOT
BRANCH   1   9
ATOM      8  C   UNL     1       3.588   2.690  20.640  0.00  0.00    +0.000 C 
ATOM      9  C   UNL     1       4.447   2.729  19.386  0.00  0.00    +0.000 C 
ENDBRANCH   1   9
BRANCH   4  10
ATOM     10  C   UNL     1       6.659   6.564  17.711  0.00  0.00    +0.000 C 
BRANCH  10  11
ATOM     11  C   UNL     1       6.909   5.533  16.626  0.00  0.00    +0.000 C 
ATOM     12  O   UNL     1       7.656   4.587  16.862  0.00  0.00    +0.000 OA
ATOM     13  N   UNL     1       6.273   5.802  15.421  0.00  0.00    +0.000 N 
ATOM     14  H   UNL     1       5.783   6.688  15.330  0.00  0.00    +0.000 HD
BRANCH  13  15
ATOM     15  C   UNL     1       6.345   5.014  14.253  0.00  0.00    +0.000 A 
ATOM     16  C   UNL     1       5.401   4.038  13.923  0.00  0.00    +0.000 A 
ATOM     17  C   UNL     1       5.532   3.271  12.765  0.00  0.00    +0.000 A 
ATOM     18  C   UNL     1       6.614   3.471  11.915  0.00  0.00    +0.000 A 
ATOM     19  C   UNL     1       7.560   4.448  12.220  0.00  0.00    +0.000 A 
ATOM     20  C   UNL     1       7.422   5.226  13.376  0.00  0.00    +0.000 A 
ENDBRANCH  13  15
ENDBRANCH  10  11
ENDBRANCH   4  10
BRANCH   5  21
ATOM     21  C   UNL     1       3.467   7.151  17.210  0.00  0.00    +0.000 C 
BRANCH  21  22
ATOM     22  C   UNL     1       2.524   7.889  18.149  0.00  0.00    +0.000 A 
ATOM     23  C   UNL     1       1.884   9.047  17.703  0.00  0.00    +0.000 A 
ATOM     24  C   UNL     1       1.100   9.777  18.593  0.00  0.00    +0.000 A 
ATOM     25  C   UNL     1       0.960   9.328  19.899  0.00  0.00    +0.000 A 
ATOM     26  C   UNL     1       1.609   8.161  20.260  0.00  0.00    +0.000 A 
ATOM     27  N   UNL     1       2.399   7.444  19.428  0.00  0.00    +0.000 NA
ENDBRANCH  21  22
ENDBRANCH   5  21
TORSDOF 6
ENDMDL
MODEL 2
REMARK VINA RESULT:      -7.5      3.230      7.445
REMARK  Name = 
REMARK  7 active torsions:
REMARK  status: ('A' for Active; 'I' for Inactive)
REMARK    1  A    between atoms: C_1  and  C_2
REMARK    2  A    between atoms: C_2  and  N_3
REMARK    3  A    between atoms: C_6  and  C_7
REMARK    4  A    between atoms: C_7  and  C_8
REMARK    5  A    between atoms: N_10  and  C_11
REMARK    6  A    between atoms: N_17  and  C_18
REMARK    7  A    between atoms: C_18  and  C_19
REMARK                            x       y       z     vdW  Elec       q    Type
REMARK                         _______ _______ _______ _____ _____    ______ ____
ROOT
ATOM      1  N   UNL     1       1.973   3.324  19.617  0.00  0.00    +0.000 N 
ATOM      2  C   UNL     1       1.552   4.627  19.673  0.00  0.00    +0.000 C 
ATOM      3  O   UNL     1       0.703   5.087  20.430  0.00  0.00    +0.000 OA
ATOM      4  C   UNL     1       2.386   5.460  18.717  0.00  0.00    +0.000 C 
ATOM      5  N   UNL     1       3.281   4.447  18.179  0.00  0.00    +0.000 N 
ATOM      6  C   UNL     1       3.004   3.183  18.711  0.00  0.00    +0.000 C 
ATOM      7  S   UNL     1       3.788   1.762  18.316  0.00  0.00    +0.000 S 
ENDROOT
BRANCH   1   9
ATOM      8  C   UNL     1       1.816   2.341  21.855  0.00  0.00    +0.000 C 
ATOM      9  C   UNL     1       1.337   2.287  20.413  0.00  0.00    +0.000 C 
ENDBRANCH   1   9
BRANCH   4  10
ATOM     10  C   UNL     1       3.044   6.604  19.484  0.00  0.00    +0.000 C 
BRANCH  10  11
ATOM     11  C   UNL     1       2.144   7.818  19.617  0.00  0.00    +0.000 C 
ATOM     12  O   UNL     1       2.014   8.574  18.658  0.00  0.00    +0.000 OA
ATOM     13  N   UNL     1       1.574   7.974  20.874  0.00  0.00    +0.000 N 
ATOM     14  H   UNL     1       1.868   7.339  21.611  0.00  0.00    +0.000 HD
BRANCH  13  15
ATOM     15  C   UNL     1       0.710   9.018  21.267  0.00  0.00    +0.000 A 
ATOM     16  C   UNL     1       0.171   9.949  20.374  0.00  0.00    +0.000 A 
ATOM     17  C   UNL     1      -0.662  10.975  20.819  0.00  0.00    +0.000 A 
ATOM     18  C   UNL     1      -0.971  11.086  22.170  0.00  0.00    +0.000 A 
ATOM     19  C   UNL     1      -0.454  10.160  23.074  0.00  0.00    +0.000 A 
ATOM     20  C   UNL     1       0.372   9.123  22.626  0.00  0.00    +0.000 A 
ENDBRANCH  13  15
ENDBRANCH  10  11
ENDBRANCH   4  10
BRANCH   5  21
ATOM     21  C   UNL     1       4.136   4.722  17.023  0.00  0.00    +0.000 C 
BRANCH  21  22
ATOM     22  C   UNL     1       5.449   5.412  17.363  0.00  0.00    +0.000 A 
ATOM     23  C   UNL     1       6.338   4.792  18.242  0.00  0.00    +0.000 A 
ATOM     24  C   UNL     1       7.492   5.467  18.632  0.00  0.00    +0.000 A 
ATOM     25  C   UNL     1       7.739   6.735  18.124  0.00  0.00    +0.000 A 
ATOM     26  C   UNL     1       6.821   7.276  17.243  0.00  0.00    +0.000 A 
ATOM     27  N   UNL     1       5.677   6.658  16.866  0.00  0.00    +0.000 NA
ENDBRANCH  21  22
ENDBRANCH   5  21
TORSDOF 6
ENDMDL
MODEL 3
REMARK VINA RESULT:      -7.4      2.525      7.019
REMARK  Name = 
REMARK  7 active torsions:
REMARK  status: ('A' for Active; 'I' for Inactive)
REMARK    1  A    between atoms: C_1  and  C_2
REMARK    2  A    between atoms: C_2  and  N_3
REMARK    3  A    between atoms: C_6  and  C_7
REMARK    4  A    between atoms: C_7  and  C_8
REMARK    5  A    between atoms: N_10  and  C_11
REMARK    6  A    between atoms: N_17  and  C_18
REMARK    7  A    between atoms: C_18  and  C_19
REMARK                            x       y       z     vdW  Elec       q    Type
REMARK                         _______ _______ _______ _____ _____    ______ ____
ROOT
ATOM      1  N   UNL     1       2.526   4.216  20.438  0.00  0.00    +0.000 N 
ATOM      2  C   UNL     1       2.026   5.455  20.138  0.00  0.00    +0.000 C 
ATOM      3  O   UNL     1       1.470   6.225  20.915  0.00  0.00    +0.000 OA
ATOM      4  C   UNL     1       2.363   5.791  18.697  0.00  0.00    +0.000 C 
ATOM      5  N   UNL     1       3.096   4.599  18.301  0.00  0.00    +0.000 N 
ATOM      6  C   UNL     1       3.162   3.668  19.344  0.00  0.00    +0.000 C 
ATOM      7  S   UNL     1       3.887   2.164  19.269  0.00  0.00    +0.000 S 
ENDROOT
BRANCH   1   9
ATOM      8  C   UNL     1       1.236   2.568  21.711  0.00  0.00    +0.000 C 
ATOM      9  C   UNL     1       2.334   3.618  21.750  0.00  0.00    +0.000 C 
ENDBRANCH   1   9
BRANCH   4  10
ATOM     10  C   UNL     1       3.136   7.106  18.651  0.00  0.00    +0.000 C 
BRANCH  10  11
ATOM     11  C   UNL     1       2.294   8.268  18.160  0.00  0.00    +0.000 C 
ATOM     12  O   UNL     1       2.402   8.633  16.992  0.00  0.00    +0.000 OA
ATOM     13  N   UNL     1       1.488   8.844  19.134  0.00  0.00    +0.000 N 
ATOM     14  H   UNL     1       1.592   8.517  20.091  0.00  0.00    +0.000 HD
BRANCH  13  15
ATOM     15  C   UNL     1       0.619   9.940  18.946  0.00  0.00    +0.000 A 
ATOM     16  C   UNL     1      -0.565   9.866  18.208  0.00  0.00    +0.000 A 
ATOM     17  C   UNL     1      -1.377  10.987  18.036  0.00  0.00    +0.000 A 
ATOM     18  C   UNL     1      -1.017  12.203  18.605  0.00  0.00    +0.000 A 
ATOM     19  C   UNL     1       0.153  12.294  19.355  0.00  0.00    +0.000 A 
ATOM     20  C   UNL     1       0.963  11.167  19.538  0.00  0.00    +0.000 A 
ENDBRANCH  13  15
ENDBRANCH  10  11
ENDBRANCH   4  10
BRANCH   5  21
ATOM     21  C   UNL     1       3.436   4.342  16.900  0.00  0.00    +0.000 C 
BRANCH  21  22
ATOM     22  C   UNL     1       4.899   4.581  16.556  0.00  0.00    +0.000 A 
ATOM     23  C   UNL     1       5.330   4.396  15.242  0.00  0.00    +0.000 A 
ATOM     24  C   UNL     1       6.686   4.516  14.946  0.00  0.00    +0.000 A 
ATOM     25  C   UNL     1       7.575   4.834  15.964  0.00  0.00    +0.000 A 
ATOM     26  C   UNL     1       7.070   5.022  17.237  0.00  0.00    +0.000 A 
ATOM     27  N   UNL     1       5.763   4.885  17.562  0.00  0.00    +0.000 NA
ENDBRANCH  21  22
ENDBRANCH   5  21
TORSDOF 6
ENDMDL
MODEL 4
REMARK VINA RESULT:      -7.3      3.135      6.918
REMARK  Name = 
REMARK  7 active torsions:
REMARK  status: ('A' for Active; 'I' for Inactive)
REMARK    1  A    between atoms: C_1  and  C_2
REMARK    2  A    between atoms: C_2  and  N_3
REMARK    3  A    between atoms: C_6  and  C_7
REMARK    4  A    between atoms: C_7  and  C_8
REMARK    5  A    between atoms: N_10  and  C_11
REMARK    6  A    between atoms: N_17  and  C_18
REMARK    7  A    between atoms: C_18  and  C_19
REMARK                            x       y       z     vdW  Elec       q    Type
REMARK                         _______ _______ _______ _____ _____    ______ ____
ROOT
ATOM      1  N   UNL     1       2.061   3.609  19.664  0.00  0.00    +0.000 N 
ATOM      2  C   UNL     1       1.528   4.864  19.533  0.00  0.00    +0.000 C 
ATOM      3  O   UNL     1       0.596   5.331  20.180  0.00  0.00    +0.000 OA
ATOM      4  C   UNL     1       2.346   5.648  18.525  0.00  0.00    +0.000 C 
ATOM      5  N   UNL     1       3.357   4.665  18.166  0.00  0.00    +0.000 N 
ATOM      6  C   UNL     1       3.155   3.455  18.838  0.00  0.00    +0.000 C 
ATOM      7  S   UNL     1       4.081   2.074  18.667  0.00  0.00    +0.000 S 
ENDROOT
BRANCH   1   9
ATOM      8  C   UNL     1       2.038   2.740  21.955  0.00  0.00    +0.000 C 
ATOM      9  C   UNL     1       1.467   2.621  20.550  0.00  0.00    +0.000 C 
ENDBRANCH   1   9
BRANCH   4  10
ATOM     10  C   UNL     1       2.854   6.932  19.174  0.00  0.00    +0.000 C 
BRANCH  10  11
ATOM     11  C   UNL     1       2.253   8.182  18.559  0.00  0.00    +0.000 C 
ATOM     12  O   UNL     1       2.546   8.480  17.404  0.00  0.00    +0.000 OA
ATOM     13  N   UNL     1       1.433   8.906  19.416  0.00  0.00    +0.000 N 
ATOM     14  H   UNL     1       1.378   8.606  20.385  0.00  0.00    +0.000 HD
BRANCH  13  15
ATOM     15  C   UNL     1       0.760  10.105  19.100  0.00  0.00    +0.000 A 
ATOM     16  C   UNL     1       1.259  11.373  19.410  0.00  0.00    +0.000 A 
ATOM     17  C   UNL     1       0.542  12.526  19.094  0.00  0.00    +0.000 A 
ATOM     18  C   UNL     1      -0.691  12.429  18.458  0.00  0.00    +0.000 A 
ATOM     19  C   UNL     1      -1.199  11.174  18.128  0.00  0.00    +0.000 A 
ATOM     20  C   UNL     1      -0.474  10.017  18.435  0.00  0.00    +0.000 A 
ENDBRANCH  13  15
ENDBRANCH  10  11
ENDBRANCH   4  10
BRANCH   5  21
ATOM     21  C   UNL     1       4.257   4.876  17.031  0.00  0.00    +0.000 C 
BRANCH  21  22
ATOM     22  C   UNL     1       5.556   5.585  17.383  0.00  0.00    +0.000 A 
ATOM     23  C   UNL     1       6.474   4.950  18.220  0.00  0.00    +0.000 A 
ATOM     24  C   UNL     1       7.617   5.638  18.624  0.00  0.00    +0.000 A 
ATOM     25  C   UNL     1       7.822   6.934  18.171  0.00  0.00    +0.000 A 
ATOM     26  C   UNL     1       6.876   7.488  17.327  0.00  0.00    +0.000 A 
ATOM     27  N   UNL     1       5.744   6.857  16.939  0.00  0.00    +0.000 NA
ENDBRANCH  21  22
ENDBRANCH   5  21
TORSDOF 6
ENDMDL
MODEL 5
REMARK VINA RESULT:      -7.3      3.202      6.881
REMARK  Name = 
REMARK  7 active torsions:
REMARK  status: ('A' for Active; 'I' for Inactive)
REMARK    1  A    between atoms: C_1  and  C_2
REMARK    2  A    between atoms: C_2  and  N_3
REMARK    3  A    between atoms: C_6  and  C_7
REMARK    4  A    between atoms: C_7  and  C_8
REMARK    5  A    between atoms: N_10  and  C_11
REMARK    6  A    between atoms: N_17  and  C_18
REMARK    7  A    between atoms: C_18  and  C_19
REMARK                            x       y       z     vdW  Elec       q    Type
REMARK                         _______ _______ _______ _____ _____    ______ ____
ROOT
ATOM      1  N   UNL     1       2.052   3.475  19.786  0.00  0.00    +0.000 N 
ATOM      2  C   UNL     1       1.510   4.723  19.627  0.00  0.00    +0.000 C 
ATOM      3  O   UNL     1       0.524   5.169  20.205  0.00  0.00    +0.000 OA
ATOM      4  C   UNL     1       2.388   5.530  18.690  0.00  0.00    +0.000 C 
ATOM      5  N   UNL     1       3.439   4.567  18.400  0.00  0.00    +0.000 N 
ATOM      6  C   UNL     1       3.207   3.347  19.044  0.00  0.00    +0.000 C 
ATOM      7  S   UNL     1       4.166   1.983  18.932  0.00  0.00    +0.000 S 
ENDROOT
BRANCH   1   9
ATOM      8  C   UNL     1       1.873   2.582  22.061  0.00  0.00    +0.000 C 
ATOM      9  C   UNL     1       1.409   2.469  20.617  0.00  0.00    +0.000 C 
ENDBRANCH   1   9
BRANCH   4  10
ATOM     10  C   UNL     1       2.825   6.816  19.386  0.00  0.00    +0.000 C 
BRANCH  10  11
ATOM     11  C   UNL     1       2.201   8.057  18.778  0.00  0.00    +0.000 C 
ATOM     12  O   UNL     1       2.506   8.379  17.632  0.00  0.00    +0.000 OA
ATOM     13  N   UNL     1       1.348   8.748  19.630  0.00  0.00    +0.000 N 
ATOM     14  H   UNL     1       1.284   8.433  20.595  0.00  0.00    +0.000 HD
BRANCH  13  15
ATOM     15  C   UNL     1       0.649   9.933  19.319  0.00  0.00    +0.000 A 
ATOM     16  C   UNL     1      -0.455   9.974  18.464  0.00  0.00    +0.000 A 
ATOM     17  C   UNL     1      -1.097  11.178  18.173  0.00  0.00    +0.000 A 
ATOM     18  C   UNL     1      -0.642  12.365  18.738  0.00  0.00    +0.000 A 
ATOM     19  C   UNL     1       0.450  12.343  19.603  0.00  0.00    +0.000 A 
ATOM     20  C   UNL     1       1.087  11.133  19.904  0.00  0.00    +0.000 A 
ENDBRANCH  13  15
ENDBRANCH  10  11
ENDBRANCH   4  10
BRANCH   5  21
ATOM     21  C   UNL     1       4.419   4.803  17.338  0.00  0.00    +0.000 C 
BRANCH  21  22
ATOM     22  C   UNL     1       5.661   5.558  17.787  0.00  0.00    +0.000 A 
ATOM     23  C   UNL     1       6.043   6.712  17.101  0.00  0.00    +0.000 A 
ATOM     24  C   UNL     1       7.234   7.347  17.447  0.00  0.00    +0.000 A 
ATOM     25  C   UNL     1       8.005   6.826  18.477  0.00  0.00    +0.000 A 
ATOM     26  C   UNL     1       7.550   5.690  19.123  0.00  0.00    +0.000 A 
ATOM     27  N   UNL     1       6.412   5.034  18.793  0.00  0.00    +0.000 NA
ENDBRANCH  21  22
ENDBRANCH   5  21
TORSDOF 6
ENDMDL
MODEL 6
REMARK VINA RESULT:      -7.3      3.350      5.768
REMARK  Name = 
REMARK  7 active torsions:
REMARK  status: ('A' for Active; 'I' for Inactive)
REMARK    1  A    between atoms: C_1  and  C_2
REMARK    2  A    between atoms: C_2  and  N_3
REMARK    3  A    between atoms: C_6  and  C_7
REMARK    4  A    between atoms: C_7  and  C_8
REMARK    5  A    between atoms: N_10  and  C_11
REMARK    6  A    between atoms: N_17  and  C_18
REMARK    7  A    between atoms: C_18  and  C_19
REMARK                            x       y       z     vdW  Elec       q    Type
REMARK                         _______ _______ _______ _____ _____    ______ ____
ROOT
ATOM      1  N   UNL     1       6.068   4.273  15.690  0.00  0.00    +0.000 N 
ATOM      2  C   UNL     1       7.085   5.174  15.864  0.00  0.00    +0.000 C 
ATOM      3  O   UNL     1       7.869   5.564  15.005  0.00  0.00    +0.000 OA
ATOM      4  C   UNL     1       7.030   5.716  17.281  0.00  0.00    +0.000 C 
ATOM      5  N   UNL     1       5.873   5.005  17.803  0.00  0.00    +0.000 N 
ATOM      6  C   UNL     1       5.332   4.138  16.848  0.00  0.00    +0.000 C 
ATOM      7  S   UNL     1       4.023   3.124  17.078  0.00  0.00    +0.000 S 
ENDROOT
BRANCH   1   9
ATOM      8  C   UNL     1       5.144   4.440  13.427  0.00  0.00    +0.000 C 
ATOM      9  C   UNL     1       5.886   3.570  14.430  0.00  0.00    +0.000 C 
ENDBRANCH   1   9
BRANCH   4  10
ATOM     10  C   UNL     1       6.924   7.238  17.237  0.00  0.00    +0.000 C 
BRANCH  10  11
ATOM     11  C   UNL     1       7.970   7.926  18.092  0.00  0.00    +0.000 C 
ATOM     12  O   UNL     1       8.580   7.271  18.934  0.00  0.00    +0.000 OA
ATOM     13  N   UNL     1       8.104   9.288  17.850  0.00  0.00    +0.000 N 
ATOM     14  H   UNL     1       7.447   9.723  17.209  0.00  0.00    +0.000 HD
BRANCH  13  15
ATOM     15  C   UNL     1       8.994  10.162  18.510  0.00  0.00    +0.000 A 
ATOM     16  C   UNL     1       9.041  10.309  19.898  0.00  0.00    +0.000 A 
ATOM     17  C   UNL     1       9.926  11.204  20.499  0.00  0.00    +0.000 A 
ATOM     18  C   UNL     1      10.784  11.968  19.715  0.00  0.00    +0.000 A 
ATOM     19  C   UNL     1      10.761  11.827  18.329  0.00  0.00    +0.000 A 
ATOM     20  C   UNL     1       9.880  10.920  17.727  0.00  0.00    +0.000 A 
ENDBRANCH  13  15
ENDBRANCH  10  11
ENDBRANCH   4  10
BRANCH   5  21
ATOM     21  C   UNL     1       5.551   5.017  19.231  0.00  0.00    +0.000 C 
BRANCH  21  22
ATOM     22  C   UNL     1       4.114   5.402  19.547  0.00  0.00    +0.000 A 
ATOM     23  C   UNL     1       3.610   6.612  19.067  0.00  0.00    +0.000 A 
ATOM     24  C   UNL     1       2.328   7.011  19.438  0.00  0.00    +0.000 A 
ATOM     25  C   UNL     1       1.575   6.188  20.264  0.00  0.00    +0.000 A 
ATOM     26  C   UNL     1       2.135   4.995  20.683  0.00  0.00    +0.000 A 
ATOM     27  N   UNL     1       3.387   4.591  20.363  0.00  0.00    +0.000 NA
ENDBRANCH  21  22
ENDBRANCH   5  21
TORSDOF 6
ENDMDL
MODEL 7
REMARK VINA RESULT:      -7.2      1.053      1.659
REMARK  Name = 
REMARK  7 active torsions:
REMARK  status: ('A' for Active; 'I' for Inactive)
REMARK    1  A    between atoms: C_1  and  C_2
REMARK    2  A    between atoms: C_2  and  N_3
REMARK    3  A    between atoms: C_6  and  C_7
REMARK    4  A    between atoms: C_7  and  C_8
REMARK    5  A    between atoms: N_10  and  C_11
REMARK    6  A    between atoms: N_17  and  C_18
REMARK    7  A    between atoms: C_18  and  C_19
REMARK                            x       y       z     vdW  Elec       q    Type
REMARK                         _______ _______ _______ _____ _____    ______ ____
ROOT
ATOM      1  N   UNL     1       4.387   4.180  18.619  0.00  0.00    +0.000 N 
ATOM      2  C   UNL     1       5.440   5.009  18.905  0.00  0.00    +0.000 C 
ATOM      3  O   UNL     1       6.534   4.672  19.349  0.00  0.00    +0.000 OA
ATOM      4  C   UNL     1       5.088   6.423  18.482  0.00  0.00    +0.000 C 
ATOM      5  N   UNL     1       3.753   6.223  17.940  0.00  0.00    +0.000 N 
ATOM      6  C   UNL     1       3.349   4.889  18.052  0.00  0.00    +0.000 C 
ATOM      7  S   UNL     1       1.870   4.271  17.579  0.00  0.00    +0.000 S 
ENDROOT
BRANCH   1   9
ATOM      8  C   UNL     1       3.754   2.487  20.272  0.00  0.00    +0.000 C 
ATOM      9  C   UNL     1       4.431   2.762  18.938  0.00  0.00    +0.000 C 
ENDBRANCH   1   9
BRANCH   4  10
ATOM     10  C   UNL     1       6.142   6.937  17.505  0.00  0.00    +0.000 C 
BRANCH  10  11
ATOM     11  C   UNL     1       5.896   6.482  16.079  0.00  0.00    +0.000 C 
ATOM     12  O   UNL     1       5.002   7.016  15.428  0.00  0.00    +0.000 OA
ATOM     13  N   UNL     1       6.713   5.439  15.660  0.00  0.00    +0.000 N 
ATOM     14  H   UNL     1       7.327   5.011  16.348  0.00  0.00    +0.000 HD
BRANCH  13  15
ATOM     15  C   UNL     1       6.685   4.826  14.389  0.00  0.00    +0.000 A 
ATOM     16  C   UNL     1       7.601   5.114  13.374  0.00  0.00    +0.000 A 
ATOM     17  C   UNL     1       7.514   4.493  12.129  0.00  0.00    +0.000 A 
ATOM     18  C   UNL     1       6.506   3.568  11.879  0.00  0.00    +0.000 A 
ATOM     19  C   UNL     1       5.590   3.258  12.882  0.00  0.00    +0.000 A 
ATOM     20  C   UNL     1       5.684   3.873  14.137  0.00  0.00    +0.000 A 
ENDBRANCH  13  15
ENDBRANCH  10  11
ENDBRANCH   4  10
BRANCH   5  21
ATOM     21  C   UNL     1       2.886   7.357  17.611  0.00  0.00    +0.000 C 
BRANCH  21  22
ATOM     22  C   UNL     1       2.191   7.984  18.810  0.00  0.00    +0.000 A 
ATOM     23  C   UNL     1       2.101   7.262  20.001  0.00  0.00    +0.000 A 
ATOM     24  C   UNL     1       1.378   7.794  21.067  0.00  0.00    +0.000 A 
ATOM     25  C   UNL     1       0.777   9.037  20.924  0.00  0.00    +0.000 A 
ATOM     26  C   UNL     1       0.927   9.700  19.719  0.00  0.00    +0.000 A 
ATOM     27  N   UNL     1       1.599   9.200  18.656  0.00  0.00    +0.000 NA
ENDBRANCH  21  22
ENDBRANCH   5  21
TORSDOF 6
ENDMDL
MODEL 8
REMARK VINA RESULT:      -7.2      0.370      1.081
REMARK  Name = 
REMARK  7 active torsions:
REMARK  status: ('A' for Active; 'I' for Inactive)
REMARK    1  A    between atoms: C_1  and  C_2
REMARK    2  A    between atoms: C_2  and  N_3
REMARK    3  A    between atoms: C_6  and  C_7
REMARK    4  A    between atoms: C_7  and  C_8
REMARK    5  A    between atoms: N_10  and  C_11
REMARK    6  A    between atoms: N_17  and  C_18
REMARK    7  A    between atoms: C_18  and  C_19
REMARK                            x       y       z     vdW  Elec       q    Type
REMARK                         _______ _______ _______ _____ _____    ______ ____
ROOT
ATOM      1  N   UNL     1       4.327   4.095  18.990  0.00  0.00    +0.000 N 
ATOM      2  C   UNL     1       5.439   4.835  19.296  0.00  0.00    +0.000 C 
ATOM      3  O   UNL     1       6.412   4.456  19.941  0.00  0.00    +0.000 OA
ATOM      4  C   UNL     1       5.338   6.187  18.615  0.00  0.00    +0.000 C 
ATOM      5  N   UNL     1       4.066   6.052  17.922  0.00  0.00    +0.000 N 
ATOM      6  C   UNL     1       3.474   4.811  18.177  0.00  0.00    +0.000 C 
ATOM      7  S   UNL     1       1.996   4.294  17.593  0.00  0.00    +0.000 S 
ENDROOT
BRANCH   1   9
ATOM      8  C   UNL     1       3.959   1.745  18.404  0.00  0.00    +0.000 C 
ATOM      9  C   UNL     1       4.136   2.757  19.526  0.00  0.00    +0.000 C 
ENDBRANCH   1   9
BRANCH   4  10
ATOM     10  C   UNL     1       6.566   6.404  17.736  0.00  0.00    +0.000 C 
BRANCH  10  11
ATOM     11  C   UNL     1       6.716   5.344  16.661  0.00  0.00    +0.000 C 
ATOM     12  O   UNL     1       7.208   4.258  16.957  0.00  0.00    +0.000 OA
ATOM     13  N   UNL     1       6.301   5.746  15.397  0.00  0.00    +0.000 N 
ATOM     14  H   UNL     1       6.029   6.717  15.273  0.00  0.00    +0.000 HD
BRANCH  13  15
ATOM     15  C   UNL     1       6.341   4.960  14.225  0.00  0.00    +0.000 A 
ATOM     16  C   UNL     1       7.393   5.000  13.307  0.00  0.00    +0.000 A 
ATOM     17  C   UNL     1       7.371   4.218  12.152  0.00  0.00    +0.000 A 
ATOM     18  C   UNL     1       6.292   3.378  11.899  0.00  0.00    +0.000 A 
ATOM     19  C   UNL     1       5.239   3.315  12.809  0.00  0.00    +0.000 A 
ATOM     20  C   UNL     1       5.265   4.092  13.973  0.00  0.00    +0.000 A 
ENDBRANCH  13  15
ENDBRANCH  10  11
ENDBRANCH   4  10
BRANCH   5  21
ATOM     21  C   UNL     1       3.411   7.204  17.300  0.00  0.00    +0.000 C 
BRANCH  21  22
ATOM     22  C   UNL     1       2.460   7.956  18.220  0.00  0.00    +0.000 A 
ATOM     23  C   UNL     1       1.835   9.114  17.756  0.00  0.00    +0.000 A 
ATOM     24  C   UNL     1       1.044   9.858  18.629  0.00  0.00    +0.000 A 
ATOM     25  C   UNL     1       0.882   9.420  19.936  0.00  0.00    +0.000 A 
ATOM     26  C   UNL     1       1.518   8.252  20.316  0.00  0.00    +0.000 A 
ATOM     27  N   UNL     1       2.315   7.522  19.501  0.00  0.00    +0.000 NA
ENDBRANCH  21  22
ENDBRANCH   5  21
TORSDOF 6
ENDMDL
MODEL 9
REMARK VINA RESULT:      -7.1      3.263      6.956
REMARK  Name = 
REMARK  7 active torsions:
REMARK  status: ('A' for Active; 'I' for Inactive)
REMARK    1  A    between atoms: C_1  and  C_2
REMARK    2  A    between atoms: C_2  and  N_3
REMARK    3  A    between atoms: C_6  and  C_7
REMARK    4  A    between atoms: C_7  and  C_8
REMARK    5  A    between atoms: N_10  and  C_11
REMARK    6  A    between atoms: N_17  and  C_18
REMARK    7  A    between atoms: C_18  and  C_19
REMARK                            x       y       z     vdW  Elec       q    Type
REMARK                         _______ _______ _______ _____ _____    ______ ____
ROOT
ATOM      1  N   UNL     1       2.500   4.316  20.503  0.00  0.00    +0.000 N 
ATOM      2  C   UNL     1       1.870   5.464  20.100  0.00  0.00    +0.000 C 
ATOM      3  O   UNL     1       0.928   6.015  20.662  0.00  0.00    +0.000 OA
ATOM      4  C   UNL     1       2.591   6.027  18.890  0.00  0.00    +0.000 C 
ATOM      5  N   UNL     1       3.659   5.053  18.728  0.00  0.00    +0.000 N 
ATOM      6  C   UNL     1       3.573   4.035  19.683  0.00  0.00    +0.000 C 
ATOM      7  S   UNL     1       4.593   2.717  19.804  0.00  0.00    +0.000 S 
ENDROOT
BRANCH   1   9
ATOM      8  C   UNL     1       1.081   2.433  21.167  0.00  0.00    +0.000 C 
ATOM      9  C   UNL     1       2.013   3.540  21.632  0.00  0.00    +0.000 C 
ENDBRANCH   1   9
BRANCH   4  10
ATOM     10  C   UNL     1       3.023   7.461  19.180  0.00  0.00    +0.000 C 
BRANCH  10  11
ATOM     11  C   UNL     1       2.166   8.491  18.470  0.00  0.00    +0.000 C 
ATOM     12  O   UNL     1       2.344   8.693  17.272  0.00  0.00    +0.000 OA
ATOM     13  N   UNL     1       1.262   9.151  19.293  0.00  0.00    +0.000 N 
ATOM     14  H   UNL     1       1.309   8.969  20.292  0.00  0.00    +0.000 HD
BRANCH  13  15
ATOM     15  C   UNL     1       0.357  10.157  18.890  0.00  0.00    +0.000 A 
ATOM     16  C   UNL     1      -0.864   9.889  18.266  0.00  0.00    +0.000 A 
ATOM     17  C   UNL     1      -1.712  10.922  17.868  0.00  0.00    +0.000 A 
ATOM     18  C   UNL     1      -1.350  12.246  18.092  0.00  0.00    +0.000 A 
ATOM     19  C   UNL     1      -0.142  12.534  18.725  0.00  0.00    +0.000 A 
ATOM     20  C   UNL     1       0.704  11.496  19.135  0.00  0.00    +0.000 A 
ENDBRANCH  13  15
ENDBRANCH  10  11
ENDBRANCH   4  10
BRANCH   5  21
ATOM     21  C   UNL     1       4.500   5.036  17.529  0.00  0.00    +0.000 C 
BRANCH  21  22
ATOM     22  C   UNL     1       5.786   5.839  17.654  0.00  0.00    +0.000 A 
ATOM     23  C   UNL     1       6.733   5.467  18.611  0.00  0.00    +0.000 A 
ATOM     24  C   UNL     1       7.864   6.260  18.794  0.00  0.00    +0.000 A 
ATOM     25  C   UNL     1       8.031   7.393  18.009  0.00  0.00    +0.000 A 
ATOM     26  C   UNL     1       7.059   7.684  17.068  0.00  0.00    +0.000 A 
ATOM     27  N   UNL     1       5.936   6.951  16.885  0.00  0.00    +0.000 NA
ENDBRANCH  21  22
ENDBRANCH   5  21
TORSDOF 6
ENDMDL
