MODEL 1
REMARK VINA RESULT:      -8.1      0.000      0.000
REMARK  Name = 
REMARK  10 active torsions:
REMARK  status: ('A' for Active; 'I' for Inactive)
REMARK    1  A    between atoms: C_2  and  O_3
REMARK    2  A    between atoms: C_2  and  C_4
REMARK    3  A    between atoms: C_4  and  O_5
REMARK    4  A    between atoms: C_4  and  C_28
REMARK    5  A    between atoms: O_5  and  C_6
REMARK    6  A    between atoms: C_6  and  C_7
REMARK    7  A    between atoms: C_7  and  N_8
REMARK    8  A    between atoms: N_11  and  C_12
REMARK    9  A    between atoms: C_12  and  C_13
REMARK   10  A    between atoms: C_12  and  C_19
REMARK                            x       y       z     vdW  Elec       q    Type
REMARK                         _______ _______ _______ _____ _____    ______ ____
ROOT
ATOM      1  N   UNL     1       5.224   4.411  16.485  0.00  0.00    +0.000 NA
ATOM      2  C   UNL     1       4.558   3.708  17.599  0.00  0.00    +0.000 C 
ATOM      3  C   UNL     1       4.734   4.391  18.974  0.00  0.00    +0.000 C 
ATOM      4  N   UNL     1       4.254   5.800  19.016  0.00  0.00    +0.000 NA
ATOM      5  C   UNL     1       4.905   6.517  17.895  0.00  0.00    +0.000 C 
ATOM      6  C   UNL     1       4.800   5.834  16.509  0.00  0.00    +0.000 C 
ENDROOT
BRANCH   1   7
ATOM      7  C   UNL     1       6.701   4.326  16.537  0.00  0.00    +0.000 C 
BRANCH   7   8
ATOM      8  C   UNL     1       7.472   5.232  15.559  0.00  0.00    +0.000 C 
BRANCH   8   9
ATOM      9  O   UNL     1       6.773   5.329  14.310  0.00  0.00    +0.000 OA
BRANCH   9  10
ATOM     10  C   UNL     1       7.477   4.725  13.198  0.00  0.00    +0.000 C 
BRANCH  10  11
ATOM     11  C   UNL     1       6.599   3.717  12.475  0.00  0.00    +0.000 A 
ATOM     12  C   UNL     1       7.096   2.616  11.768  0.00  0.00    +0.000 A 
ATOM     13  C   UNL     1       6.236   1.788  11.041  0.00  0.00    +0.000 A 
ATOM     14  C   UNL     1       4.868   2.045  11.009  0.00  0.00    +0.000 A 
ATOM     15  C   UNL     1       4.353   3.128  11.714  0.00  0.00    +0.000 A 
ATOM     16  C   UNL     1       5.208   3.953  12.444  0.00  0.00    +0.000 A 
ENDBRANCH  10  11
BRANCH  10  18
ATOM     17  O   UNL     1       7.881   6.284  11.311  0.00  0.00    +0.000 OA
ATOM     18  C   UNL     1       8.203   5.821  12.394  0.00  0.00    +0.000 C 
BRANCH  18  19
ATOM     19  O   UNL     1       9.351   6.211  13.025  0.00  0.00    +0.000 OA
ATOM     20  H   UNL     1       9.435   7.192  12.963  0.00  0.00    +0.000 HD
ENDBRANCH  18  19
ENDBRANCH  10  18
ENDBRANCH   9  10
ENDBRANCH   8   9
ENDBRANCH   7   8
ENDBRANCH   1   7
BRANCH   4  21
ATOM     21  C   UNL     1       2.758   5.860  18.991  0.00  0.00    +0.000 C 
BRANCH  21  22
ATOM     22  C   UNL     1       2.142   7.212  19.380  0.00  0.00    +0.000 A 
ATOM     23  C   UNL     1       1.980   8.199  18.387  0.00  0.00    +0.000 A 
ATOM     24  C   UNL     1       1.383   9.425  18.684  0.00  0.00    +0.000 A 
ATOM     25  C   UNL     1       0.942   9.681  19.980  0.00  0.00    +0.000 A 
ATOM     26 CL   UNL     1       0.196  11.188  20.345  0.00  0.00    +0.000 Cl
ATOM     27  C   UNL     1       1.088   8.722  20.977  0.00  0.00    +0.000 A 
ATOM     28  C   UNL     1       1.671   7.488  20.675  0.00  0.00    +0.000 A 
ENDBRANCH  21  22
BRANCH  21  29
ATOM     29  C   UNL     1       2.155   4.749  19.866  0.00  0.00    +0.000 A 
ATOM     30  C   UNL     1       2.650   4.500  21.159  0.00  0.00    +0.000 A 
ATOM     31  C   UNL     1       2.170   3.429  21.913  0.00  0.00    +0.000 A 
ATOM     32  C   UNL     1       1.188   2.593  21.387  0.00  0.00    +0.000 A 
ATOM     33  C   UNL     1       0.676   2.832  20.115  0.00  0.00    +0.000 A 
ATOM     34  C   UNL     1       1.150   3.908  19.357  0.00  0.00    +0.000 A 
ENDBRANCH  21  29
ENDBRANCH   4  21
TORSDOF 10
ENDMDL
MODEL 2
REMARK VINA RESULT:      -8.0      0.198      1.202
REMARK  Name = 
REMARK  10 active torsions:
REMARK  status: ('A' for Active; 'I' for Inactive)
REMARK    1  A    between atoms: C_2  and  O_3
REMARK    2  A    between atoms: C_2  and  C_4
REMARK    3  A    between atoms: C_4  and  O_5
REMARK    4  A    between atoms: C_4  and  C_28
REMARK    5  A    between atoms: O_5  and  C_6
REMARK    6  A    between atoms: C_6  and  C_7
REMARK    7  A    between atoms: C_7  and  N_8
REMARK    8  A    between atoms: N_11  and  C_12
REMARK    9  A    between atoms: C_12  and  C_13
REMARK   10  A    between atoms: C_12  and  C_19
REMARK                            x       y       z     vdW  Elec       q    Type
REMARK                         _______ _______ _______ _____ _____    ______ ____
ROOT
ATOM      1  N   UNL     1       5.364   4.430  16.640  0.00  0.00    +0.000 NA
ATOM      2  C   UNL     1       4.668   3.801  17.779  0.00  0.00    +0.000 C 
ATOM      3  C   UNL     1       4.761   4.603  19.097  0.00  0.00    +0.000 C 
ATOM      4  N   UNL     1       4.240   5.994  18.999  0.00  0.00    +0.000 NA
ATOM      5  C   UNL     1       4.921   6.635  17.849  0.00  0.00    +0.000 C 
ATOM      6  C   UNL     1       4.900   5.835  16.523  0.00  0.00    +0.000 C 
ENDROOT
BRANCH   1   7
ATOM      7  C   UNL     1       6.839   4.397  16.763  0.00  0.00    +0.000 C 
BRANCH   7   8
ATOM      8  C   UNL     1       7.635   5.027  15.605  0.00  0.00    +0.000 C 
BRANCH   8   9
ATOM      9  O   UNL     1       6.825   5.101  14.423  0.00  0.00    +0.000 OA
BRANCH   9  10
ATOM     10  C   UNL     1       7.496   4.642  13.224  0.00  0.00    +0.000 C 
BRANCH  10  11
ATOM     11  C   UNL     1       6.589   3.747  12.396  0.00  0.00    +0.000 A 
ATOM     12  C   UNL     1       5.209   3.937  12.273  0.00  0.00    +0.000 A 
ATOM     13  C   UNL     1       4.421   3.015  11.577  0.00  0.00    +0.000 A 
ATOM     14  C   UNL     1       4.998   1.891  10.996  0.00  0.00    +0.000 A 
ATOM     15  C   UNL     1       6.370   1.688  11.098  0.00  0.00    +0.000 A 
ATOM     16  C   UNL     1       7.160   2.609  11.786  0.00  0.00    +0.000 A 
ENDBRANCH  10  11
BRANCH  10  18
ATOM     17  O   UNL     1       7.897   6.410  11.532  0.00  0.00    +0.000 OA
ATOM     18  C   UNL     1       8.219   5.827  12.555  0.00  0.00    +0.000 C 
BRANCH  18  19
ATOM     19  O   UNL     1       9.364   6.146  13.229  0.00  0.00    +0.000 OA
ATOM     20  H   UNL     1       9.961   5.361  13.239  0.00  0.00    +0.000 HD
ENDBRANCH  18  19
ENDBRANCH  10  18
ENDBRANCH   9  10
ENDBRANCH   8   9
ENDBRANCH   7   8
ENDBRANCH   1   7
BRANCH   4  21
ATOM     21  C   UNL     1       2.746   6.003  18.903  0.00  0.00    +0.000 C 
BRANCH  21  22
ATOM     22  C   UNL     1       2.064   7.324  19.292  0.00  0.00    +0.000 A 
ATOM     23  C   UNL     1       1.665   7.516  20.630  0.00  0.00    +0.000 A 
ATOM     24  C   UNL     1       1.084   8.718  21.039  0.00  0.00    +0.000 A 
ATOM     25  C   UNL     1       0.892   9.742  20.115  0.00  0.00    +0.000 A 
ATOM     26 CL   UNL     1       0.185  11.226  20.622  0.00  0.00    +0.000 Cl
ATOM     27  C   UNL     1       1.280   9.575  18.790  0.00  0.00    +0.000 A 
ATOM     28  C   UNL     1       1.876   8.379  18.384  0.00  0.00    +0.000 A 
ENDBRANCH  21  22
BRANCH  21  29
ATOM     29  C   UNL     1       2.141   4.851  19.723  0.00  0.00    +0.000 A 
ATOM     30  C   UNL     1       2.534   4.631  21.056  0.00  0.00    +0.000 A 
ATOM     31  C   UNL     1       2.060   3.529  21.766  0.00  0.00    +0.000 A 
ATOM     32  C   UNL     1       1.188   2.630  21.157  0.00  0.00    +0.000 A 
ATOM     33  C   UNL     1       0.777   2.839  19.842  0.00  0.00    +0.000 A 
ATOM     34  C   UNL     1       1.245   3.947  19.128  0.00  0.00    +0.000 A 
ENDBRANCH  21  29
ENDBRANCH   4  21
TORSDOF 10
ENDMDL
MODEL 3
REMARK VINA RESULT:      -7.7      0.285      1.338
REMARK  Name = 
REMARK  10 active torsions:
REMARK  status: ('A' for Active; 'I' for Inactive)
REMARK    1  A    between atoms: C_2  and  O_3
REMARK    2  A    between atoms: C_2  and  C_4
REMARK    3  A    between atoms: C_4  and  O_5
REMARK    4  A    between atoms: C_4  and  C_28
REMARK    5  A    between atoms: O_5  and  C_6
REMARK    6  A    between atoms: C_6  and  C_7
REMARK    7  A    between atoms: C_7  and  N_8
REMARK    8  A    between atoms: N_11  and  C_12
REMARK    9  A    between atoms: C_12  and  C_13
REMARK   10  A    between atoms: C_12  and  C_19
REMARK                            x       y       z     vdW  Elec       q    Type
REMARK                         _______ _______ _______ _____ _____    ______ ____
ROOT
ATOM      1  N   UNL     1       5.397   4.480  16.673  0.00  0.00    +0.000 NA
ATOM      2  C   UNL     1       4.737   3.841  17.827  0.00  0.00    +0.000 C 
ATOM      3  C   UNL     1       4.843   4.646  19.142  0.00  0.00    +0.000 C 
ATOM      4  N   UNL     1       4.296   6.027  19.054  0.00  0.00    +0.000 NA
ATOM      5  C   UNL     1       4.941   6.679  17.890  0.00  0.00    +0.000 C 
ATOM      6  C   UNL     1       4.906   5.877  16.565  0.00  0.00    +0.000 C 
ENDROOT
BRANCH   1   7
ATOM      7  C   UNL     1       6.875   4.473  16.764  0.00  0.00    +0.000 C 
BRANCH   7   8
ATOM      8  C   UNL     1       7.639   4.908  15.500  0.00  0.00    +0.000 C 
BRANCH   8   9
ATOM      9  O   UNL     1       6.772   4.880  14.357  0.00  0.00    +0.000 OA
BRANCH   9  10
ATOM     10  C   UNL     1       7.420   4.429  13.143  0.00  0.00    +0.000 C 
BRANCH  10  11
ATOM     11  C   UNL     1       6.478   3.584  12.300  0.00  0.00    +0.000 A 
ATOM     12  C   UNL     1       5.114   3.854  12.149  0.00  0.00    +0.000 A 
ATOM     13  C   UNL     1       4.288   2.976  11.442  0.00  0.00    +0.000 A 
ATOM     14  C   UNL     1       4.810   1.816  10.876  0.00  0.00    +0.000 A 
ATOM     15  C   UNL     1       6.165   1.535  11.007  0.00  0.00    +0.000 A 
ATOM     16  C   UNL     1       6.993   2.412  11.707  0.00  0.00    +0.000 A 
ENDBRANCH  10  11
BRANCH  10  18
ATOM     17  O   UNL     1       9.097   6.248  12.975  0.00  0.00    +0.000 OA
ATOM     18  C   UNL     1       8.176   5.606  12.496  0.00  0.00    +0.000 C 
BRANCH  18  19
ATOM     19  O   UNL     1       7.641   5.922  11.279  0.00  0.00    +0.000 OA
ATOM     20  H   UNL     1       6.841   5.367  11.125  0.00  0.00    +0.000 HD
ENDBRANCH  18  19
ENDBRANCH  10  18
ENDBRANCH   9  10
ENDBRANCH   8   9
ENDBRANCH   7   8
ENDBRANCH   1   7
BRANCH   4  21
ATOM     21  C   UNL     1       2.800   6.011  18.990  0.00  0.00    +0.000 C 
BRANCH  21  22
ATOM     22  C   UNL     1       2.101   7.286  19.482  0.00  0.00    +0.000 A 
ATOM     23  C   UNL     1       1.844   8.322  18.562  0.00  0.00    +0.000 A 
ATOM     24  C   UNL     1       1.169   9.480  18.955  0.00  0.00    +0.000 A 
ATOM     25  C   UNL     1       0.746   9.618  20.274  0.00  0.00    +0.000 A 
ATOM     26 CL   UNL     1      -0.094  11.040  20.756  0.00  0.00    +0.000 Cl
ATOM     27  C   UNL     1       0.987   8.608  21.200  0.00  0.00    +0.000 A 
ATOM     28  C   UNL     1       1.647   7.442  20.803  0.00  0.00    +0.000 A 
ENDBRANCH  21  22
BRANCH  21  29
ATOM     29  C   UNL     1       2.238   4.793  19.741  0.00  0.00    +0.000 A 
ATOM     30  C   UNL     1       1.266   3.965  19.148  0.00  0.00    +0.000 A 
ATOM     31  C   UNL     1       0.685   2.920  19.867  0.00  0.00    +0.000 A 
ATOM     32  C   UNL     1       1.065   2.686  21.185  0.00  0.00    +0.000 A 
ATOM     33  C   UNL     1       2.035   3.486  21.785  0.00  0.00    +0.000 A 
ATOM     34  C   UNL     1       2.626   4.532  21.066  0.00  0.00    +0.000 A 
ENDBRANCH  21  29
ENDBRANCH   4  21
TORSDOF 10
ENDMDL
MODEL 4
REMARK VINA RESULT:      -7.6      0.570      1.011
REMARK  Name = 
REMARK  10 active torsions:
REMARK  status: ('A' for Active; 'I' for Inactive)
REMARK    1  A    between atoms: C_2  and  O_3
REMARK    2  A    between atoms: C_2  and  C_4
REMARK    3  A    between atoms: C_4  and  O_5
REMARK    4  A    between atoms: C_4  and  C_28
REMARK    5  A    between atoms: O_5  and  C_6
REMARK    6  A    between atoms: C_6  and  C_7
REMARK    7  A    between atoms: C_7  and  N_8
REMARK    8  A    between atoms: N_11  and  C_12
REMARK    9  A    between atoms: C_12  and  C_13
REMARK   10  A    between atoms: C_12  and  C_19
REMARK                            x       y       z     vdW  Elec       q    Type
REMARK                         _______ _______ _______ _____ _____    ______ ____
ROOT
ATOM      1  N   UNL     1       5.533   4.938  16.163  0.00  0.00    +0.000 NA
ATOM      2  C   UNL     1       4.796   4.075  17.106  0.00  0.00    +0.000 C 
ATOM      3  C   UNL     1       4.836   4.561  18.573  0.00  0.00    +0.000 C 
ATOM      4  N   UNL     1       4.315   5.942  18.767  0.00  0.00    +0.000 NA
ATOM      5  C   UNL     1       5.037   6.820  17.816  0.00  0.00    +0.000 C 
ATOM      6  C   UNL     1       5.069   6.336  16.346  0.00  0.00    +0.000 C 
ENDROOT
BRANCH   1   7
ATOM      7  C   UNL     1       7.002   4.870  16.331  0.00  0.00    +0.000 C 
BRANCH   7   8
ATOM      8  C   UNL     1       7.838   4.866  15.037  0.00  0.00    +0.000 C 
BRANCH   8   9
ATOM      9  O   UNL     1       6.997   5.101  13.898  0.00  0.00    +0.000 OA
BRANCH   9  10
ATOM     10  C   UNL     1       7.569   4.648  12.647  0.00  0.00    +0.000 C 
BRANCH  10  11
ATOM     11  C   UNL     1       6.715   3.561  12.015  0.00  0.00    +0.000 A 
ATOM     12  C   UNL     1       5.316   3.565  12.024  0.00  0.00    +0.000 A 
ATOM     13  C   UNL     1       4.596   2.482  11.513  0.00  0.00    +0.000 A 
ATOM     14  C   UNL     1       5.261   1.379  10.985  0.00  0.00    +0.000 A 
ATOM     15  C   UNL     1       6.651   1.360  10.956  0.00  0.00    +0.000 A 
ATOM     16  C   UNL     1       7.372   2.442  11.461  0.00  0.00    +0.000 A 
ENDBRANCH  10  11
BRANCH  10  18
ATOM     17  O   UNL     1       7.671   6.133  10.662  0.00  0.00    +0.000 OA
ATOM     18  C   UNL     1       7.998   5.868  11.808  0.00  0.00    +0.000 C 
BRANCH  18  19
ATOM     19  O   UNL     1       8.886   6.646  12.495  0.00  0.00    +0.000 OA
ATOM     20  H   UNL     1       9.358   7.234  11.859  0.00  0.00    +0.000 HD
ENDBRANCH  18  19
ENDBRANCH  10  18
ENDBRANCH   9  10
ENDBRANCH   8   9
ENDBRANCH   7   8
ENDBRANCH   1   7
BRANCH   4  21
ATOM     21  C   UNL     1       2.826   5.981  18.620  0.00  0.00    +0.000 C 
BRANCH  21  22
ATOM     22  C   UNL     1       2.162   7.329  18.939  0.00  0.00    +0.000 A 
ATOM     23  C   UNL     1       1.883   8.218  17.883  0.00  0.00    +0.000 A 
ATOM     24  C   UNL     1       1.240   9.435  18.120  0.00  0.00    +0.000 A 
ATOM     25  C   UNL     1       0.869   9.778  19.417  0.00  0.00    +0.000 A 
ATOM     26 CL   UNL     1       0.067  11.272  19.708  0.00  0.00    +0.000 Cl
ATOM     27  C   UNL     1       1.132   8.915  20.476  0.00  0.00    +0.000 A 
ATOM     28  C   UNL     1       1.761   7.690  20.236  0.00  0.00    +0.000 A 
ENDBRANCH  21  22
BRANCH  21  29
ATOM     29  C   UNL     1       2.168   4.872  19.459  0.00  0.00    +0.000 A 
ATOM     30  C   UNL     1       2.462   4.733  20.828  0.00  0.00    +0.000 A 
ATOM     31  C   UNL     1       1.942   3.669  21.564  0.00  0.00    +0.000 A 
ATOM     32  C   UNL     1       1.122   2.730  20.946  0.00  0.00    +0.000 A 
ATOM     33  C   UNL     1       0.808   2.859  19.595  0.00  0.00    +0.000 A 
ATOM     34  C   UNL     1       1.322   3.928  18.853  0.00  0.00    +0.000 A 
ENDBRANCH  21  29
ENDBRANCH   4  21
TORSDOF 10
ENDMDL
MODEL 5
REMARK VINA RESULT:      -7.5      4.789      8.977
REMARK  Name = 
REMARK  10 active torsions:
REMARK  status: ('A' for Active; 'I' for Inactive)
REMARK    1  A    between atoms: C_2  and  O_3
REMARK    2  A    between atoms: C_2  and  C_4
REMARK    3  A    between atoms: C_4  and  O_5
REMARK    4  A    between atoms: C_4  and  C_28
REMARK    5  A    between atoms: O_5  and  C_6
REMARK    6  A    between atoms: C_6  and  C_7
REMARK    7  A    between atoms: C_7  and  N_8
REMARK    8  A    between atoms: N_11  and  C_12
REMARK    9  A    between atoms: C_12  and  C_13
REMARK   10  A    between atoms: C_12  and  C_19
REMARK                            x       y       z     vdW  Elec       q    Type
REMARK                         _______ _______ _______ _____ _____    ______ ____
ROOT
ATOM      1  N   UNL     1       0.935  10.093  19.636  0.00  0.00    +0.000 NA
ATOM      2  C   UNL     1       1.472  11.467  19.607  0.00  0.00    +0.000 C 
ATOM      3  C   UNL     1       0.593  12.474  18.832  0.00  0.00    +0.000 C 
ATOM      4  N   UNL     1      -0.803  12.577  19.340  0.00  0.00    +0.000 NA
ATOM      5  C   UNL     1      -1.352  11.201  19.388  0.00  0.00    +0.000 C 
ATOM      6  C   UNL     1      -0.472  10.150  20.107  0.00  0.00    +0.000 C 
ENDROOT
BRANCH   1   7
ATOM      7  C   UNL     1       0.999   9.410  18.325  0.00  0.00    +0.000 C 
BRANCH   7   8
ATOM      8  C   UNL     1       2.368   8.831  17.923  0.00  0.00    +0.000 C 
BRANCH   8   9
ATOM      9  O   UNL     1       2.239   7.449  17.560  0.00  0.00    +0.000 OA
BRANCH   9  10
ATOM     10  C   UNL     1       3.062   6.557  18.352  0.00  0.00    +0.000 C 
BRANCH  10  11
ATOM     11  C   UNL     1       2.253   5.379  18.870  0.00  0.00    +0.000 A 
ATOM     12  C   UNL     1       1.904   5.204  20.213  0.00  0.00    +0.000 A 
ATOM     13  C   UNL     1       1.247   4.045  20.634  0.00  0.00    +0.000 A 
ATOM     14  C   UNL     1       0.928   3.044  19.722  0.00  0.00    +0.000 A 
ATOM     15  C   UNL     1       1.257   3.202  18.380  0.00  0.00    +0.000 A 
ATOM     16  C   UNL     1       1.908   4.361  17.956  0.00  0.00    +0.000 A 
ENDBRANCH  10  11
BRANCH  10  18
ATOM     17  O   UNL     1       4.643   6.498  16.441  0.00  0.00    +0.000 OA
ATOM     18  C   UNL     1       4.396   6.307  17.622  0.00  0.00    +0.000 C 
BRANCH  18  19
ATOM     19  O   UNL     1       5.321   5.759  18.466  0.00  0.00    +0.000 OA
ATOM     20  H   UNL     1       4.853   5.244  19.164  0.00  0.00    +0.000 HD
ENDBRANCH  18  19
ENDBRANCH  10  18
ENDBRANCH   9  10
ENDBRANCH   8   9
ENDBRANCH   7   8
ENDBRANCH   1   7
BRANCH   4  21
ATOM     21  C   UNL     1      -0.846  13.294  20.654  0.00  0.00    +0.000 C 
BRANCH  21  22
ATOM     22  C   UNL     1      -2.156  13.154  21.444  0.00  0.00    +0.000 A 
ATOM     23  C   UNL     1      -2.131  12.505  22.694  0.00  0.00    +0.000 A 
ATOM     24  C   UNL     1      -3.288  12.395  23.468  0.00  0.00    +0.000 A 
ATOM     25  C   UNL     1      -4.485  12.930  23.000  0.00  0.00    +0.000 A 
ATOM     26 CL   UNL     1      -5.909  12.804  23.958  0.00  0.00    +0.000 Cl
ATOM     27  C   UNL     1      -4.533  13.578  21.769  0.00  0.00    +0.000 A 
ATOM     28  C   UNL     1      -3.372  13.703  21.003  0.00  0.00    +0.000 A 
ENDBRANCH  21  22
BRANCH  21  29
ATOM     29  C   UNL     1      -0.514  14.785  20.469  0.00  0.00    +0.000 A 
ATOM     30  C   UNL     1      -0.666  15.408  19.217  0.00  0.00    +0.000 A 
ATOM     31  C   UNL     1      -0.271  16.732  19.027  0.00  0.00    +0.000 A 
ATOM     32  C   UNL     1       0.280  17.453  20.083  0.00  0.00    +0.000 A 
ATOM     33  C   UNL     1       0.425  16.857  21.334  0.00  0.00    +0.000 A 
ATOM     34  C   UNL     1       0.025  15.531  21.531  0.00  0.00    +0.000 A 
ENDBRANCH  21  29
ENDBRANCH   4  21
TORSDOF 10
ENDMDL
MODEL 6
REMARK VINA RESULT:      -7.5      4.603      8.320
REMARK  Name = 
REMARK  10 active torsions:
REMARK  status: ('A' for Active; 'I' for Inactive)
REMARK    1  A    between atoms: C_2  and  O_3
REMARK    2  A    between atoms: C_2  and  C_4
REMARK    3  A    between atoms: C_4  and  O_5
REMARK    4  A    between atoms: C_4  and  C_28
REMARK    5  A    between atoms: O_5  and  C_6
REMARK    6  A    between atoms: C_6  and  C_7
REMARK    7  A    between atoms: C_7  and  N_8
REMARK    8  A    between atoms: N_11  and  C_12
REMARK    9  A    between atoms: C_12  and  C_13
REMARK   10  A    between atoms: C_12  and  C_19
REMARK                            x       y       z     vdW  Elec       q    Type
REMARK                         _______ _______ _______ _____ _____    ______ ____
ROOT
ATOM      1  N   UNL     1       0.674  10.145  18.573  0.00  0.00    +0.000 NA
ATOM      2  C   UNL     1      -0.627  10.051  19.262  0.00  0.00    +0.000 C 
ATOM      3  C   UNL     1      -0.585  10.453  20.753  0.00  0.00    +0.000 C 
ATOM      4  N   UNL     1      -0.077  11.831  20.995  0.00  0.00    +0.000 NA
ATOM      5  C   UNL     1       1.226  11.946  20.298  0.00  0.00    +0.000 C 
ATOM      6  C   UNL     1       1.237  11.497  18.816  0.00  0.00    +0.000 C 
ENDROOT
BRANCH   1   7
ATOM      7  C   UNL     1       1.643   9.113  19.006  0.00  0.00    +0.000 C 
BRANCH   7   8
ATOM      8  C   UNL     1       2.603   8.581  17.925  0.00  0.00    +0.000 C 
BRANCH   8   9
ATOM      9  O   UNL     1       2.330   7.200  17.651  0.00  0.00    +0.000 OA
BRANCH   9  10
ATOM     10  C   UNL     1       3.197   6.281  18.359  0.00  0.00    +0.000 C 
BRANCH  10  11
ATOM     11  C   UNL     1       2.439   5.039  18.797  0.00  0.00    +0.000 A 
ATOM     12  C   UNL     1       2.241   3.919  17.982  0.00  0.00    +0.000 A 
ATOM     13  C   UNL     1       1.446   2.853  18.415  0.00  0.00    +0.000 A 
ATOM     14  C   UNL     1       0.837   2.890  19.666  0.00  0.00    +0.000 A 
ATOM     15  C   UNL     1       1.029   3.989  20.495  0.00  0.00    +0.000 A 
ATOM     16  C   UNL     1       1.827   5.051  20.068  0.00  0.00    +0.000 A 
ENDBRANCH  10  11
BRANCH  10  18
ATOM     17  O   UNL     1       4.700   6.214  16.386  0.00  0.00    +0.000 OA
ATOM     18  C   UNL     1       4.526   6.134  17.593  0.00  0.00    +0.000 C 
BRANCH  18  19
ATOM     19  O   UNL     1       5.551   5.828  18.443  0.00  0.00    +0.000 OA
ATOM     20  H   UNL     1       6.020   6.658  18.694  0.00  0.00    +0.000 HD
ENDBRANCH  18  19
ENDBRANCH  10  18
ENDBRANCH   9  10
ENDBRANCH   8   9
ENDBRANCH   7   8
ENDBRANCH   1   7
BRANCH   4  21
ATOM     21  C   UNL     1      -1.084  12.857  20.575  0.00  0.00    +0.000 C 
BRANCH  21  22
ATOM     22  C   UNL     1      -0.562  14.299  20.479  0.00  0.00    +0.000 A 
ATOM     23  C   UNL     1      -0.145  14.953  21.656  0.00  0.00    +0.000 A 
ATOM     24  C   UNL     1       0.379  16.246  21.611  0.00  0.00    +0.000 A 
ATOM     25  C   UNL     1       0.490  16.904  20.388  0.00  0.00    +0.000 A 
ATOM     26 CL   UNL     1       1.145  18.493  20.332  0.00  0.00    +0.000 Cl
ATOM     27  C   UNL     1       0.087  16.277  19.213  0.00  0.00    +0.000 A 
ATOM     28  C   UNL     1      -0.422  14.977  19.257  0.00  0.00    +0.000 A 
ENDBRANCH  21  22
BRANCH  21  29
ATOM     29  C   UNL     1      -2.316  12.816  21.494  0.00  0.00    +0.000 A 
ATOM     30  C   UNL     1      -3.572  13.255  21.035  0.00  0.00    +0.000 A 
ATOM     31  C   UNL     1      -4.667  13.310  21.898  0.00  0.00    +0.000 A 
ATOM     32  C   UNL     1      -4.524  12.929  23.229  0.00  0.00    +0.000 A 
ATOM     33  C   UNL     1      -3.292  12.479  23.698  0.00  0.00    +0.000 A 
ATOM     34  C   UNL     1      -2.192  12.415  22.835  0.00  0.00    +0.000 A 
ENDBRANCH  21  29
ENDBRANCH   4  21
TORSDOF 10
ENDMDL
MODEL 7
REMARK VINA RESULT:      -7.4      4.712      8.205
REMARK  Name = 
REMARK  10 active torsions:
REMARK  status: ('A' for Active; 'I' for Inactive)
REMARK    1  A    between atoms: C_2  and  O_3
REMARK    2  A    between atoms: C_2  and  C_4
REMARK    3  A    between atoms: C_4  and  O_5
REMARK    4  A    between atoms: C_4  and  C_28
REMARK    5  A    between atoms: O_5  and  C_6
REMARK    6  A    between atoms: C_6  and  C_7
REMARK    7  A    between atoms: C_7  and  N_8
REMARK    8  A    between atoms: N_11  and  C_12
REMARK    9  A    between atoms: C_12  and  C_13
REMARK   10  A    between atoms: C_12  and  C_19
REMARK                            x       y       z     vdW  Elec       q    Type
REMARK                         _______ _______ _______ _____ _____    ______ ____
ROOT
ATOM      1  N   UNL     1       0.811   9.986  18.554  0.00  0.00    +0.000 NA
ATOM      2  C   UNL     1      -0.506   9.891  19.211  0.00  0.00    +0.000 C 
ATOM      3  C   UNL     1      -0.510  10.339  20.690  0.00  0.00    +0.000 C 
ATOM      4  N   UNL     1      -0.032  11.733  20.901  0.00  0.00    +0.000 NA
ATOM      5  C   UNL     1       1.287  11.849  20.235  0.00  0.00    +0.000 C 
ATOM      6  C   UNL     1       1.345  11.354  18.768  0.00  0.00    +0.000 C 
ENDROOT
BRANCH   1   7
ATOM      7  C   UNL     1       1.785   8.985  19.044  0.00  0.00    +0.000 C 
BRANCH   7   8
ATOM      8  C   UNL     1       2.355   8.014  17.993  0.00  0.00    +0.000 C 
BRANCH   8   9
ATOM      9  O   UNL     1       2.819   6.812  18.622  0.00  0.00    +0.000 OA
BRANCH   9  10
ATOM     10  C   UNL     1       3.554   5.934  17.735  0.00  0.00    +0.000 C 
BRANCH  10  11
ATOM     11  C   UNL     1       5.047   5.998  18.012  0.00  0.00    +0.000 A 
ATOM     12  C   UNL     1       5.667   5.363  19.094  0.00  0.00    +0.000 A 
ATOM     13  C   UNL     1       7.029   5.548  19.345  0.00  0.00    +0.000 A 
ATOM     14  C   UNL     1       7.792   6.371  18.522  0.00  0.00    +0.000 A 
ATOM     15  C   UNL     1       7.198   7.003  17.435  0.00  0.00    +0.000 A 
ATOM     16  C   UNL     1       5.840   6.815  17.179  0.00  0.00    +0.000 A 
ENDBRANCH  10  11
BRANCH  10  18
ATOM     17  O   UNL     1       3.189   3.586  17.022  0.00  0.00    +0.000 OA
ATOM     18  C   UNL     1       2.848   4.566  17.665  0.00  0.00    +0.000 C 
BRANCH  18  19
ATOM     19  O   UNL     1       1.692   4.574  18.395  0.00  0.00    +0.000 OA
ATOM     20  H   UNL     1       1.857   5.030  19.253  0.00  0.00    +0.000 HD
ENDBRANCH  18  19
ENDBRANCH  10  18
ENDBRANCH   9  10
ENDBRANCH   8   9
ENDBRANCH   7   8
ENDBRANCH   1   7
BRANCH   4  21
ATOM     21  C   UNL     1      -1.044  12.728  20.423  0.00  0.00    +0.000 C 
BRANCH  21  22
ATOM     22  C   UNL     1      -0.530  14.164  20.245  0.00  0.00    +0.000 A 
ATOM     23  C   UNL     1      -0.131  14.892  21.383  0.00  0.00    +0.000 A 
ATOM     24  C   UNL     1       0.386  16.183  21.265  0.00  0.00    +0.000 A 
ATOM     25  C   UNL     1       0.506  16.766  20.006  0.00  0.00    +0.000 A 
ATOM     26 CL   UNL     1       1.152  18.353  19.859  0.00  0.00    +0.000 Cl
ATOM     27  C   UNL     1       0.121  16.066  18.867  0.00  0.00    +0.000 A 
ATOM     28  C   UNL     1      -0.380  14.767  18.984  0.00  0.00    +0.000 A 
ENDBRANCH  21  22
BRANCH  21  29
ATOM     29  C   UNL     1      -2.277  12.733  21.342  0.00  0.00    +0.000 A 
ATOM     30  C   UNL     1      -3.512  13.231  20.889  0.00  0.00    +0.000 A 
ATOM     31  C   UNL     1      -4.603  13.327  21.753  0.00  0.00    +0.000 A 
ATOM     32  C   UNL     1      -4.476  12.927  23.081  0.00  0.00    +0.000 A 
ATOM     33  C   UNL     1      -3.265  12.418  23.544  0.00  0.00    +0.000 A 
ATOM     34  C   UNL     1      -2.170  12.314  22.679  0.00  0.00    +0.000 A 
ENDBRANCH  21  29
ENDBRANCH   4  21
TORSDOF 10
ENDMDL
MODEL 8
REMARK VINA RESULT:      -7.4      4.727      8.192
REMARK  Name = 
REMARK  10 active torsions:
REMARK  status: ('A' for Active; 'I' for Inactive)
REMARK    1  A    between atoms: C_2  and  O_3
REMARK    2  A    between atoms: C_2  and  C_4
REMARK    3  A    between atoms: C_4  and  O_5
REMARK    4  A    between atoms: C_4  and  C_28
REMARK    5  A    between atoms: O_5  and  C_6
REMARK    6  A    between atoms: C_6  and  C_7
REMARK    7  A    between atoms: C_7  and  N_8
REMARK    8  A    between atoms: N_11  and  C_12
REMARK    9  A    between atoms: C_12  and  C_13
REMARK   10  A    between atoms: C_12  and  C_19
REMARK                            x       y       z     vdW  Elec       q    Type
REMARK                         _______ _______ _______ _____ _____    ______ ____
ROOT
ATOM      1  N   UNL     1       0.821  10.059  18.482  0.00  0.00    +0.000 NA
ATOM      2  C   UNL     1      -0.505  10.001  19.127  0.00  0.00    +0.000 C 
ATOM      3  C   UNL     1      -0.508  10.443  20.608  0.00  0.00    +0.000 C 
ATOM      4  N   UNL     1       0.010  11.821  20.830  0.00  0.00    +0.000 NA
ATOM      5  C   UNL     1       1.338  11.899  20.176  0.00  0.00    +0.000 C 
ATOM      6  C   UNL     1       1.394  11.410  18.708  0.00  0.00    +0.000 C 
ENDROOT
BRANCH   1   7
ATOM      7  C   UNL     1       1.759   9.027  18.976  0.00  0.00    +0.000 C 
BRANCH   7   8
ATOM      8  C   UNL     1       2.266   8.011  17.936  0.00  0.00    +0.000 C 
BRANCH   8   9
ATOM      9  O   UNL     1       2.576   6.761  18.568  0.00  0.00    +0.000 OA
BRANCH   9  10
ATOM     10  C   UNL     1       3.365   5.868  17.743  0.00  0.00    +0.000 C 
BRANCH  10  11
ATOM     11  C   UNL     1       4.852   6.057  17.997  0.00  0.00    +0.000 A 
ATOM     12  C   UNL     1       5.697   6.797  17.163  0.00  0.00    +0.000 A 
ATOM     13  C   UNL     1       7.073   6.844  17.402  0.00  0.00    +0.000 A 
ATOM     14  C   UNL     1       7.626   6.154  18.476  0.00  0.00    +0.000 A 
ATOM     15  C   UNL     1       6.802   5.421  19.324  0.00  0.00    +0.000 A 
ATOM     16  C   UNL     1       5.428   5.377  19.091  0.00  0.00    +0.000 A 
ENDBRANCH  10  11
BRANCH  10  18
ATOM     17  O   UNL     1       2.980   3.524  17.031  0.00  0.00    +0.000 OA
ATOM     18  C   UNL     1       2.755   4.454  17.789  0.00  0.00    +0.000 C 
BRANCH  18  19
ATOM     19  O   UNL     1       1.833   4.350  18.792  0.00  0.00    +0.000 OA
ATOM     20  H   UNL     1       1.931   3.472  19.230  0.00  0.00    +0.000 HD
ENDBRANCH  18  19
ENDBRANCH  10  18
ENDBRANCH   9  10
ENDBRANCH   8   9
ENDBRANCH   7   8
ENDBRANCH   1   7
BRANCH   4  21
ATOM     21  C   UNL     1      -0.966  12.848  20.348  0.00  0.00    +0.000 C 
BRANCH  21  22
ATOM     22  C   UNL     1      -0.403  14.265  20.163  0.00  0.00    +0.000 A 
ATOM     23  C   UNL     1       0.054  14.970  21.295  0.00  0.00    +0.000 A 
ATOM     24  C   UNL     1       0.616  16.241  21.169  0.00  0.00    +0.000 A 
ATOM     25  C   UNL     1       0.726  16.826  19.910  0.00  0.00    +0.000 A 
ATOM     26 CL   UNL     1       1.429  18.389  19.754  0.00  0.00    +0.000 Cl
ATOM     27  C   UNL     1       0.285  16.149  18.778  0.00  0.00    +0.000 A 
ATOM     28  C   UNL     1      -0.263  14.869  18.902  0.00  0.00    +0.000 A 
ENDBRANCH  21  22
BRANCH  21  29
ATOM     29  C   UNL     1      -2.198  12.901  21.267  0.00  0.00    +0.000 A 
ATOM     30  C   UNL     1      -2.087  12.606  22.639  0.00  0.00    +0.000 A 
ATOM     31  C   UNL     1      -3.220  12.557  23.451  0.00  0.00    +0.000 A 
ATOM     32  C   UNL     1      -4.478  12.802  22.908  0.00  0.00    +0.000 A 
ATOM     33  C   UNL     1      -4.606  13.108  21.555  0.00  0.00    +0.000 A 
ATOM     34  C   UNL     1      -3.472  13.165  20.737  0.00  0.00    +0.000 A 
ENDBRANCH  21  29
ENDBRANCH   4  21
TORSDOF 10
ENDMDL
MODEL 9
REMARK VINA RESULT:      -7.3      4.535      8.361
REMARK  Name = 
REMARK  10 active torsions:
REMARK  status: ('A' for Active; 'I' for Inactive)
REMARK    1  A    between atoms: C_2  and  O_3
REMARK    2  A    between atoms: C_2  and  C_4
REMARK    3  A    between atoms: C_4  and  O_5
REMARK    4  A    between atoms: C_4  and  C_28
REMARK    5  A    between atoms: O_5  and  C_6
REMARK    6  A    between atoms: C_6  and  C_7
REMARK    7  A    between atoms: C_7  and  N_8
REMARK    8  A    between atoms: N_11  and  C_12
REMARK    9  A    between atoms: C_12  and  C_13
REMARK   10  A    between atoms: C_12  and  C_19
REMARK                            x       y       z     vdW  Elec       q    Type
REMARK                         _______ _______ _______ _____ _____    ______ ____
ROOT
ATOM      1  N   UNL     1       0.721  10.031  18.472  0.00  0.00    +0.000 NA
ATOM      2  C   UNL     1      -0.604  10.012  19.121  0.00  0.00    +0.000 C 
ATOM      3  C   UNL     1      -0.585  10.418  20.612  0.00  0.00    +0.000 C 
ATOM      4  N   UNL     1      -0.009  11.767  20.865  0.00  0.00    +0.000 NA
ATOM      5  C   UNL     1       1.318  11.807  20.208  0.00  0.00    +0.000 C 
ATOM      6  C   UNL     1       1.349  11.351  18.728  0.00  0.00    +0.000 C 
ENDROOT
BRANCH   1   7
ATOM      7  C   UNL     1       1.617   8.949  18.938  0.00  0.00    +0.000 C 
BRANCH   7   8
ATOM      8  C   UNL     1       2.564   8.346  17.883  0.00  0.00    +0.000 C 
BRANCH   8   9
ATOM      9  O   UNL     1       2.327   6.937  17.746  0.00  0.00    +0.000 OA
BRANCH   9  10
ATOM     10  C   UNL     1       3.225   6.115  18.530  0.00  0.00    +0.000 C 
BRANCH  10  11
ATOM     11  C   UNL     1       2.485   4.950  19.169  0.00  0.00    +0.000 A 
ATOM     12  C   UNL     1       1.604   4.113  18.476  0.00  0.00    +0.000 A 
ATOM     13  C   UNL     1       0.881   3.125  19.150  0.00  0.00    +0.000 A 
ATOM     14  C   UNL     1       1.026   2.958  20.524  0.00  0.00    +0.000 A 
ATOM     15  C   UNL     1       1.904   3.773  21.229  0.00  0.00    +0.000 A 
ATOM     16  C   UNL     1       2.632   4.756  20.559  0.00  0.00    +0.000 A 
ENDBRANCH  10  11
BRANCH  10  18
ATOM     17  O   UNL     1       5.594   6.410  17.857  0.00  0.00    +0.000 OA
ATOM     18  C   UNL     1       4.514   5.854  17.728  0.00  0.00    +0.000 C 
BRANCH  18  19
ATOM     19  O   UNL     1       4.304   4.919  16.753  0.00  0.00    +0.000 OA
ATOM     20  H   UNL     1       3.654   4.254  17.080  0.00  0.00    +0.000 HD
ENDBRANCH  18  19
ENDBRANCH  10  18
ENDBRANCH   9  10
ENDBRANCH   8   9
ENDBRANCH   7   8
ENDBRANCH   1   7
BRANCH   4  21
ATOM     21  C   UNL     1      -0.944  12.845  20.412  0.00  0.00    +0.000 C 
BRANCH  21  22
ATOM     22  C   UNL     1      -0.393  14.277  20.486  0.00  0.00    +0.000 A 
ATOM     23  C   UNL     1      -0.457  15.093  19.339  0.00  0.00    +0.000 A 
ATOM     24  C   UNL     1      -0.010  16.415  19.373  0.00  0.00    +0.000 A 
ATOM     25  C   UNL     1       0.509  16.938  20.554  0.00  0.00    +0.000 A 
ATOM     26 CL   UNL     1       1.050  18.570  20.599  0.00  0.00    +0.000 Cl
ATOM     27  C   UNL     1       0.581  16.153  21.700  0.00  0.00    +0.000 A 
ATOM     28  C   UNL     1       0.118  14.834  21.670  0.00  0.00    +0.000 A 
ENDBRANCH  21  22
BRANCH  21  29
ATOM     29  C   UNL     1      -2.276  12.767  21.177  0.00  0.00    +0.000 A 
ATOM     30  C   UNL     1      -3.504  12.898  20.503  0.00  0.00    +0.000 A 
ATOM     31  C   UNL     1      -4.706  12.926  21.210  0.00  0.00    +0.000 A 
ATOM     32  C   UNL     1      -4.699  12.822  22.599  0.00  0.00    +0.000 A 
ATOM     33  C   UNL     1      -3.494  12.678  23.282  0.00  0.00    +0.000 A 
ATOM     34  C   UNL     1      -2.286  12.643  22.577  0.00  0.00    +0.000 A 
ENDBRANCH  21  29
ENDBRANCH   4  21
TORSDOF 10
ENDMDL
