MODEL 1
REMARK VINA RESULT:      -7.0      0.000      0.000
REMARK  Name = 
REMARK  10 active torsions:
REMARK  status: ('A' for Active; 'I' for Inactive)
REMARK    1  A    between atoms: C_1  and  C_2
REMARK    2  A    between atoms: C_2  and  C_3
REMARK    3  A    between atoms: C_3  and  C_4
REMARK    4  A    between atoms: C_4  and  C_7
REMARK    5  A    between atoms: N_5  and  O_6
REMARK    6  A    between atoms: C_10  and  O_11
REMARK    7  A    between atoms: O_11  and  C_12
REMARK    8  A    between atoms: C_12  and  C_13
REMARK    9  A    between atoms: C_13  and  C_14
REMARK   10  A    between atoms: C_14  and  C_15
REMARK                            x       y       z     vdW  Elec       q    Type
REMARK                         _______ _______ _______ _____ _____    ______ ____
ROOT
ATOM      1  C   UNL     1       6.005   5.233  16.385  0.00  0.00    +0.000 A 
ATOM      2  C   UNL     1       4.919   6.100  16.380  0.00  0.00    +0.000 A 
ATOM      3  C   UNL     1       4.187   6.311  17.538  0.00  0.00    +0.000 A 
ATOM      4  C   UNL     1       4.505   5.648  18.729  0.00  0.00    +0.000 A 
ATOM      5  C   UNL     1       5.622   4.818  18.758  0.00  0.00    +0.000 A 
ATOM      6  C   UNL     1       6.375   4.615  17.590  0.00  0.00    +0.000 A 
ENDROOT
BRANCH   1   7
ATOM      7  C   UNL     1       6.769   4.962  15.119  0.00  0.00    +0.000 C 
ATOM      8  N   UNL     1       7.739   5.774  14.809  0.00  0.00    +0.000 NA
BRANCH   8   9
ATOM      9  O   UNL     1       8.384   5.412  13.627  0.00  0.00    +0.000 OA
ATOM     10  H   UNL     1       9.058   6.112  13.535  0.00  0.00    +0.000 HD
ENDBRANCH   8   9
BRANCH   7  11
ATOM     11  C   UNL     1       6.381   3.749  14.267  0.00  0.00    +0.000 C 
BRANCH  11  13
ATOM     12  C   UNL     1       5.303   3.246  12.053  0.00  0.00    +0.000 C 
ATOM     13  C   UNL     1       5.179   4.011  13.367  0.00  0.00    +0.000 C 
ENDBRANCH  11  13
ENDBRANCH   7  11
ENDBRANCH   1   7
BRANCH   4  14
ATOM     14  O   UNL     1       3.768   5.753  19.886  0.00  0.00    +0.000 OA
BRANCH  14  15
ATOM     15  C   UNL     1       2.364   5.716  19.637  0.00  0.00    +0.000 C 
BRANCH  15  16
ATOM     16  C   UNL     1       1.610   4.813  20.588  0.00  0.00    +0.000 C 
BRANCH  16  17
ATOM     17  C   UNL     1       1.135   3.607  19.777  0.00  0.00    +0.000 C 
BRANCH  17  18
ATOM     18  C   UNL     1       2.260   2.797  19.269  0.00  0.00    +0.000 A 
ATOM     19  C   UNL     1       3.307   2.250  19.972  0.00  0.00    +0.000 A 
ATOM     20  N   UNL     1       4.059   1.604  19.033  0.00  0.00    +0.000 N 
ATOM     21  C   UNL     1       3.446   1.774  17.826  0.00  0.00    +0.000 A 
ATOM     22  N   UNL     1       2.358   2.491  17.933  0.00  0.00    +0.000 NA
ATOM     23  H   UNL     1       4.914   1.090  19.193  0.00  0.00    +0.000 HD
ENDBRANCH  17  18
ENDBRANCH  16  17
ENDBRANCH  15  16
ENDBRANCH  14  15
ENDBRANCH   4  14
TORSDOF 9
ENDMDL
MODEL 2
REMARK VINA RESULT:      -6.8      1.980      2.801
REMARK  Name = 
REMARK  10 active torsions:
REMARK  status: ('A' for Active; 'I' for Inactive)
REMARK    1  A    between atoms: C_1  and  C_2
REMARK    2  A    between atoms: C_2  and  C_3
REMARK    3  A    between atoms: C_3  and  C_4
REMARK    4  A    between atoms: C_4  and  C_7
REMARK    5  A    between atoms: N_5  and  O_6
REMARK    6  A    between atoms: C_10  and  O_11
REMARK    7  A    between atoms: O_11  and  C_12
REMARK    8  A    between atoms: C_12  and  C_13
REMARK    9  A    between atoms: C_13  and  C_14
REMARK   10  A    between atoms: C_14  and  C_15
REMARK                            x       y       z     vdW  Elec       q    Type
REMARK                         _______ _______ _______ _____ _____    ______ ____
ROOT
ATOM      1  C   UNL     1       5.168   6.122  17.641  0.00  0.00    +0.000 A 
ATOM      2  C   UNL     1       4.130   6.963  17.260  0.00  0.00    +0.000 A 
ATOM      3  C   UNL     1       3.000   7.084  18.055  0.00  0.00    +0.000 A 
ATOM      4  C   UNL     1       2.867   6.356  19.242  0.00  0.00    +0.000 A 
ATOM      5  C   UNL     1       3.923   5.551  19.660  0.00  0.00    +0.000 A 
ATOM      6  C   UNL     1       5.075   5.439  18.864  0.00  0.00    +0.000 A 
ENDROOT
BRANCH   1   7
ATOM      7  C   UNL     1       6.371   5.948  16.756  0.00  0.00    +0.000 C 
ATOM      8  N   UNL     1       6.169   5.784  15.480  0.00  0.00    +0.000 NA
BRANCH   8   9
ATOM      9  O   UNL     1       7.356   5.652  14.761  0.00  0.00    +0.000 OA
ATOM     10  H   UNL     1       7.433   4.684  14.664  0.00  0.00    +0.000 HD
ENDBRANCH   8   9
BRANCH   7  11
ATOM     11  C   UNL     1       7.766   5.982  17.389  0.00  0.00    +0.000 C 
BRANCH  11  13
ATOM     12  C   UNL     1       7.956   8.477  17.628  0.00  0.00    +0.000 C 
ATOM     13  C   UNL     1       7.952   7.140  18.363  0.00  0.00    +0.000 C 
ENDBRANCH  11  13
ENDBRANCH   7  11
ENDBRANCH   1   7
BRANCH   4  14
ATOM     14  O   UNL     1       1.738   6.372  20.030  0.00  0.00    +0.000 OA
BRANCH  14  15
ATOM     15  C   UNL     1       1.661   5.233  20.885  0.00  0.00    +0.000 C 
BRANCH  15  16
ATOM     16  C   UNL     1       0.787   4.128  20.335  0.00  0.00    +0.000 C 
BRANCH  16  17
ATOM     17  C   UNL     1       1.387   2.805  20.810  0.00  0.00    +0.000 C 
BRANCH  17  18
ATOM     18  C   UNL     1       2.512   2.365  19.962  0.00  0.00    +0.000 A 
ATOM     19  C   UNL     1       3.830   2.184  20.314  0.00  0.00    +0.000 A 
ATOM     20  N   UNL     1       4.445   1.774  19.166  0.00  0.00    +0.000 N 
ATOM     21  C   UNL     1       3.495   1.715  18.189  0.00  0.00    +0.000 A 
ATOM     22  N   UNL     1       2.318   2.067  18.635  0.00  0.00    +0.000 NA
ATOM     23  H   UNL     1       5.423   1.551  19.052  0.00  0.00    +0.000 HD
ENDBRANCH  17  18
ENDBRANCH  16  17
ENDBRANCH  15  16
ENDBRANCH  14  15
ENDBRANCH   4  14
TORSDOF 9
ENDMDL
MODEL 3
REMARK VINA RESULT:      -6.8      1.064      1.681
REMARK  Name = 
REMARK  10 active torsions:
REMARK  status: ('A' for Active; 'I' for Inactive)
REMARK    1  A    between atoms: C_1  and  C_2
REMARK    2  A    between atoms: C_2  and  C_3
REMARK    3  A    between atoms: C_3  and  C_4
REMARK    4  A    between atoms: C_4  and  C_7
REMARK    5  A    between atoms: N_5  and  O_6
REMARK    6  A    between atoms: C_10  and  O_11
REMARK    7  A    between atoms: O_11  and  C_12
REMARK    8  A    between atoms: C_12  and  C_13
REMARK    9  A    between atoms: C_13  and  C_14
REMARK   10  A    between atoms: C_14  and  C_15
REMARK                            x       y       z     vdW  Elec       q    Type
REMARK                         _______ _______ _______ _____ _____    ______ ____
ROOT
ATOM      1  C   UNL     1       5.066   5.662  17.240  0.00  0.00    +0.000 A 
ATOM      2  C   UNL     1       5.402   5.042  18.437  0.00  0.00    +0.000 A 
ATOM      3  C   UNL     1       4.550   5.117  19.528  0.00  0.00    +0.000 A 
ATOM      4  C   UNL     1       3.347   5.828  19.461  0.00  0.00    +0.000 A 
ATOM      5  C   UNL     1       2.975   6.409  18.251  0.00  0.00    +0.000 A 
ATOM      6  C   UNL     1       3.830   6.321  17.140  0.00  0.00    +0.000 A 
ENDROOT
BRANCH   1   7
ATOM      7  C   UNL     1       6.012   5.627  16.072  0.00  0.00    +0.000 C 
ATOM      8  N   UNL     1       7.259   5.934  16.289  0.00  0.00    +0.000 NA
BRANCH   8   9
ATOM      9  O   UNL     1       8.041   5.849  15.138  0.00  0.00    +0.000 OA
ATOM     10  H   UNL     1       8.940   5.757  15.505  0.00  0.00    +0.000 HD
ENDBRANCH   8   9
BRANCH   7  11
ATOM     11  C   UNL     1       5.472   5.223  14.696  0.00  0.00    +0.000 C 
BRANCH  11  13
ATOM     12  C   UNL     1       6.103   3.589  12.893  0.00  0.00    +0.000 C 
ATOM     13  C   UNL     1       5.725   3.758  14.361  0.00  0.00    +0.000 C 
ENDBRANCH  11  13
ENDBRANCH   7  11
ENDBRANCH   1   7
BRANCH   4  14
ATOM     14  O   UNL     1       2.500   6.008  20.531  0.00  0.00    +0.000 OA
BRANCH  14  15
ATOM     15  C   UNL     1       2.069   4.768  21.091  0.00  0.00    +0.000 C 
BRANCH  15  16
ATOM     16  C   UNL     1       0.903   4.150  20.353  0.00  0.00    +0.000 C 
BRANCH  16  17
ATOM     17  C   UNL     1       1.229   2.669  20.162  0.00  0.00    +0.000 C 
BRANCH  17  18
ATOM     18  C   UNL     1       2.165   2.442  19.043  0.00  0.00    +0.000 A 
ATOM     19  C   UNL     1       3.349   1.743  19.045  0.00  0.00    +0.000 A 
ATOM     20  N   UNL     1       3.816   1.841  17.766  0.00  0.00    +0.000 N 
ATOM     21  C   UNL     1       2.912   2.572  17.053  0.00  0.00    +0.000 A 
ATOM     22  N   UNL     1       1.903   2.953  17.794  0.00  0.00    +0.000 NA
ATOM     23  H   UNL     1       4.672   1.446  17.403  0.00  0.00    +0.000 HD
ENDBRANCH  17  18
ENDBRANCH  16  17
ENDBRANCH  15  16
ENDBRANCH  14  15
ENDBRANCH   4  14
TORSDOF 9
ENDMDL
MODEL 4
REMARK VINA RESULT:      -6.7      2.023      3.015
REMARK  Name = 
REMARK  10 active torsions:
REMARK  status: ('A' for Active; 'I' for Inactive)
REMARK    1  A    between atoms: C_1  and  C_2
REMARK    2  A    between atoms: C_2  and  C_3
REMARK    3  A    between atoms: C_3  and  C_4
REMARK    4  A    between atoms: C_4  and  C_7
REMARK    5  A    between atoms: N_5  and  O_6
REMARK    6  A    between atoms: C_10  and  O_11
REMARK    7  A    between atoms: O_11  and  C_12
REMARK    8  A    between atoms: C_12  and  C_13
REMARK    9  A    between atoms: C_13  and  C_14
REMARK   10  A    between atoms: C_14  and  C_15
REMARK                            x       y       z     vdW  Elec       q    Type
REMARK                         _______ _______ _______ _____ _____    ______ ____
ROOT
ATOM      1  C   UNL     1       5.111   5.709  17.908  0.00  0.00    +0.000 A 
ATOM      2  C   UNL     1       5.136   5.000  19.103  0.00  0.00    +0.000 A 
ATOM      3  C   UNL     1       4.048   5.037  19.962  0.00  0.00    +0.000 A 
ATOM      4  C   UNL     1       2.913   5.797  19.662  0.00  0.00    +0.000 A 
ATOM      5  C   UNL     1       2.856   6.470  18.445  0.00  0.00    +0.000 A 
ATOM      6  C   UNL     1       3.950   6.421  17.566  0.00  0.00    +0.000 A 
ENDROOT
BRANCH   1   7
ATOM      7  C   UNL     1       6.308   5.713  17.000  0.00  0.00    +0.000 C 
ATOM      8  N   UNL     1       6.097   5.700  15.714  0.00  0.00    +0.000 NA
BRANCH   8   9
ATOM      9  O   UNL     1       7.279   5.724  14.975  0.00  0.00    +0.000 OA
ATOM     10  H   UNL     1       7.859   6.280  15.530  0.00  0.00    +0.000 HD
ENDBRANCH   8   9
BRANCH   7  11
ATOM     11  C   UNL     1       7.708   5.745  17.621  0.00  0.00    +0.000 C 
BRANCH  11  13
ATOM     12  C   UNL     1       7.763   8.257  17.576  0.00  0.00    +0.000 C 
ATOM     13  C   UNL     1       7.975   7.010  18.428  0.00  0.00    +0.000 C 
ENDBRANCH  11  13
ENDBRANCH   7  11
ENDBRANCH   1   7
BRANCH   4  14
ATOM     14  O   UNL     1       1.838   5.939  20.510  0.00  0.00    +0.000 OA
BRANCH  14  15
ATOM     15  C   UNL     1       0.800   5.002  20.228  0.00  0.00    +0.000 C 
BRANCH  15  16
ATOM     16  C   UNL     1       1.117   3.599  20.693  0.00  0.00    +0.000 C 
BRANCH  16  17
ATOM     17  C   UNL     1       0.820   2.661  19.522  0.00  0.00    +0.000 C 
BRANCH  17  18
ATOM     18  C   UNL     1       1.999   2.453  18.659  0.00  0.00    +0.000 A 
ATOM     19  C   UNL     1       3.114   1.686  18.903  0.00  0.00    +0.000 A 
ATOM     20  N   UNL     1       3.894   1.840  17.793  0.00  0.00    +0.000 N 
ATOM     21  C   UNL     1       3.231   2.668  16.935  0.00  0.00    +0.000 A 
ATOM     22  N   UNL     1       2.084   3.058  17.428  0.00  0.00    +0.000 NA
ATOM     23  H   UNL     1       4.797   1.420  17.627  0.00  0.00    +0.000 HD
ENDBRANCH  17  18
ENDBRANCH  16  17
ENDBRANCH  15  16
ENDBRANCH  14  15
ENDBRANCH   4  14
TORSDOF 9
ENDMDL
MODEL 5
REMARK VINA RESULT:      -6.6      4.622      7.945
REMARK  Name = 
REMARK  10 active torsions:
REMARK  status: ('A' for Active; 'I' for Inactive)
REMARK    1  A    between atoms: C_1  and  C_2
REMARK    2  A    between atoms: C_2  and  C_3
REMARK    3  A    between atoms: C_3  and  C_4
REMARK    4  A    between atoms: C_4  and  C_7
REMARK    5  A    between atoms: N_5  and  O_6
REMARK    6  A    between atoms: C_10  and  O_11
REMARK    7  A    between atoms: O_11  and  C_12
REMARK    8  A    between atoms: C_12  and  C_13
REMARK    9  A    between atoms: C_13  and  C_14
REMARK   10  A    between atoms: C_14  and  C_15
REMARK                            x       y       z     vdW  Elec       q    Type
REMARK                         _______ _______ _______ _____ _____    ______ ____
ROOT
ATOM      1  C   UNL     1       3.966   5.382  18.537  0.00  0.00    +0.000 A 
ATOM      2  C   UNL     1       3.838   6.311  17.512  0.00  0.00    +0.000 A 
ATOM      3  C   UNL     1       4.963   6.908  16.964  0.00  0.00    +0.000 A 
ATOM      4  C   UNL     1       6.245   6.609  17.435  0.00  0.00    +0.000 A 
ATOM      5  C   UNL     1       6.389   5.642  18.426  0.00  0.00    +0.000 A 
ATOM      6  C   UNL     1       5.252   5.025  18.972  0.00  0.00    +0.000 A 
ENDROOT
BRANCH   1   7
ATOM      7  C   UNL     1       2.747   4.772  19.170  0.00  0.00    +0.000 C 
ATOM      8  N   UNL     1       2.553   4.977  20.441  0.00  0.00    +0.000 NA
BRANCH   8   9
ATOM      9  O   UNL     1       1.384   4.379  20.910  0.00  0.00    +0.000 OA
ATOM     10  H   UNL     1       1.318   4.735  21.816  0.00  0.00    +0.000 HD
ENDBRANCH   8   9
BRANCH   7  11
ATOM     11  C   UNL     1       1.790   3.955  18.295  0.00  0.00    +0.000 C 
BRANCH  11  13
ATOM     12  C   UNL     1       3.099   1.819  18.497  0.00  0.00    +0.000 C 
ATOM     13  C   UNL     1       2.488   2.833  17.535  0.00  0.00    +0.000 C 
ENDBRANCH  11  13
ENDBRANCH   7  11
ENDBRANCH   1   7
BRANCH   4  14
ATOM     14  O   UNL     1       7.391   7.228  16.989  0.00  0.00    +0.000 OA
BRANCH  14  15
ATOM     15  C   UNL     1       8.105   7.868  18.045  0.00  0.00    +0.000 C 
BRANCH  15  16
ATOM     16  C   UNL     1       8.155   9.373  17.909  0.00  0.00    +0.000 C 
BRANCH  16  17
ATOM     17  C   UNL     1       9.102   9.889  18.992  0.00  0.00    +0.000 C 
BRANCH  17  18
ATOM     18  C   UNL     1       9.772  11.144  18.597  0.00  0.00    +0.000 A 
ATOM     19  C   UNL     1      11.032  11.584  18.930  0.00  0.00    +0.000 A 
ATOM     20  N   UNL     1      11.155  12.794  18.311  0.00  0.00    +0.000 N 
ATOM     21  C   UNL     1       9.994  13.030  17.635  0.00  0.00    +0.000 A 
ATOM     22  N   UNL     1       9.137  12.055  17.787  0.00  0.00    +0.000 NA
ATOM     23  H   UNL     1      11.956  13.409  18.340  0.00  0.00    +0.000 HD
ENDBRANCH  17  18
ENDBRANCH  16  17
ENDBRANCH  15  16
ENDBRANCH  14  15
ENDBRANCH   4  14
TORSDOF 9
ENDMDL
MODEL 6
REMARK VINA RESULT:      -6.6      0.903      1.141
REMARK  Name = 
REMARK  10 active torsions:
REMARK  status: ('A' for Active; 'I' for Inactive)
REMARK    1  A    between atoms: C_1  and  C_2
REMARK    2  A    between atoms: C_2  and  C_3
REMARK    3  A    between atoms: C_3  and  C_4
REMARK    4  A    between atoms: C_4  and  C_7
REMARK    5  A    between atoms: N_5  and  O_6
REMARK    6  A    between atoms: C_10  and  O_11
REMARK    7  A    between atoms: O_11  and  C_12
REMARK    8  A    between atoms: C_12  and  C_13
REMARK    9  A    between atoms: C_13  and  C_14
REMARK   10  A    between atoms: C_14  and  C_15
REMARK                            x       y       z     vdW  Elec       q    Type
REMARK                         _______ _______ _______ _____ _____    ______ ____
ROOT
ATOM      1  C   UNL     1       5.577   5.487  16.163  0.00  0.00    +0.000 A 
ATOM      2  C   UNL     1       5.188   6.813  16.301  0.00  0.00    +0.000 A 
ATOM      3  C   UNL     1       4.309   7.183  17.307  0.00  0.00    +0.000 A 
ATOM      4  C   UNL     1       3.779   6.238  18.192  0.00  0.00    +0.000 A 
ATOM      5  C   UNL     1       4.203   4.915  18.096  0.00  0.00    +0.000 A 
ATOM      6  C   UNL     1       5.105   4.541  17.087  0.00  0.00    +0.000 A 
ENDROOT
BRANCH   1   7
ATOM      7  C   UNL     1       6.488   5.073  15.041  0.00  0.00    +0.000 C 
ATOM      8  N   UNL     1       7.469   5.871  14.728  0.00  0.00    +0.000 NA
BRANCH   8   9
ATOM      9  O   UNL     1       8.254   5.374  13.689  0.00  0.00    +0.000 OA
ATOM     10  H   UNL     1       7.618   5.331  12.950  0.00  0.00    +0.000 HD
ENDBRANCH   8   9
BRANCH   7  11
ATOM     11  C   UNL     1       6.231   3.739  14.333  0.00  0.00    +0.000 C 
BRANCH  11  13
ATOM     12  C   UNL     1       5.700   3.124  11.955  0.00  0.00    +0.000 C 
ATOM     13  C   UNL     1       5.212   3.849  13.205  0.00  0.00    +0.000 C 
ENDBRANCH  11  13
ENDBRANCH   7  11
ENDBRANCH   1   7
BRANCH   4  14
ATOM     14  O   UNL     1       2.842   6.530  19.157  0.00  0.00    +0.000 OA
BRANCH  14  15
ATOM     15  C   UNL     1       1.946   5.444  19.385  0.00  0.00    +0.000 C 
BRANCH  15  16
ATOM     16  C   UNL     1       1.882   5.014  20.833  0.00  0.00    +0.000 C 
BRANCH  16  17
ATOM     17  C   UNL     1       1.313   3.595  20.854  0.00  0.00    +0.000 C 
BRANCH  17  18
ATOM     18  C   UNL     1       1.899   2.742  19.802  0.00  0.00    +0.000 A 
ATOM     19  C   UNL     1       1.318   2.297  18.638  0.00  0.00    +0.000 A 
ATOM     20  N   UNL     1       2.283   1.547  18.029  0.00  0.00    +0.000 N 
ATOM     21  C   UNL     1       3.390   1.575  18.827  0.00  0.00    +0.000 A 
ATOM     22  N   UNL     1       3.192   2.286  19.906  0.00  0.00    +0.000 NA
ATOM     23  H   UNL     1       2.203   1.059  17.149  0.00  0.00    +0.000 HD
ENDBRANCH  17  18
ENDBRANCH  16  17
ENDBRANCH  15  16
ENDBRANCH  14  15
ENDBRANCH   4  14
TORSDOF 9
ENDMDL
MODEL 7
REMARK VINA RESULT:      -6.5      1.714      2.391
REMARK  Name = 
REMARK  10 active torsions:
REMARK  status: ('A' for Active; 'I' for Inactive)
REMARK    1  A    between atoms: C_1  and  C_2
REMARK    2  A    between atoms: C_2  and  C_3
REMARK    3  A    between atoms: C_3  and  C_4
REMARK    4  A    between atoms: C_4  and  C_7
REMARK    5  A    between atoms: N_5  and  O_6
REMARK    6  A    between atoms: C_10  and  O_11
REMARK    7  A    between atoms: O_11  and  C_12
REMARK    8  A    between atoms: C_12  and  C_13
REMARK    9  A    between atoms: C_13  and  C_14
REMARK   10  A    between atoms: C_14  and  C_15
REMARK                            x       y       z     vdW  Elec       q    Type
REMARK                         _______ _______ _______ _____ _____    ______ ____
ROOT
ATOM      1  C   UNL     1       6.226   4.439  15.402  0.00  0.00    +0.000 A 
ATOM      2  C   UNL     1       7.041   4.568  16.520  0.00  0.00    +0.000 A 
ATOM      3  C   UNL     1       6.496   4.505  17.793  0.00  0.00    +0.000 A 
ATOM      4  C   UNL     1       5.121   4.328  17.987  0.00  0.00    +0.000 A 
ATOM      5  C   UNL     1       4.304   4.145  16.874  0.00  0.00    +0.000 A 
ATOM      6  C   UNL     1       4.856   4.194  15.584  0.00  0.00    +0.000 A 
ENDROOT
BRANCH   1   7
ATOM      7  C   UNL     1       6.806   4.560  14.020  0.00  0.00    +0.000 C 
ATOM      8  N   UNL     1       7.664   5.515  13.801  0.00  0.00    +0.000 NA
BRANCH   8   9
ATOM      9  O   UNL     1       8.144   5.516  12.492  0.00  0.00    +0.000 OA
ATOM     10  H   UNL     1       9.101   5.373  12.622  0.00  0.00    +0.000 HD
ENDBRANCH   8   9
BRANCH   7  11
ATOM     11  C   UNL     1       6.373   3.556  12.946  0.00  0.00    +0.000 C 
BRANCH  11  13
ATOM     12  C   UNL     1       4.600   2.822  11.322  0.00  0.00    +0.000 C 
ATOM     13  C   UNL     1       5.019   3.889  12.329  0.00  0.00    +0.000 C 
ENDBRANCH  11  13
ENDBRANCH   7  11
ENDBRANCH   1   7
BRANCH   4  14
ATOM     14  O   UNL     1       4.512   4.339  19.220  0.00  0.00    +0.000 OA
BRANCH  14  15
ATOM     15  C   UNL     1       4.230   5.662  19.672  0.00  0.00    +0.000 C 
BRANCH  15  16
ATOM     16  C   UNL     1       2.811   6.102  19.390  0.00  0.00    +0.000 C 
BRANCH  16  17
ATOM     17  C   UNL     1       2.000   5.838  20.659  0.00  0.00    +0.000 C 
BRANCH  17  18
ATOM     18  C   UNL     1       1.630   4.416  20.799  0.00  0.00    +0.000 A 
ATOM     19  C   UNL     1       0.818   3.659  19.987  0.00  0.00    +0.000 A 
ATOM     20  N   UNL     1       0.806   2.420  20.561  0.00  0.00    +0.000 N 
ATOM     21  C   UNL     1       1.602   2.472  21.668  0.00  0.00    +0.000 A 
ATOM     22  N   UNL     1       2.114   3.663  21.842  0.00  0.00    +0.000 NA
ATOM     23  H   UNL     1       0.306   1.607  20.233  0.00  0.00    +0.000 HD
ENDBRANCH  17  18
ENDBRANCH  16  17
ENDBRANCH  15  16
ENDBRANCH  14  15
ENDBRANCH   4  14
TORSDOF 9
ENDMDL
MODEL 8
REMARK VINA RESULT:      -6.4      4.670      8.108
REMARK  Name = 
REMARK  10 active torsions:
REMARK  status: ('A' for Active; 'I' for Inactive)
REMARK    1  A    between atoms: C_1  and  C_2
REMARK    2  A    between atoms: C_2  and  C_3
REMARK    3  A    between atoms: C_3  and  C_4
REMARK    4  A    between atoms: C_4  and  C_7
REMARK    5  A    between atoms: N_5  and  O_6
REMARK    6  A    between atoms: C_10  and  O_11
REMARK    7  A    between atoms: O_11  and  C_12
REMARK    8  A    between atoms: C_12  and  C_13
REMARK    9  A    between atoms: C_13  and  C_14
REMARK   10  A    between atoms: C_14  and  C_15
REMARK                            x       y       z     vdW  Elec       q    Type
REMARK                         _______ _______ _______ _____ _____    ______ ____
ROOT
ATOM      1  C   UNL     1       4.454   5.250  18.937  0.00  0.00    +0.000 A 
ATOM      2  C   UNL     1       4.134   6.087  17.875  0.00  0.00    +0.000 A 
ATOM      3  C   UNL     1       5.132   6.774  17.201  0.00  0.00    +0.000 A 
ATOM      4  C   UNL     1       6.475   6.660  17.579  0.00  0.00    +0.000 A 
ATOM      5  C   UNL     1       6.811   5.784  18.608  0.00  0.00    +0.000 A 
ATOM      6  C   UNL     1       5.803   5.075  19.282  0.00  0.00    +0.000 A 
ENDROOT
BRANCH   1   7
ATOM      7  C   UNL     1       3.370   4.545  19.703  0.00  0.00    +0.000 C 
ATOM      8  N   UNL     1       2.385   5.262  20.163  0.00  0.00    +0.000 NA
BRANCH   8   9
ATOM      9  O   UNL     1       1.434   4.497  20.839  0.00  0.00    +0.000 OA
ATOM     10  H   UNL     1       0.598   4.925  20.574  0.00  0.00    +0.000 HD
ENDBRANCH   8   9
BRANCH   7  11
ATOM     11  C   UNL     1       3.468   3.028  19.896  0.00  0.00    +0.000 C 
BRANCH  11  13
ATOM     12  C   UNL     1       2.381   2.403  17.717  0.00  0.00    +0.000 C 
ATOM     13  C   UNL     1       3.629   2.268  18.584  0.00  0.00    +0.000 C 
ENDBRANCH  11  13
ENDBRANCH   7  11
ENDBRANCH   1   7
BRANCH   4  14
ATOM     14  O   UNL     1       7.498   7.377  17.003  0.00  0.00    +0.000 OA
BRANCH  14  15
ATOM     15  C   UNL     1       8.217   8.154  17.960  0.00  0.00    +0.000 C 
BRANCH  15  16
ATOM     16  C   UNL     1       8.063   9.645  17.758  0.00  0.00    +0.000 C 
BRANCH  16  17
ATOM     17  C   UNL     1       9.093  10.327  18.660  0.00  0.00    +0.000 C 
BRANCH  17  18
ATOM     18  C   UNL     1       9.591  11.591  18.083  0.00  0.00    +0.000 A 
ATOM     19  C   UNL     1       8.923  12.783  17.927  0.00  0.00    +0.000 A 
ATOM     20  N   UNL     1       9.831  13.620  17.347  0.00  0.00    +0.000 N 
ATOM     21  C   UNL     1      10.991  12.921  17.186  0.00  0.00    +0.000 A 
ATOM     22  N   UNL     1      10.880  11.692  17.619  0.00  0.00    +0.000 NA
ATOM     23  H   UNL     1       9.682  14.583  17.083  0.00  0.00    +0.000 HD
ENDBRANCH  17  18
ENDBRANCH  16  17
ENDBRANCH  15  16
ENDBRANCH  14  15
ENDBRANCH   4  14
TORSDOF 9
ENDMDL
MODEL 9
REMARK VINA RESULT:      -6.4      1.960      3.091
REMARK  Name = 
REMARK  10 active torsions:
REMARK  status: ('A' for Active; 'I' for Inactive)
REMARK    1  A    between atoms: C_1  and  C_2
REMARK    2  A    between atoms: C_2  and  C_3
REMARK    3  A    between atoms: C_3  and  C_4
REMARK    4  A    between atoms: C_4  and  C_7
REMARK    5  A    between atoms: N_5  and  O_6
REMARK    6  A    between atoms: C_10  and  O_11
REMARK    7  A    between atoms: O_11  and  C_12
REMARK    8  A    between atoms: C_12  and  C_13
REMARK    9  A    between atoms: C_13  and  C_14
REMARK   10  A    between atoms: C_14  and  C_15
REMARK                            x       y       z     vdW  Elec       q    Type
REMARK                         _______ _______ _______ _____ _____    ______ ____
ROOT
ATOM      1  C   UNL     1       5.067   6.111  17.409  0.00  0.00    +0.000 A 
ATOM      2  C   UNL     1       5.108   5.359  18.577  0.00  0.00    +0.000 A 
ATOM      3  C   UNL     1       4.090   5.462  19.512  0.00  0.00    +0.000 A 
ATOM      4  C   UNL     1       3.012   6.333  19.318  0.00  0.00    +0.000 A 
ATOM      5  C   UNL     1       2.934   7.052  18.129  0.00  0.00    +0.000 A 
ATOM      6  C   UNL     1       3.956   6.937  17.173  0.00  0.00    +0.000 A 
ENDROOT
BRANCH   1   7
ATOM      7  C   UNL     1       6.194   6.041  16.418  0.00  0.00    +0.000 C 
ATOM      8  N   UNL     1       5.923   5.616  15.217  0.00  0.00    +0.000 NA
BRANCH   8   9
ATOM      9  O   UNL     1       7.040   5.611  14.383  0.00  0.00    +0.000 OA
ATOM     10  H   UNL     1       7.535   4.834  14.704  0.00  0.00    +0.000 HD
ENDBRANCH   8   9
BRANCH   7  11
ATOM     11  C   UNL     1       7.595   6.479  16.858  0.00  0.00    +0.000 C 
BRANCH  11  13
ATOM     12  C   UNL     1       8.030   8.800  17.718  0.00  0.00    +0.000 C 
ATOM     13  C   UNL     1       7.579   7.389  18.081  0.00  0.00    +0.000 C 
ENDBRANCH  11  13
ENDBRANCH   7  11
ENDBRANCH   1   7
BRANCH   4  14
ATOM     14  O   UNL     1       2.016   6.540  20.245  0.00  0.00    +0.000 OA
BRANCH  14  15
ATOM     15  C   UNL     1       1.678   5.346  20.949  0.00  0.00    +0.000 C 
BRANCH  15  16
ATOM     16  C   UNL     1       0.895   4.358  20.113  0.00  0.00    +0.000 C 
BRANCH  16  17
ATOM     17  C   UNL     1       1.237   2.962  20.634  0.00  0.00    +0.000 C 
BRANCH  17  18
ATOM     18  C   UNL     1       2.473   2.427  20.029  0.00  0.00    +0.000 A 
ATOM     19  C   UNL     1       2.668   1.963  18.750  0.00  0.00    +0.000 A 
ATOM     20  N   UNL     1       3.980   1.587  18.710  0.00  0.00    +0.000 N 
ATOM     21  C   UNL     1       4.518   1.842  19.938  0.00  0.00    +0.000 A 
ATOM     22  N   UNL     1       3.635   2.349  20.758  0.00  0.00    +0.000 NA
ATOM     23  H   UNL     1       4.472   1.193  17.922  0.00  0.00    +0.000 HD
ENDBRANCH  17  18
ENDBRANCH  16  17
ENDBRANCH  15  16
ENDBRANCH  14  15
ENDBRANCH   4  14
TORSDOF 9
ENDMDL
