MODEL 1
REMARK VINA RESULT:      -8.1      0.000      0.000
REMARK  Name = 
REMARK  14 active torsions:
REMARK  status: ('A' for Active; 'I' for Inactive)
REMARK    1  A    between atoms: C_1  and  C_2
REMARK    2  A    between atoms: C_2  and  C_3
REMARK    3  A    between atoms: C_3  and  C_4
REMARK    4  A    between atoms: C_3  and  C_6
REMARK    5  A    between atoms: C_3  and  C_18
REMARK    6  A    between atoms: C_4  and  C_5
REMARK    7  A    between atoms: C_9  and  O_10
REMARK    8  A    between atoms: O_10  and  S_11
REMARK    9  A    between atoms: S_11  and  N_12
REMARK   10  A    between atoms: C_15  and  C_16
REMARK   11  A    between atoms: C_21  and  O_22
REMARK   12  A    between atoms: O_22  and  S_23
REMARK   13  A    between atoms: S_23  and  N_24
REMARK   14  A    between atoms: C_27  and  C_28
REMARK                            x       y       z     vdW  Elec       q    Type
REMARK                         _______ _______ _______ _____ _____    ______ ____
ROOT
ATOM      1  C   UNL     1       2.386   4.884  19.483  0.00  0.00    +0.000 C 
ENDROOT
BRANCH   1   2
ATOM      2  C   UNL     1       3.662   4.627  18.623  0.00  0.00    +0.000 A 
ATOM      3  C   UNL     1       3.612   3.805  17.488  0.00  0.00    +0.000 A 
ATOM      4  C   UNL     1       4.724   3.656  16.649  0.00  0.00    +0.000 A 
ATOM      5  C   UNL     1       5.922   4.331  16.912  0.00  0.00    +0.000 A 
ATOM      6  C   UNL     1       6.029   5.087  18.081  0.00  0.00    +0.000 A 
ATOM      7  C   UNL     1       7.279   5.805  18.521  0.00  0.00    +0.000 C 
ATOM      8  C   UNL     1       4.900   5.231  18.909  0.00  0.00    +0.000 A 
BRANCH   5   9
ATOM      9  O   UNL     1       7.010   4.290  16.068  0.00  0.00    +0.000 OA
BRANCH   9  10
ATOM     10  S   UNL     1       6.923   4.839  14.534  0.00  0.00    +0.000 S 
ATOM     11  O   UNL     1       8.134   5.561  14.225  0.00  0.00    +0.000 OA
ATOM     12  O   UNL     1       6.403   3.800  13.672  0.00  0.00    +0.000 OA
BRANCH  10  13
ATOM     13  N   UNL     1       5.697   5.981  14.598  0.00  0.00    +0.000 NA
ATOM     14  H   UNL     1       5.000   5.851  13.869  0.00  0.00    +0.000 HD
ATOM     15  H   UNL     1       6.090   6.917  14.679  0.00  0.00    +0.000 HD
ENDBRANCH  10  13
ENDBRANCH   9  10
ENDBRANCH   5   9
ENDBRANCH   1   2
BRANCH   1  16
ATOM     16  C   UNL     1       2.089   6.416  19.528  0.00  0.00    +0.000 A 
ATOM     17  C   UNL     1       2.282   7.224  18.402  0.00  0.00    +0.000 A 
ATOM     18  C   UNL     1       1.966   8.589  18.429  0.00  0.00    +0.000 A 
ATOM     19  C   UNL     1       1.438   9.188  19.578  0.00  0.00    +0.000 A 
ATOM     20  C   UNL     1       1.288   8.415  20.736  0.00  0.00    +0.000 A 
ATOM     21  C   UNL     1       0.802   8.944  22.060  0.00  0.00    +0.000 C 
ATOM     22  C   UNL     1       1.600   7.052  20.686  0.00  0.00    +0.000 A 
BRANCH  19  23
ATOM     23  O   UNL     1       1.042  10.503  19.635  0.00  0.00    +0.000 OA
BRANCH  23  24
ATOM     24  S   UNL     1      -0.437  10.968  19.125  0.00  0.00    +0.000 S 
ATOM     25  O   UNL     1      -0.954   9.967  18.221  0.00  0.00    +0.000 OA
ATOM     26  O   UNL     1      -1.198  11.469  20.243  0.00  0.00    +0.000 OA
BRANCH  24  27
ATOM     27  N   UNL     1      -0.115  12.324  18.191  0.00  0.00    +0.000 NA
ATOM     28  H   UNL     1       0.792  12.275  17.738  0.00  0.00    +0.000 HD
ATOM     29  H   UNL     1      -0.298  13.169  18.729  0.00  0.00    +0.000 HD
ENDBRANCH  24  27
ENDBRANCH  23  24
ENDBRANCH  19  23
ENDBRANCH   1  16
BRANCH   1  31
ATOM     30  C   UNL     1       0.668   2.854  19.483  0.00  0.00    +0.000 C 
ATOM     31  C   UNL     1       1.172   4.129  18.832  0.00  0.00    +0.000 C 
ENDBRANCH   1  31
BRANCH   1  32
ATOM     32  C   UNL     1       2.615   4.381  20.953  0.00  0.00    +0.000 C 
ATOM     33  C   UNL     1       3.147   2.970  21.148  0.00  0.00    +0.000 C 
ENDBRANCH   1  32
TORSDOF 10
ENDMDL
MODEL 2
REMARK VINA RESULT:      -8.0      1.558      2.159
REMARK  Name = 
REMARK  14 active torsions:
REMARK  status: ('A' for Active; 'I' for Inactive)
REMARK    1  A    between atoms: C_1  and  C_2
REMARK    2  A    between atoms: C_2  and  C_3
REMARK    3  A    between atoms: C_3  and  C_4
REMARK    4  A    between atoms: C_3  and  C_6
REMARK    5  A    between atoms: C_3  and  C_18
REMARK    6  A    between atoms: C_4  and  C_5
REMARK    7  A    between atoms: C_9  and  O_10
REMARK    8  A    between atoms: O_10  and  S_11
REMARK    9  A    between atoms: S_11  and  N_12
REMARK   10  A    between atoms: C_15  and  C_16
REMARK   11  A    between atoms: C_21  and  O_22
REMARK   12  A    between atoms: O_22  and  S_23
REMARK   13  A    between atoms: S_23  and  N_24
REMARK   14  A    between atoms: C_27  and  C_28
REMARK                            x       y       z     vdW  Elec       q    Type
REMARK                         _______ _______ _______ _____ _____    ______ ____
ROOT
ATOM      1  C   UNL     1       2.721   4.044  19.106  0.00  0.00    +0.000 C 
ENDROOT
BRANCH   1   2
ATOM      2  C   UNL     1       4.017   4.079  18.238  0.00  0.00    +0.000 A 
ATOM      3  C   UNL     1       4.062   3.451  16.985  0.00  0.00    +0.000 A 
ATOM      4  C   UNL     1       5.182   3.569  16.153  0.00  0.00    +0.000 A 
ATOM      5  C   UNL     1       6.294   4.328  16.542  0.00  0.00    +0.000 A 
ATOM      6  C   UNL     1       6.313   4.893  17.818  0.00  0.00    +0.000 A 
ATOM      7  C   UNL     1       7.470   5.670  18.389  0.00  0.00    +0.000 C 
ATOM      8  C   UNL     1       5.176   4.768  18.639  0.00  0.00    +0.000 A 
BRANCH   5   9
ATOM      9  O   UNL     1       7.377   4.549  15.721  0.00  0.00    +0.000 OA
BRANCH   9  10
ATOM     10  S   UNL     1       7.201   5.159  14.218  0.00  0.00    +0.000 S 
ATOM     11  O   UNL     1       6.027   5.998  14.186  0.00  0.00    +0.000 OA
ATOM     12  O   UNL     1       8.482   5.607  13.719  0.00  0.00    +0.000 OA
BRANCH  10  13
ATOM     13  N   UNL     1       6.840   3.809  13.289  0.00  0.00    +0.000 NA
ATOM     14  H   UNL     1       6.790   2.956  13.839  0.00  0.00    +0.000 HD
ATOM     15  H   UNL     1       7.439   3.777  12.467  0.00  0.00    +0.000 HD
ENDBRANCH  10  13
ENDBRANCH   9  10
ENDBRANCH   5   9
ENDBRANCH   1   2
BRANCH   1  16
ATOM     16  C   UNL     1       2.276   5.504  19.436  0.00  0.00    +0.000 A 
ATOM     17  C   UNL     1       1.711   5.827  20.675  0.00  0.00    +0.000 A 
ATOM     18  C   UNL     1       1.361   7.147  20.988  0.00  0.00    +0.000 A 
ATOM     19  C   UNL     1       1.571   8.187  20.076  0.00  0.00    +0.000 A 
ATOM     20  C   UNL     1       2.082   7.884  18.809  0.00  0.00    +0.000 A 
ATOM     21  C   UNL     1       2.290   8.890  17.707  0.00  0.00    +0.000 C 
ATOM     22  C   UNL     1       2.435   6.561  18.519  0.00  0.00    +0.000 A 
BRANCH  19  23
ATOM     23  O   UNL     1       1.315   9.508  20.360  0.00  0.00    +0.000 OA
BRANCH  23  24
ATOM     24  S   UNL     1       0.691   9.963  21.797  0.00  0.00    +0.000 S 
ATOM     25  O   UNL     1      -0.693   9.551  21.855  0.00  0.00    +0.000 OA
ATOM     26  O   UNL     1       1.632   9.666  22.849  0.00  0.00    +0.000 OA
BRANCH  24  27
ATOM     27  N   UNL     1       0.679  11.638  21.701  0.00  0.00    +0.000 NA
ATOM     28  H   UNL     1      -0.262  12.016  21.668  0.00  0.00    +0.000 HD
ATOM     29  H   UNL     1       1.309  11.949  20.963  0.00  0.00    +0.000 HD
ENDBRANCH  24  27
ENDBRANCH  23  24
ENDBRANCH  19  23
ENDBRANCH   1  16
BRANCH   1  31
ATOM     30  C   UNL     1       0.756   2.256  18.999  0.00  0.00    +0.000 C 
ATOM     31  C   UNL     1       1.586   3.316  18.299  0.00  0.00    +0.000 C 
ENDBRANCH   1  31
BRANCH   1  32
ATOM     32  C   UNL     1       2.996   3.292  20.458  0.00  0.00    +0.000 C 
ATOM     33  C   UNL     1       4.089   2.236  20.475  0.00  0.00    +0.000 C 
ENDBRANCH   1  32
TORSDOF 10
ENDMDL
MODEL 3
REMARK VINA RESULT:      -7.9      0.360      7.521
REMARK  Name = 
REMARK  14 active torsions:
REMARK  status: ('A' for Active; 'I' for Inactive)
REMARK    1  A    between atoms: C_1  and  C_2
REMARK    2  A    between atoms: C_2  and  C_3
REMARK    3  A    between atoms: C_3  and  C_4
REMARK    4  A    between atoms: C_3  and  C_6
REMARK    5  A    between atoms: C_3  and  C_18
REMARK    6  A    between atoms: C_4  and  C_5
REMARK    7  A    between atoms: C_9  and  O_10
REMARK    8  A    between atoms: O_10  and  S_11
REMARK    9  A    between atoms: S_11  and  N_12
REMARK   10  A    between atoms: C_15  and  C_16
REMARK   11  A    between atoms: C_21  and  O_22
REMARK   12  A    between atoms: O_22  and  S_23
REMARK   13  A    between atoms: S_23  and  N_24
REMARK   14  A    between atoms: C_27  and  C_28
REMARK                            x       y       z     vdW  Elec       q    Type
REMARK                         _______ _______ _______ _____ _____    ______ ____
ROOT
ATOM      1  C   UNL     1       2.561   4.889  19.139  0.00  0.00    +0.000 C 
ENDROOT
BRANCH   1   2
ATOM      2  C   UNL     1       2.257   6.415  19.256  0.00  0.00    +0.000 A 
ATOM      3  C   UNL     1       2.396   7.264  18.148  0.00  0.00    +0.000 A 
ATOM      4  C   UNL     1       2.021   8.612  18.214  0.00  0.00    +0.000 A 
ATOM      5  C   UNL     1       1.486   9.156  19.388  0.00  0.00    +0.000 A 
ATOM      6  C   UNL     1       1.417   8.358  20.531  0.00  0.00    +0.000 A 
ATOM      7  C   UNL     1       0.930   8.834  21.875  0.00  0.00    +0.000 C 
ATOM      8  C   UNL     1       1.792   7.004  20.446  0.00  0.00    +0.000 A 
BRANCH   5   9
ATOM      9  O   UNL     1       1.018  10.448  19.473  0.00  0.00    +0.000 OA
BRANCH   9  10
ATOM     10  S   UNL     1      -0.462  10.859  18.924  0.00  0.00    +0.000 S 
ATOM     11  O   UNL     1      -0.864   9.917  17.908  0.00  0.00    +0.000 OA
ATOM     12  O   UNL     1      -1.318  11.204  20.038  0.00  0.00    +0.000 OA
BRANCH  10  13
ATOM     13  N   UNL     1      -0.194  12.316  18.136  0.00  0.00    +0.000 NA
ATOM     14  H   UNL     1      -0.979  12.957  18.218  0.00  0.00    +0.000 HD
ATOM     15  H   UNL     1       0.150  12.149  17.193  0.00  0.00    +0.000 HD
ENDBRANCH  10  13
ENDBRANCH   9  10
ENDBRANCH   5   9
ENDBRANCH   1   2
BRANCH   1  16
ATOM     16  C   UNL     1       3.829   4.678  18.252  0.00  0.00    +0.000 A 
ATOM     17  C   UNL     1       3.809   3.809  17.155  0.00  0.00    +0.000 A 
ATOM     18  C   UNL     1       4.932   3.661  16.331  0.00  0.00    +0.000 A 
ATOM     19  C   UNL     1       6.107   4.382  16.570  0.00  0.00    +0.000 A 
ATOM     20  C   UNL     1       6.173   5.215  17.693  0.00  0.00    +0.000 A 
ATOM     21  C   UNL     1       7.394   5.992  18.111  0.00  0.00    +0.000 C 
ATOM     22  C   UNL     1       5.038   5.358  18.499  0.00  0.00    +0.000 A 
BRANCH  19  23
ATOM     23  O   UNL     1       7.210   4.330  15.750  0.00  0.00    +0.000 OA
BRANCH  23  24
ATOM     24  S   UNL     1       7.154   4.881  14.215  0.00  0.00    +0.000 S 
ATOM     25  O   UNL     1       8.347   5.653  13.954  0.00  0.00    +0.000 OA
ATOM     26  O   UNL     1       6.707   3.827  13.338  0.00  0.00    +0.000 OA
BRANCH  24  27
ATOM     27  N   UNL     1       5.883   5.976  14.243  0.00  0.00    +0.000 NA
ATOM     28  H   UNL     1       4.988   5.524  14.403  0.00  0.00    +0.000 HD
ATOM     29  H   UNL     1       5.933   6.588  13.431  0.00  0.00    +0.000 HD
ENDBRANCH  24  27
ENDBRANCH  23  24
ENDBRANCH  19  23
ENDBRANCH   1  16
BRANCH   1  31
ATOM     30  C   UNL     1       3.524   2.972  20.710  0.00  0.00    +0.000 C 
ATOM     31  C   UNL     1       2.821   4.310  20.577  0.00  0.00    +0.000 C 
ENDBRANCH   1  31
BRANCH   1  32
ATOM     32  C   UNL     1       1.354   4.147  18.462  0.00  0.00    +0.000 C 
ATOM     33  C   UNL     1       0.702   3.006  19.227  0.00  0.00    +0.000 C 
ENDBRANCH   1  32
TORSDOF 10
ENDMDL
MODEL 4
REMARK VINA RESULT:      -7.9      1.130      1.797
REMARK  Name = 
REMARK  14 active torsions:
REMARK  status: ('A' for Active; 'I' for Inactive)
REMARK    1  A    between atoms: C_1  and  C_2
REMARK    2  A    between atoms: C_2  and  C_3
REMARK    3  A    between atoms: C_3  and  C_4
REMARK    4  A    between atoms: C_3  and  C_6
REMARK    5  A    between atoms: C_3  and  C_18
REMARK    6  A    between atoms: C_4  and  C_5
REMARK    7  A    between atoms: C_9  and  O_10
REMARK    8  A    between atoms: O_10  and  S_11
REMARK    9  A    between atoms: S_11  and  N_12
REMARK   10  A    between atoms: C_15  and  C_16
REMARK   11  A    between atoms: C_21  and  O_22
REMARK   12  A    between atoms: O_22  and  S_23
REMARK   13  A    between atoms: S_23  and  N_24
REMARK   14  A    between atoms: C_27  and  C_28
REMARK                            x       y       z     vdW  Elec       q    Type
REMARK                         _______ _______ _______ _____ _____    ______ ____
ROOT
ATOM      1  C   UNL     1       2.429   4.565  19.564  0.00  0.00    +0.000 C 
ENDROOT
BRANCH   1   2
ATOM      2  C   UNL     1       3.714   4.443  18.687  0.00  0.00    +0.000 A 
ATOM      3  C   UNL     1       3.711   3.686  17.506  0.00  0.00    +0.000 A 
ATOM      4  C   UNL     1       4.825   3.660  16.657  0.00  0.00    +0.000 A 
ATOM      5  C   UNL     1       5.977   4.397  16.956  0.00  0.00    +0.000 A 
ATOM      6  C   UNL     1       6.041   5.091  18.165  0.00  0.00    +0.000 A 
ATOM      7  C   UNL     1       7.243   5.864  18.642  0.00  0.00    +0.000 C 
ATOM      8  C   UNL     1       4.911   5.111  19.004  0.00  0.00    +0.000 A 
BRANCH   5   9
ATOM      9  O   UNL     1       7.060   4.477  16.108  0.00  0.00    +0.000 OA
BRANCH   9  10
ATOM     10  S   UNL     1       6.916   5.062  14.591  0.00  0.00    +0.000 S 
ATOM     11  O   UNL     1       5.770   5.935  14.531  0.00  0.00    +0.000 OA
ATOM     12  O   UNL     1       8.216   5.460  14.096  0.00  0.00    +0.000 OA
BRANCH  10  13
ATOM     13  N   UNL     1       6.523   3.705  13.686  0.00  0.00    +0.000 NA
ATOM     14  H   UNL     1       7.312   3.342  13.157  0.00  0.00    +0.000 HD
ATOM     15  H   UNL     1       5.669   3.870  13.157  0.00  0.00    +0.000 HD
ENDBRANCH  10  13
ENDBRANCH   9  10
ENDBRANCH   5   9
ENDBRANCH   1   2
BRANCH   1  16
ATOM     16  C   UNL     1       2.055   6.071  19.732  0.00  0.00    +0.000 A 
ATOM     17  C   UNL     1       1.531   6.558  20.935  0.00  0.00    +0.000 A 
ATOM     18  C   UNL     1       1.244   7.919  21.100  0.00  0.00    +0.000 A 
ATOM     19  C   UNL     1       1.480   8.839  20.072  0.00  0.00    +0.000 A 
ATOM     20  C   UNL     1       1.950   8.371  18.840  0.00  0.00    +0.000 A 
ATOM     21  C   UNL     1       2.177   9.236  17.627  0.00  0.00    +0.000 C 
ATOM     22  C   UNL     1       2.239   7.010  18.697  0.00  0.00    +0.000 A 
BRANCH  19  23
ATOM     23  O   UNL     1       1.286  10.194  20.207  0.00  0.00    +0.000 OA
BRANCH  23  24
ATOM     24  S   UNL     1      -0.201  10.855  20.102  0.00  0.00    +0.000 S 
ATOM     25  O   UNL     1      -0.066  12.254  19.767  0.00  0.00    +0.000 OA
ATOM     26  O   UNL     1      -1.076   9.966  19.377  0.00  0.00    +0.000 OA
BRANCH  24  27
ATOM     27  N   UNL     1      -0.761  10.802  21.683  0.00  0.00    +0.000 NA
ATOM     28  H   UNL     1      -0.017  10.931  22.360  0.00  0.00    +0.000 HD
ATOM     29  H   UNL     1      -1.348   9.980  21.817  0.00  0.00    +0.000 HD
ENDBRANCH  24  27
ENDBRANCH  23  24
ENDBRANCH  19  23
ENDBRANCH   1  16
BRANCH   1  31
ATOM     30  C   UNL     1       0.410   2.837  19.664  0.00  0.00    +0.000 C 
ATOM     31  C   UNL     1       1.252   3.804  18.852  0.00  0.00    +0.000 C 
ENDBRANCH   1  31
BRANCH   1  32
ATOM     32  C   UNL     1       2.688   3.957  20.989  0.00  0.00    +0.000 C 
ATOM     33  C   UNL     1       3.359   2.595  21.070  0.00  0.00    +0.000 C 
ENDBRANCH   1  32
TORSDOF 10
ENDMDL
MODEL 5
REMARK VINA RESULT:      -7.8      0.997      7.532
REMARK  Name = 
REMARK  14 active torsions:
REMARK  status: ('A' for Active; 'I' for Inactive)
REMARK    1  A    between atoms: C_1  and  C_2
REMARK    2  A    between atoms: C_2  and  C_3
REMARK    3  A    between atoms: C_3  and  C_4
REMARK    4  A    between atoms: C_3  and  C_6
REMARK    5  A    between atoms: C_3  and  C_18
REMARK    6  A    between atoms: C_4  and  C_5
REMARK    7  A    between atoms: C_9  and  O_10
REMARK    8  A    between atoms: O_10  and  S_11
REMARK    9  A    between atoms: S_11  and  N_12
REMARK   10  A    between atoms: C_15  and  C_16
REMARK   11  A    between atoms: C_21  and  O_22
REMARK   12  A    between atoms: O_22  and  S_23
REMARK   13  A    between atoms: S_23  and  N_24
REMARK   14  A    between atoms: C_27  and  C_28
REMARK                            x       y       z     vdW  Elec       q    Type
REMARK                         _______ _______ _______ _____ _____    ______ ____
ROOT
ATOM      1  C   UNL     1       2.360   4.433  19.423  0.00  0.00    +0.000 C 
ENDROOT
BRANCH   1   2
ATOM      2  C   UNL     1       1.966   5.926  19.652  0.00  0.00    +0.000 A 
ATOM      3  C   UNL     1       1.453   6.354  20.885  0.00  0.00    +0.000 A 
ATOM      4  C   UNL     1       1.199   7.708  21.136  0.00  0.00    +0.000 A 
ATOM      5  C   UNL     1       1.458   8.683  20.163  0.00  0.00    +0.000 A 
ATOM      6  C   UNL     1       1.887   8.278  18.898  0.00  0.00    +0.000 A 
ATOM      7  C   UNL     1       2.134   9.212  17.742  0.00  0.00    +0.000 C 
ATOM      8  C   UNL     1       2.142   6.913  18.666  0.00  0.00    +0.000 A 
BRANCH   5   9
ATOM      9  O   UNL     1       1.313  10.033  20.395  0.00  0.00    +0.000 OA
BRANCH   9  10
ATOM     10  S   UNL     1      -0.156  10.743  20.422  0.00  0.00    +0.000 S 
ATOM     11  O   UNL     1      -0.990  10.135  19.413  0.00  0.00    +0.000 OA
ATOM     12  O   UNL     1      -0.595  10.904  21.791  0.00  0.00    +0.000 OA
BRANCH  10  13
ATOM     13  N   UNL     1       0.156  12.305  19.896  0.00  0.00    +0.000 NA
ATOM     14  H   UNL     1      -0.559  12.659  19.267  0.00  0.00    +0.000 HD
ATOM     15  H   UNL     1       1.117  12.381  19.568  0.00  0.00    +0.000 HD
ENDBRANCH  10  13
ENDBRANCH   9  10
ENDBRANCH   5   9
ENDBRANCH   1   2
BRANCH   1  16
ATOM     16  C   UNL     1       3.632   4.364  18.520  0.00  0.00    +0.000 A 
ATOM     17  C   UNL     1       3.632   3.638  17.323  0.00  0.00    +0.000 A 
ATOM     18  C   UNL     1       4.758   3.620  16.490  0.00  0.00    +0.000 A 
ATOM     19  C   UNL     1       5.916   4.333  16.821  0.00  0.00    +0.000 A 
ATOM     20  C   UNL     1       5.963   5.020  18.039  0.00  0.00    +0.000 A 
ATOM     21  C   UNL     1       7.166   5.766  18.554  0.00  0.00    +0.000 C 
ATOM     22  C   UNL     1       4.825   5.035  18.853  0.00  0.00    +0.000 A 
BRANCH  19  23
ATOM     23  O   UNL     1       7.019   4.409  16.003  0.00  0.00    +0.000 OA
BRANCH  23  24
ATOM     24  S   UNL     1       6.926   5.053  14.508  0.00  0.00    +0.000 S 
ATOM     25  O   UNL     1       5.784   5.936  14.451  0.00  0.00    +0.000 OA
ATOM     26  O   UNL     1       8.241   5.459  14.073  0.00  0.00    +0.000 OA
BRANCH  24  27
ATOM     27  N   UNL     1       6.550   3.734  13.541  0.00  0.00    +0.000 NA
ATOM     28  H   UNL     1       5.908   3.093  13.996  0.00  0.00    +0.000 HD
ATOM     29  H   UNL     1       7.403   3.321  13.169  0.00  0.00    +0.000 HD
ENDBRANCH  24  27
ENDBRANCH  23  24
ENDBRANCH  19  23
ENDBRANCH   1  16
BRANCH   1  31
ATOM     30  C   UNL     1       3.566   2.548  20.859  0.00  0.00    +0.000 C 
ATOM     31  C   UNL     1       2.663   3.767  20.814  0.00  0.00    +0.000 C 
ENDBRANCH   1  31
BRANCH   1  32
ATOM     32  C   UNL     1       1.194   3.672  18.696  0.00  0.00    +0.000 C 
ATOM     33  C   UNL     1       0.663   2.401  19.342  0.00  0.00    +0.000 C 
ENDBRANCH   1  32
TORSDOF 10
ENDMDL
MODEL 6
REMARK VINA RESULT:      -7.8      0.909      1.064
REMARK  Name = 
REMARK  14 active torsions:
REMARK  status: ('A' for Active; 'I' for Inactive)
REMARK    1  A    between atoms: C_1  and  C_2
REMARK    2  A    between atoms: C_2  and  C_3
REMARK    3  A    between atoms: C_3  and  C_4
REMARK    4  A    between atoms: C_3  and  C_6
REMARK    5  A    between atoms: C_3  and  C_18
REMARK    6  A    between atoms: C_4  and  C_5
REMARK    7  A    between atoms: C_9  and  O_10
REMARK    8  A    between atoms: O_10  and  S_11
REMARK    9  A    between atoms: S_11  and  N_12
REMARK   10  A    between atoms: C_15  and  C_16
REMARK   11  A    between atoms: C_21  and  O_22
REMARK   12  A    between atoms: O_22  and  S_23
REMARK   13  A    between atoms: S_23  and  N_24
REMARK   14  A    between atoms: C_27  and  C_28
REMARK                            x       y       z     vdW  Elec       q    Type
REMARK                         _______ _______ _______ _____ _____    ______ ____
ROOT
ATOM      1  C   UNL     1       2.346   4.924  19.546  0.00  0.00    +0.000 C 
ENDROOT
BRANCH   1   2
ATOM      2  C   UNL     1       3.600   4.643  18.661  0.00  0.00    +0.000 A 
ATOM      3  C   UNL     1       3.502   3.860  17.501  0.00  0.00    +0.000 A 
ATOM      4  C   UNL     1       4.597   3.693  16.643  0.00  0.00    +0.000 A 
ATOM      5  C   UNL     1       5.825   4.311  16.911  0.00  0.00    +0.000 A 
ATOM      6  C   UNL     1       5.977   5.025  18.101  0.00  0.00    +0.000 A 
ATOM      7  C   UNL     1       7.260   5.677  18.546  0.00  0.00    +0.000 C 
ATOM      8  C   UNL     1       4.865   5.187  18.949  0.00  0.00    +0.000 A 
BRANCH   5   9
ATOM      9  O   UNL     1       6.899   4.252  16.051  0.00  0.00    +0.000 OA
BRANCH   9  10
ATOM     10  S   UNL     1       6.849   4.939  14.572  0.00  0.00    +0.000 S 
ATOM     11  O   UNL     1       5.745   5.867  14.522  0.00  0.00    +0.000 OA
ATOM     12  O   UNL     1       8.185   5.308  14.159  0.00  0.00    +0.000 OA
BRANCH  10  13
ATOM     13  N   UNL     1       6.438   3.663  13.564  0.00  0.00    +0.000 NA
ATOM     14  H   UNL     1       5.665   3.886  12.942  0.00  0.00    +0.000 HD
ATOM     15  H   UNL     1       6.344   2.804  14.103  0.00  0.00    +0.000 HD
ENDBRANCH  10  13
ENDBRANCH   9  10
ENDBRANCH   5   9
ENDBRANCH   1   2
BRANCH   1  16
ATOM     16  C   UNL     1       2.069   6.460  19.583  0.00  0.00    +0.000 A 
ATOM     17  C   UNL     1       2.303   7.265  18.462  0.00  0.00    +0.000 A 
ATOM     18  C   UNL     1       2.005   8.634  18.482  0.00  0.00    +0.000 A 
ATOM     19  C   UNL     1       1.456   9.240  19.618  0.00  0.00    +0.000 A 
ATOM     20  C   UNL     1       1.265   8.470  20.770  0.00  0.00    +0.000 A 
ATOM     21  C   UNL     1       0.754   9.006  22.082  0.00  0.00    +0.000 C 
ATOM     22  C   UNL     1       1.560   7.103  20.728  0.00  0.00    +0.000 A 
BRANCH  19  23
ATOM     23  O   UNL     1       1.077  10.561  19.664  0.00  0.00    +0.000 OA
BRANCH  23  24
ATOM     24  S   UNL     1      -0.326  11.066  19.002  0.00  0.00    +0.000 S 
ATOM     25  O   UNL     1      -1.413  10.709  19.885  0.00  0.00    +0.000 OA
ATOM     26  O   UNL     1      -0.161  12.400  18.478  0.00  0.00    +0.000 OA
BRANCH  24  27
ATOM     27  N   UNL     1      -0.485  10.095  17.643  0.00  0.00    +0.000 NA
ATOM     28  H   UNL     1      -0.123   9.159  17.794  0.00  0.00    +0.000 HD
ATOM     29  H   UNL     1      -0.130  10.583  16.823  0.00  0.00    +0.000 HD
ENDBRANCH  24  27
ENDBRANCH  23  24
ENDBRANCH  19  23
ENDBRANCH   1  16
BRANCH   1  31
ATOM     30  C   UNL     1       0.722   2.819  19.480  0.00  0.00    +0.000 C 
ATOM     31  C   UNL     1       1.108   4.179  18.928  0.00  0.00    +0.000 C 
ENDBRANCH   1  31
BRANCH   1  32
ATOM     32  C   UNL     1       2.600   4.431  21.015  0.00  0.00    +0.000 C 
ATOM     33  C   UNL     1       3.040   2.989  21.216  0.00  0.00    +0.000 C 
ENDBRANCH   1  32
TORSDOF 10
ENDMDL
MODEL 7
REMARK VINA RESULT:      -7.8      1.137      1.734
REMARK  Name = 
REMARK  14 active torsions:
REMARK  status: ('A' for Active; 'I' for Inactive)
REMARK    1  A    between atoms: C_1  and  C_2
REMARK    2  A    between atoms: C_2  and  C_3
REMARK    3  A    between atoms: C_3  and  C_4
REMARK    4  A    between atoms: C_3  and  C_6
REMARK    5  A    between atoms: C_3  and  C_18
REMARK    6  A    between atoms: C_4  and  C_5
REMARK    7  A    between atoms: C_9  and  O_10
REMARK    8  A    between atoms: O_10  and  S_11
REMARK    9  A    between atoms: S_11  and  N_12
REMARK   10  A    between atoms: C_15  and  C_16
REMARK   11  A    between atoms: C_21  and  O_22
REMARK   12  A    between atoms: O_22  and  S_23
REMARK   13  A    between atoms: S_23  and  N_24
REMARK   14  A    between atoms: C_27  and  C_28
REMARK                            x       y       z     vdW  Elec       q    Type
REMARK                         _______ _______ _______ _____ _____    ______ ____
ROOT
ATOM      1  C   UNL     1       2.651   4.226  19.196  0.00  0.00    +0.000 C 
ENDROOT
BRANCH   1   2
ATOM      2  C   UNL     1       3.927   4.222  18.297  0.00  0.00    +0.000 A 
ATOM      3  C   UNL     1       3.940   3.544  17.069  0.00  0.00    +0.000 A 
ATOM      4  C   UNL     1       5.041   3.625  16.207  0.00  0.00    +0.000 A 
ATOM      5  C   UNL     1       6.163   4.394  16.539  0.00  0.00    +0.000 A 
ATOM      6  C   UNL     1       6.214   5.009  17.792  0.00  0.00    +0.000 A 
ATOM      7  C   UNL     1       7.387   5.804  18.304  0.00  0.00    +0.000 C 
ATOM      8  C   UNL     1       5.096   4.922  18.643  0.00  0.00    +0.000 A 
BRANCH   5   9
ATOM      9  O   UNL     1       7.228   4.579  15.686  0.00  0.00    +0.000 OA
BRANCH   9  10
ATOM     10  S   UNL     1       7.008   4.959  14.114  0.00  0.00    +0.000 S 
ATOM     11  O   UNL     1       6.896   3.742  13.348  0.00  0.00    +0.000 OA
ATOM     12  O   UNL     1       6.044   6.032  14.002  0.00  0.00    +0.000 OA
BRANCH  10  13
ATOM     13  N   UNL     1       8.467   5.660  13.675  0.00  0.00    +0.000 NA
ATOM     14  H   UNL     1       8.888   5.217  12.862  0.00  0.00    +0.000 HD
ATOM     15  H   UNL     1       9.069   5.762  14.490  0.00  0.00    +0.000 HD
ENDBRANCH  10  13
ENDBRANCH   9  10
ENDBRANCH   5   9
ENDBRANCH   1   2
BRANCH   1  16
ATOM     16  C   UNL     1       2.236   5.700  19.503  0.00  0.00    +0.000 A 
ATOM     17  C   UNL     1       1.744   6.066  20.761  0.00  0.00    +0.000 A 
ATOM     18  C   UNL     1       1.421   7.399  21.050  0.00  0.00    +0.000 A 
ATOM     19  C   UNL     1       1.588   8.408  20.095  0.00  0.00    +0.000 A 
ATOM     20  C   UNL     1       2.025   8.061  18.812  0.00  0.00    +0.000 A 
ATOM     21  C   UNL     1       2.179   9.030  17.669  0.00  0.00    +0.000 C 
ATOM     22  C   UNL     1       2.352   6.726  18.545  0.00  0.00    +0.000 A 
BRANCH  19  23
ATOM     23  O   UNL     1       1.358   9.740  20.351  0.00  0.00    +0.000 OA
BRANCH  23  24
ATOM     24  S   UNL     1      -0.157  10.329  20.491  0.00  0.00    +0.000 S 
ATOM     25  O   UNL     1      -0.941   9.868  19.369  0.00  0.00    +0.000 OA
ATOM     26  O   UNL     1      -0.604  10.195  21.856  0.00  0.00    +0.000 OA
BRANCH  24  27
ATOM     27  N   UNL     1       0.049  11.980  20.274  0.00  0.00    +0.000 NA
ATOM     28  H   UNL     1      -0.464  12.331  19.472  0.00  0.00    +0.000 HD
ATOM     29  H   UNL     1       1.040  12.215  20.306  0.00  0.00    +0.000 HD
ENDBRANCH  24  27
ENDBRANCH  23  24
ENDBRANCH  19  23
ENDBRANCH   1  16
BRANCH   1  31
ATOM     30  C   UNL     1       0.484   2.685  19.230  0.00  0.00    +0.000 C 
ATOM     31  C   UNL     1       1.486   3.498  18.432  0.00  0.00    +0.000 C 
ENDBRANCH   1  31
BRANCH   1  32
ATOM     32  C   UNL     1       2.946   3.500  20.557  0.00  0.00    +0.000 C 
ATOM     33  C   UNL     1       3.867   2.291  20.533  0.00  0.00    +0.000 C 
ENDBRANCH   1  32
TORSDOF 10
ENDMDL
MODEL 8
REMARK VINA RESULT:      -7.7      0.904      7.440
REMARK  Name = 
REMARK  14 active torsions:
REMARK  status: ('A' for Active; 'I' for Inactive)
REMARK    1  A    between atoms: C_1  and  C_2
REMARK    2  A    between atoms: C_2  and  C_3
REMARK    3  A    between atoms: C_3  and  C_4
REMARK    4  A    between atoms: C_3  and  C_6
REMARK    5  A    between atoms: C_3  and  C_18
REMARK    6  A    between atoms: C_4  and  C_5
REMARK    7  A    between atoms: C_9  and  O_10
REMARK    8  A    between atoms: O_10  and  S_11
REMARK    9  A    between atoms: S_11  and  N_12
REMARK   10  A    between atoms: C_15  and  C_16
REMARK   11  A    between atoms: C_21  and  O_22
REMARK   12  A    between atoms: O_22  and  S_23
REMARK   13  A    between atoms: S_23  and  N_24
REMARK   14  A    between atoms: C_27  and  C_28
REMARK                            x       y       z     vdW  Elec       q    Type
REMARK                         _______ _______ _______ _____ _____    ______ ____
ROOT
ATOM      1  C   UNL     1       2.380   4.489  19.378  0.00  0.00    +0.000 C 
ENDROOT
BRANCH   1   2
ATOM      2  C   UNL     1       1.991   5.983  19.602  0.00  0.00    +0.000 A 
ATOM      3  C   UNL     1       1.480   6.418  20.834  0.00  0.00    +0.000 A 
ATOM      4  C   UNL     1       1.231   7.774  21.079  0.00  0.00    +0.000 A 
ATOM      5  C   UNL     1       1.492   8.744  20.103  0.00  0.00    +0.000 A 
ATOM      6  C   UNL     1       1.918   8.333  18.840  0.00  0.00    +0.000 A 
ATOM      7  C   UNL     1       2.167   9.262  17.680  0.00  0.00    +0.000 C 
ATOM      8  C   UNL     1       2.169   6.966  18.612  0.00  0.00    +0.000 A 
BRANCH   5   9
ATOM      9  O   UNL     1       1.351  10.095  20.330  0.00  0.00    +0.000 OA
BRANCH   9  10
ATOM     10  S   UNL     1      -0.021  10.889  19.943  0.00  0.00    +0.000 S 
ATOM     11  O   UNL     1       0.315  12.059  19.170  0.00  0.00    +0.000 OA
ATOM     12  O   UNL     1      -1.027   9.943  19.511  0.00  0.00    +0.000 OA
BRANCH  10  13
ATOM     13  N   UNL     1      -0.580  11.446  21.423  0.00  0.00    +0.000 NA
ATOM     14  H   UNL     1      -1.579  11.634  21.421  0.00  0.00    +0.000 HD
ATOM     15  H   UNL     1       0.015  12.198  21.764  0.00  0.00    +0.000 HD
ENDBRANCH  10  13
ENDBRANCH   9  10
ENDBRANCH   5   9
ENDBRANCH   1   2
BRANCH   1  16
ATOM     16  C   UNL     1       3.665   4.413  18.495  0.00  0.00    +0.000 A 
ATOM     17  C   UNL     1       3.680   3.688  17.297  0.00  0.00    +0.000 A 
ATOM     18  C   UNL     1       4.818   3.665  16.481  0.00  0.00    +0.000 A 
ATOM     19  C   UNL     1       5.975   4.370  16.830  0.00  0.00    +0.000 A 
ATOM     20  C   UNL     1       6.007   5.056  18.049  0.00  0.00    +0.000 A 
ATOM     21  C   UNL     1       7.206   5.795  18.583  0.00  0.00    +0.000 C 
ATOM     22  C   UNL     1       4.857   5.077  18.846  0.00  0.00    +0.000 A 
BRANCH  19  23
ATOM     23  O   UNL     1       7.091   4.441  16.029  0.00  0.00    +0.000 OA
BRANCH  23  24
ATOM     24  S   UNL     1       6.991   4.917  14.472  0.00  0.00    +0.000 S 
ATOM     25  O   UNL     1       8.207   5.613  14.120  0.00  0.00    +0.000 OA
ATOM     26  O   UNL     1       6.453   3.845  13.672  0.00  0.00    +0.000 OA
BRANCH  24  27
ATOM     27  N   UNL     1       5.777   6.075  14.499  0.00  0.00    +0.000 NA
ATOM     28  H   UNL     1       6.129   7.008  14.306  0.00  0.00    +0.000 HD
ATOM     29  H   UNL     1       5.220   5.976  15.346  0.00  0.00    +0.000 HD
ENDBRANCH  24  27
ENDBRANCH  23  24
ENDBRANCH  19  23
ENDBRANCH   1  16
BRANCH   1  31
ATOM     30  C   UNL     1       3.522   2.574  20.827  0.00  0.00    +0.000 C 
ATOM     31  C   UNL     1       2.658   3.820  20.773  0.00  0.00    +0.000 C 
ENDBRANCH   1  31
BRANCH   1  32
ATOM     32  C   UNL     1       1.222   3.734  18.633  0.00  0.00    +0.000 C 
ATOM     33  C   UNL     1       0.620   2.511  19.308  0.00  0.00    +0.000 C 
ENDBRANCH   1  32
TORSDOF 10
ENDMDL
MODEL 9
REMARK VINA RESULT:      -7.5      1.726      7.594
REMARK  Name = 
REMARK  14 active torsions:
REMARK  status: ('A' for Active; 'I' for Inactive)
REMARK    1  A    between atoms: C_1  and  C_2
REMARK    2  A    between atoms: C_2  and  C_3
REMARK    3  A    between atoms: C_3  and  C_4
REMARK    4  A    between atoms: C_3  and  C_6
REMARK    5  A    between atoms: C_3  and  C_18
REMARK    6  A    between atoms: C_4  and  C_5
REMARK    7  A    between atoms: C_9  and  O_10
REMARK    8  A    between atoms: O_10  and  S_11
REMARK    9  A    between atoms: S_11  and  N_12
REMARK   10  A    between atoms: C_15  and  C_16
REMARK   11  A    between atoms: C_21  and  O_22
REMARK   12  A    between atoms: O_22  and  S_23
REMARK   13  A    between atoms: S_23  and  N_24
REMARK   14  A    between atoms: C_27  and  C_28
REMARK                            x       y       z     vdW  Elec       q    Type
REMARK                         _______ _______ _______ _____ _____    ______ ____
ROOT
ATOM      1  C   UNL     1       2.891   4.023  19.109  0.00  0.00    +0.000 C 
ENDROOT
BRANCH   1   2
ATOM      2  C   UNL     1       2.348   5.454  19.413  0.00  0.00    +0.000 A 
ATOM      3  C   UNL     1       1.775   5.757  20.657  0.00  0.00    +0.000 A 
ATOM      4  C   UNL     1       1.385   7.064  20.978  0.00  0.00    +0.000 A 
ATOM      5  C   UNL     1       1.563   8.114  20.068  0.00  0.00    +0.000 A 
ATOM      6  C   UNL     1       2.051   7.827  18.792  0.00  0.00    +0.000 A 
ATOM      7  C   UNL     1       2.224   8.847  17.697  0.00  0.00    +0.000 C 
ATOM      8  C   UNL     1       2.443   6.510  18.489  0.00  0.00    +0.000 A 
BRANCH   5   9
ATOM      9  O   UNL     1       1.282   9.428  20.372  0.00  0.00    +0.000 OA
BRANCH   9  10
ATOM     10  S   UNL     1       0.889   9.889  21.887  0.00  0.00    +0.000 S 
ATOM     11  O   UNL     1       1.888   9.394  22.803  0.00  0.00    +0.000 OA
ATOM     12  O   UNL     1       0.466  11.273  21.882  0.00  0.00    +0.000 OA
BRANCH  10  13
ATOM     13  N   UNL     1      -0.513   9.026  22.206  0.00  0.00    +0.000 NA
ATOM     14  H   UNL     1      -0.534   8.123  21.738  0.00  0.00    +0.000 HD
ATOM     15  H   UNL     1      -1.330   9.618  22.072  0.00  0.00    +0.000 HD
ENDBRANCH  10  13
ENDBRANCH   9  10
ENDBRANCH   5   9
ENDBRANCH   1   2
BRANCH   1  16
ATOM     16  C   UNL     1       4.130   4.126  18.164  0.00  0.00    +0.000 A 
ATOM     17  C   UNL     1       4.138   3.506  16.910  0.00  0.00    +0.000 A 
ATOM     18  C   UNL     1       5.230   3.643  16.043  0.00  0.00    +0.000 A 
ATOM     19  C   UNL     1       6.345   4.412  16.398  0.00  0.00    +0.000 A 
ATOM     20  C   UNL     1       6.387   4.997  17.669  0.00  0.00    +0.000 A 
ATOM     21  C   UNL     1       7.550   5.786  18.208  0.00  0.00    +0.000 C 
ATOM     22  C   UNL     1       5.282   4.856  18.516  0.00  0.00    +0.000 A 
BRANCH  19  23
ATOM     23  O   UNL     1       7.408   4.640  15.556  0.00  0.00    +0.000 OA
BRANCH  23  24
ATOM     24  S   UNL     1       7.183   5.023  13.986  0.00  0.00    +0.000 S 
ATOM     25  O   UNL     1       7.135   3.804  13.212  0.00  0.00    +0.000 OA
ATOM     26  O   UNL     1       6.174   6.049  13.879  0.00  0.00    +0.000 OA
BRANCH  24  27
ATOM     27  N   UNL     1       8.614   5.792  13.567  0.00  0.00    +0.000 NA
ATOM     28  H   UNL     1       9.412   5.428  14.078  0.00  0.00    +0.000 HD
ATOM     29  H   UNL     1       8.488   6.802  13.597  0.00  0.00    +0.000 HD
ENDBRANCH  24  27
ENDBRANCH  23  24
ENDBRANCH  19  23
ENDBRANCH   1  16
BRANCH   1  31
ATOM     30  C   UNL     1       4.241   2.140  20.414  0.00  0.00    +0.000 C 
ATOM     31  C   UNL     1       3.313   3.339  20.460  0.00  0.00    +0.000 C 
ENDBRANCH   1  31
BRANCH   1  32
ATOM     32  C   UNL     1       1.788   3.168  18.388  0.00  0.00    +0.000 C 
ATOM     33  C   UNL     1       0.703   2.537  19.246  0.00  0.00    +0.000 C 
ENDBRANCH   1  32
TORSDOF 10
ENDMDL
