MODEL 1
REMARK VINA RESULT:      -7.9      0.000      0.000
REMARK  Name = 
REMARK  7 active torsions:
REMARK  status: ('A' for Active; 'I' for Inactive)
REMARK    1  A    between atoms: C_1  and  C_2
REMARK    2  A    between atoms: C_2  and  C_4
REMARK    3  A    between atoms: C_5  and  O_6
REMARK    4  A    between atoms: C_8  and  O_9
REMARK    5  A    between atoms: C_8  and  N_10
REMARK    6  A    between atoms: N_10  and  C_11
REMARK    7  A    between atoms: C_15  and  N_16
REMARK                            x       y       z     vdW  Elec       q    Type
REMARK                         _______ _______ _______ _____ _____    ______ ____
ROOT
ATOM      1  C   UNL     1      -0.246  11.103  19.390  0.00  0.00    +0.000 C 
ATOM      2  C   UNL     1       0.580  10.174  18.880  0.00  0.00    +0.000 C 
ATOM      3  C   UNL     1       1.156   9.124  19.708  0.00  0.00    +0.000 C 
ATOM      4  C   UNL     1       1.930   8.108  19.238  0.00  0.00    +0.000 C 
ATOM      5  C   UNL     1       0.908   9.215  21.175  0.00  0.00    +0.000 C 
ATOM      6  O   UNL     1       1.509   8.562  22.021  0.00  0.00    +0.000 OA
ATOM      7  O   UNL     1      -0.012  10.111  21.597  0.00  0.00    +0.000 OA
ATOM      8  C   UNL     1      -0.597  11.028  20.809  0.00  0.00    +0.000 C 
ATOM      9  O   UNL     1      -1.423  11.799  21.285  0.00  0.00    +0.000 OA
ENDROOT
BRANCH   1  11
ATOM     10  C   UNL     1      -0.246  13.561  18.511  0.00  0.00    +0.000 C 
ATOM     11  C   UNL     1      -0.794  12.157  18.477  0.00  0.00    +0.000 C 
ATOM     12  O   UNL     1      -1.641  11.838  17.634  0.00  0.00    +0.000 OA
ENDBRANCH   1  11
BRANCH   2  13
ATOM     13  O   UNL     1       0.944  10.131  17.537  0.00  0.00    +0.000 OA
ATOM     14  H   UNL     1       1.839   9.716  17.460  0.00  0.00    +0.000 HD
ENDBRANCH   2  13
BRANCH   4  15
ATOM     15  O   UNL     1       2.330   8.038  17.915  0.00  0.00    +0.000 OA
ATOM     16  H   UNL     1       3.027   8.712  17.775  0.00  0.00    +0.000 HD
ENDBRANCH   4  15
BRANCH   4  17
ATOM     17  N   UNL     1       2.447   7.052  19.962  0.00  0.00    +0.000 N 
ATOM     18  H   UNL     1       3.262   7.381  20.478  0.00  0.00    +0.000 HD
BRANCH  17  19
ATOM     19  C   UNL     1       2.823   5.812  19.362  0.00  0.00    +0.000 A 
ATOM     20  C   UNL     1       1.897   4.835  18.984  0.00  0.00    +0.000 A 
ATOM     21  C   UNL     1       2.326   3.633  18.421  0.00  0.00    +0.000 A 
ATOM     22  C   UNL     1       3.688   3.378  18.252  0.00  0.00    +0.000 A 
ATOM     23  C   UNL     1       4.636   4.322  18.643  0.00  0.00    +0.000 A 
ATOM     24  C   UNL     1       4.193   5.538  19.190  0.00  0.00    +0.000 A 
BRANCH  23  25
ATOM     25  N   UNL     1       6.029   4.111  18.534  0.00  0.00    +0.000 N 
ATOM     26  C   UNL     1       6.889   4.679  17.631  0.00  0.00    +0.000 C 
ATOM     27  N   UNL     1       8.166   4.220  17.773  0.00  0.00    +0.000 N 
ATOM     28  O   UNL     1       6.653   5.513  16.770  0.00  0.00    +0.000 OA
ATOM     29  H   UNL     1       6.457   3.521  19.233  0.00  0.00    +0.000 HD
ATOM     30  H   UNL     1       8.285   3.236  17.952  0.00  0.00    +0.000 HD
ATOM     31  H   UNL     1       8.780   4.583  17.051  0.00  0.00    +0.000 HD
ENDBRANCH  23  25
ENDBRANCH  17  19
ENDBRANCH   4  17
TORSDOF 6
ENDMDL
MODEL 2
REMARK VINA RESULT:      -7.5      2.097      3.587
REMARK  Name = 
REMARK  7 active torsions:
REMARK  status: ('A' for Active; 'I' for Inactive)
REMARK    1  A    between atoms: C_1  and  C_2
REMARK    2  A    between atoms: C_2  and  C_4
REMARK    3  A    between atoms: C_5  and  O_6
REMARK    4  A    between atoms: C_8  and  O_9
REMARK    5  A    between atoms: C_8  and  N_10
REMARK    6  A    between atoms: N_10  and  C_11
REMARK    7  A    between atoms: C_15  and  N_16
REMARK                            x       y       z     vdW  Elec       q    Type
REMARK                         _______ _______ _______ _____ _____    ______ ____
ROOT
ATOM      1  C   UNL     1       1.013   9.677  20.672  0.00  0.00    +0.000 C 
ATOM      2  C   UNL     1       1.431   8.402  20.607  0.00  0.00    +0.000 C 
ATOM      3  C   UNL     1       2.037   7.856  19.401  0.00  0.00    +0.000 C 
ATOM      4  C   UNL     1       2.556   6.602  19.299  0.00  0.00    +0.000 C 
ATOM      5  C   UNL     1       2.035   8.729  18.194  0.00  0.00    +0.000 C 
ATOM      6  O   UNL     1       2.282   8.343  17.058  0.00  0.00    +0.000 OA
ATOM      7  O   UNL     1       1.693  10.026  18.365  0.00  0.00    +0.000 OA
ATOM      8  C   UNL     1       1.207  10.540  19.506  0.00  0.00    +0.000 C 
ATOM      9  O   UNL     1       0.927  11.733  19.564  0.00  0.00    +0.000 OA
ENDROOT
BRANCH   1  11
ATOM     10  C   UNL     1      -0.951  10.850  21.930  0.00  0.00    +0.000 C 
ATOM     11  C   UNL     1       0.393  10.166  21.945  0.00  0.00    +0.000 C 
ATOM     12  O   UNL     1       0.956   9.923  23.018  0.00  0.00    +0.000 OA
ENDBRANCH   1  11
BRANCH   2  13
ATOM     13  O   UNL     1       1.331   7.510  21.672  0.00  0.00    +0.000 OA
ATOM     14  H   UNL     1       2.102   6.891  21.645  0.00  0.00    +0.000 HD
ENDBRANCH   2  13
BRANCH   4  15
ATOM     15  O   UNL     1       2.461   5.679  20.326  0.00  0.00    +0.000 OA
ATOM     16  H   UNL     1       3.183   5.027  20.214  0.00  0.00    +0.000 HD
ENDBRANCH   4  15
BRANCH   4  17
ATOM     17  N   UNL     1       3.199   6.054  18.207  0.00  0.00    +0.000 N 
ATOM     18  H   UNL     1       2.751   5.168  17.977  0.00  0.00    +0.000 HD
BRANCH  17  19
ATOM     19  C   UNL     1       4.607   5.813  18.178  0.00  0.00    +0.000 A 
ATOM     20  C   UNL     1       5.357   5.529  19.323  0.00  0.00    +0.000 A 
ATOM     21  C   UNL     1       6.733   5.323  19.235  0.00  0.00    +0.000 A 
ATOM     22  C   UNL     1       7.386   5.425  18.005  0.00  0.00    +0.000 A 
ATOM     23  C   UNL     1       6.670   5.732  16.849  0.00  0.00    +0.000 A 
ATOM     24  C   UNL     1       5.280   5.918  16.945  0.00  0.00    +0.000 A 
BRANCH  23  25
ATOM     25  N   UNL     1       7.275   5.886  15.582  0.00  0.00    +0.000 N 
ATOM     26  C   UNL     1       7.212   5.023  14.519  0.00  0.00    +0.000 C 
ATOM     27  N   UNL     1       7.952   5.455  13.457  0.00  0.00    +0.000 N 
ATOM     28  O   UNL     1       6.592   3.975  14.421  0.00  0.00    +0.000 OA
ATOM     29  H   UNL     1       7.761   6.754  15.411  0.00  0.00    +0.000 HD
ATOM     30  H   UNL     1       8.852   5.861  13.656  0.00  0.00    +0.000 HD
ATOM     31  H   UNL     1       7.966   4.774  12.706  0.00  0.00    +0.000 HD
ENDBRANCH  23  25
ENDBRANCH  17  19
ENDBRANCH   4  17
TORSDOF 6
ENDMDL
MODEL 3
REMARK VINA RESULT:      -7.5      1.420      2.714
REMARK  Name = 
REMARK  7 active torsions:
REMARK  status: ('A' for Active; 'I' for Inactive)
REMARK    1  A    between atoms: C_1  and  C_2
REMARK    2  A    between atoms: C_2  and  C_4
REMARK    3  A    between atoms: C_5  and  O_6
REMARK    4  A    between atoms: C_8  and  O_9
REMARK    5  A    between atoms: C_8  and  N_10
REMARK    6  A    between atoms: N_10  and  C_11
REMARK    7  A    between atoms: C_15  and  N_16
REMARK                            x       y       z     vdW  Elec       q    Type
REMARK                         _______ _______ _______ _____ _____    ______ ____
ROOT
ATOM      1  C   UNL     1       0.373  10.329  21.352  0.00  0.00    +0.000 C 
ATOM      2  C   UNL     1       0.878   9.107  21.114  0.00  0.00    +0.000 C 
ATOM      3  C   UNL     1       1.480   8.764  19.834  0.00  0.00    +0.000 C 
ATOM      4  C   UNL     1       2.083   7.575  19.559  0.00  0.00    +0.000 C 
ATOM      5  C   UNL     1       1.376   9.781  18.749  0.00  0.00    +0.000 C 
ATOM      6  O   UNL     1       1.612   9.561  17.567  0.00  0.00    +0.000 OA
ATOM      7  O   UNL     1       0.949  11.017  19.094  0.00  0.00    +0.000 OA
ATOM      8  C   UNL     1       0.466  11.345  20.303  0.00  0.00    +0.000 C 
ATOM      9  O   UNL     1       0.104  12.496  20.520  0.00  0.00    +0.000 OA
ENDROOT
BRANCH   1  11
ATOM     10  C   UNL     1      -1.520  11.392  22.803  0.00  0.00    +0.000 C 
ATOM     11  C   UNL     1      -0.238  10.606  22.692  0.00  0.00    +0.000 C 
ATOM     12  O   UNL     1       0.276  10.106  23.700  0.00  0.00    +0.000 OA
ENDBRANCH   1  11
BRANCH   2  13
ATOM     13  O   UNL     1       0.877   8.083  22.057  0.00  0.00    +0.000 OA
ATOM     14  H   UNL     1       1.676   7.518  21.918  0.00  0.00    +0.000 HD
ENDBRANCH   2  13
BRANCH   4  15
ATOM     15  O   UNL     1       2.087   6.525  20.461  0.00  0.00    +0.000 OA
ATOM     16  H   UNL     1       1.187   6.446  20.835  0.00  0.00    +0.000 HD
ENDBRANCH   4  15
BRANCH   4  17
ATOM     17  N   UNL     1       2.726   7.220  18.390  0.00  0.00    +0.000 N 
ATOM     18  H   UNL     1       2.164   7.537  17.601  0.00  0.00    +0.000 HD
BRANCH  17  19
ATOM     19  C   UNL     1       3.112   5.876  18.096  0.00  0.00    +0.000 A 
ATOM     20  C   UNL     1       2.195   4.871  17.777  0.00  0.00    +0.000 A 
ATOM     21  C   UNL     1       2.629   3.571  17.520  0.00  0.00    +0.000 A 
ATOM     22  C   UNL     1       3.985   3.249  17.605  0.00  0.00    +0.000 A 
ATOM     23  C   UNL     1       4.922   4.224  17.946  0.00  0.00    +0.000 A 
ATOM     24  C   UNL     1       4.476   5.535  18.183  0.00  0.00    +0.000 A 
BRANCH  23  25
ATOM     25  N   UNL     1       6.302   3.956  18.085  0.00  0.00    +0.000 N 
ATOM     26  C   UNL     1       7.345   4.667  17.551  0.00  0.00    +0.000 C 
ATOM     27  N   UNL     1       8.555   4.106  17.842  0.00  0.00    +0.000 N 
ATOM     28  O   UNL     1       7.313   5.695  16.891  0.00  0.00    +0.000 OA
ATOM     29  H   UNL     1       6.560   3.192  18.691  0.00  0.00    +0.000 HD
ATOM     30  H   UNL     1       8.622   3.102  17.795  0.00  0.00    +0.000 HD
ATOM     31  H   UNL     1       9.316   4.590  17.377  0.00  0.00    +0.000 HD
ENDBRANCH  23  25
ENDBRANCH  17  19
ENDBRANCH   4  17
TORSDOF 6
ENDMDL
MODEL 4
REMARK VINA RESULT:      -7.4      1.693      2.955
REMARK  Name = 
REMARK  7 active torsions:
REMARK  status: ('A' for Active; 'I' for Inactive)
REMARK    1  A    between atoms: C_1  and  C_2
REMARK    2  A    between atoms: C_2  and  C_4
REMARK    3  A    between atoms: C_5  and  O_6
REMARK    4  A    between atoms: C_8  and  O_9
REMARK    5  A    between atoms: C_8  and  N_10
REMARK    6  A    between atoms: N_10  and  C_11
REMARK    7  A    between atoms: C_15  and  N_16
REMARK                            x       y       z     vdW  Elec       q    Type
REMARK                         _______ _______ _______ _____ _____    ______ ____
ROOT
ATOM      1  C   UNL     1      -1.106  11.576  21.656  0.00  0.00    +0.000 C 
ATOM      2  C   UNL     1      -0.235  10.570  21.836  0.00  0.00    +0.000 C 
ATOM      3  C   UNL     1       0.335   9.841  20.713  0.00  0.00    +0.000 C 
ATOM      4  C   UNL     1       1.283   8.871  20.824  0.00  0.00    +0.000 C 
ATOM      5  C   UNL     1      -0.206  10.160  19.361  0.00  0.00    +0.000 C 
ATOM      6  O   UNL     1      -0.011   9.483  18.358  0.00  0.00    +0.000 OA
ATOM      7  O   UNL     1      -0.999  11.249  19.250  0.00  0.00    +0.000 OA
ATOM      8  C   UNL     1      -1.459  11.964  20.290  0.00  0.00    +0.000 C 
ATOM      9  O   UNL     1      -2.174  12.940  20.087  0.00  0.00    +0.000 OA
ENDROOT
BRANCH   1  11
ATOM     10  C   UNL     1      -1.141  13.634  23.262  0.00  0.00    +0.000 C 
ATOM     11  C   UNL     1      -1.657  12.275  22.861  0.00  0.00    +0.000 C 
ATOM     12  O   UNL     1      -2.602  11.763  23.472  0.00  0.00    +0.000 OA
ENDBRANCH   1  11
BRANCH   2  13
ATOM     13  O   UNL     1       0.197  10.150  23.091  0.00  0.00    +0.000 OA
ATOM     14  H   UNL     1       0.189  10.922  23.709  0.00  0.00    +0.000 HD
ENDBRANCH   2  13
BRANCH   4  15
ATOM     15  O   UNL     1       1.726   8.410  22.052  0.00  0.00    +0.000 OA
ATOM     16  H   UNL     1       2.152   9.158  22.519  0.00  0.00    +0.000 HD
ENDBRANCH   4  15
BRANCH   4  17
ATOM     17  N   UNL     1       1.906   8.194  19.794  0.00  0.00    +0.000 N 
ATOM     18  H   UNL     1       1.360   8.326  18.943  0.00  0.00    +0.000 HD
BRANCH  17  19
ATOM     19  C   UNL     1       2.220   6.802  19.860  0.00  0.00    +0.000 A 
ATOM     20  C   UNL     1       1.497   5.892  20.638  0.00  0.00    +0.000 A 
ATOM     21  C   UNL     1       1.864   4.548  20.679  0.00  0.00    +0.000 A 
ATOM     22  C   UNL     1       2.975   4.096  19.966  0.00  0.00    +0.000 A 
ATOM     23  C   UNL     1       3.731   4.984  19.201  0.00  0.00    +0.000 A 
ATOM     24  C   UNL     1       3.342   6.333  19.150  0.00  0.00    +0.000 A 
BRANCH  23  25
ATOM     25  N   UNL     1       4.887   4.599  18.485  0.00  0.00    +0.000 N 
ATOM     26  C   UNL     1       6.194   4.803  18.844  0.00  0.00    +0.000 C 
ATOM     27  N   UNL     1       7.067   4.345  17.900  0.00  0.00    +0.000 N 
ATOM     28  O   UNL     1       6.638   5.310  19.863  0.00  0.00    +0.000 OA
ATOM     29  H   UNL     1       4.745   4.060  17.644  0.00  0.00    +0.000 HD
ATOM     30  H   UNL     1       6.832   4.512  16.934  0.00  0.00    +0.000 HD
ATOM     31  H   UNL     1       8.028   4.572  18.133  0.00  0.00    +0.000 HD
ENDBRANCH  23  25
ENDBRANCH  17  19
ENDBRANCH   4  17
TORSDOF 6
ENDMDL
MODEL 5
REMARK VINA RESULT:      -7.4      1.875      2.273
REMARK  Name = 
REMARK  7 active torsions:
REMARK  status: ('A' for Active; 'I' for Inactive)
REMARK    1  A    between atoms: C_1  and  C_2
REMARK    2  A    between atoms: C_2  and  C_4
REMARK    3  A    between atoms: C_5  and  O_6
REMARK    4  A    between atoms: C_8  and  O_9
REMARK    5  A    between atoms: C_8  and  N_10
REMARK    6  A    between atoms: N_10  and  C_11
REMARK    7  A    between atoms: C_15  and  N_16
REMARK                            x       y       z     vdW  Elec       q    Type
REMARK                         _______ _______ _______ _____ _____    ______ ____
ROOT
ATOM      1  C   UNL     1       0.815  10.760  19.494  0.00  0.00    +0.000 C 
ATOM      2  C   UNL     1       1.499   9.959  18.661  0.00  0.00    +0.000 C 
ATOM      3  C   UNL     1       1.742   8.558  18.974  0.00  0.00    +0.000 C 
ATOM      4  C   UNL     1       2.353   7.676  18.137  0.00  0.00    +0.000 C 
ATOM      5  C   UNL     1       1.331   8.091  20.329  0.00  0.00    +0.000 C 
ATOM      6  O   UNL     1       1.675   7.028  20.830  0.00  0.00    +0.000 OA
ATOM      7  O   UNL     1       0.561   8.923  21.065  0.00  0.00    +0.000 OA
ATOM      8  C   UNL     1       0.276  10.192  20.731  0.00  0.00    +0.000 C 
ATOM      9  O   UNL     1      -0.435  10.869  21.466  0.00  0.00    +0.000 OA
ENDROOT
BRANCH   1  11
ATOM     10  C   UNL     1      -0.716  12.657  18.559  0.00  0.00    +0.000 C 
ATOM     11  C   UNL     1       0.609  12.193  19.108  0.00  0.00    +0.000 C 
ATOM     12  O   UNL     1       1.513  13.008  19.327  0.00  0.00    +0.000 OA
ENDBRANCH   1  11
BRANCH   2  13
ATOM     13  O   UNL     1       2.017  10.389  17.442  0.00  0.00    +0.000 OA
ATOM     14  H   UNL     1       1.619   9.848  16.716  0.00  0.00    +0.000 HD
ENDBRANCH   2  13
BRANCH   4  15
ATOM     15  O   UNL     1       2.899   8.065  16.926  0.00  0.00    +0.000 OA
ATOM     16  H   UNL     1       3.643   7.462  16.723  0.00  0.00    +0.000 HD
ENDBRANCH   4  15
BRANCH   4  17
ATOM     17  N   UNL     1       2.552   6.326  18.352  0.00  0.00    +0.000 N 
ATOM     18  H   UNL     1       2.179   6.086  19.270  0.00  0.00    +0.000 HD
BRANCH  17  19
ATOM     19  C   UNL     1       3.837   5.709  18.265  0.00  0.00    +0.000 A 
ATOM     20  C   UNL     1       4.792   5.786  19.284  0.00  0.00    +0.000 A 
ATOM     21  C   UNL     1       6.039   5.180  19.133  0.00  0.00    +0.000 A 
ATOM     22  C   UNL     1       6.362   4.512  17.951  0.00  0.00    +0.000 A 
ATOM     23  C   UNL     1       5.440   4.440  16.907  0.00  0.00    +0.000 A 
ATOM     24  C   UNL     1       4.179   5.036  17.076  0.00  0.00    +0.000 A 
BRANCH  23  25
ATOM     25  N   UNL     1       5.717   3.811  15.672  0.00  0.00    +0.000 N 
ATOM     26  C   UNL     1       6.402   4.335  14.607  0.00  0.00    +0.000 C 
ATOM     27  N   UNL     1       6.449   3.474  13.548  0.00  0.00    +0.000 N 
ATOM     28  O   UNL     1       6.953   5.421  14.510  0.00  0.00    +0.000 OA
ATOM     29  H   UNL     1       5.434   2.847  15.577  0.00  0.00    +0.000 HD
ATOM     30  H   UNL     1       5.611   2.957  13.336  0.00  0.00    +0.000 HD
ATOM     31  H   UNL     1       6.886   3.898  12.737  0.00  0.00    +0.000 HD
ENDBRANCH  23  25
ENDBRANCH  17  19
ENDBRANCH   4  17
TORSDOF 6
ENDMDL
MODEL 6
REMARK VINA RESULT:      -7.4      2.174      2.966
REMARK  Name = 
REMARK  7 active torsions:
REMARK  status: ('A' for Active; 'I' for Inactive)
REMARK    1  A    between atoms: C_1  and  C_2
REMARK    2  A    between atoms: C_2  and  C_4
REMARK    3  A    between atoms: C_5  and  O_6
REMARK    4  A    between atoms: C_8  and  O_9
REMARK    5  A    between atoms: C_8  and  N_10
REMARK    6  A    between atoms: N_10  and  C_11
REMARK    7  A    between atoms: C_15  and  N_16
REMARK                            x       y       z     vdW  Elec       q    Type
REMARK                         _______ _______ _______ _____ _____    ______ ____
ROOT
ATOM      1  C   UNL     1       0.915   9.662  19.741  0.00  0.00    +0.000 C 
ATOM      2  C   UNL     1       1.722   9.068  18.846  0.00  0.00    +0.000 C 
ATOM      3  C   UNL     1       2.191   7.702  19.029  0.00  0.00    +0.000 C 
ATOM      4  C   UNL     1       2.940   7.016  18.121  0.00  0.00    +0.000 C 
ATOM      5  C   UNL     1       1.859   7.045  20.324  0.00  0.00    +0.000 C 
ATOM      6  O   UNL     1       2.372   6.008  20.727  0.00  0.00    +0.000 OA
ATOM      7  O   UNL     1       0.962   7.665  21.124  0.00  0.00    +0.000 OA
ATOM      8  C   UNL     1       0.474   8.897  20.907  0.00  0.00    +0.000 C 
ATOM      9  O   UNL     1      -0.339   9.374  21.691  0.00  0.00    +0.000 OA
ENDROOT
BRANCH   1  11
ATOM     10  C   UNL     1       1.100  12.216  20.253  0.00  0.00    +0.000 C 
ATOM     11  C   UNL     1       0.479  11.073  19.489  0.00  0.00    +0.000 C 
ATOM     12  O   UNL     1      -0.334  11.297  18.585  0.00  0.00    +0.000 OA
ENDBRANCH   1  11
BRANCH   2  13
ATOM     13  O   UNL     1       2.166   9.693  17.684  0.00  0.00    +0.000 OA
ATOM     14  H   UNL     1       1.610  10.494  17.519  0.00  0.00    +0.000 HD
ENDBRANCH   2  13
BRANCH   4  15
ATOM     15  O   UNL     1       3.417   7.606  16.963  0.00  0.00    +0.000 OA
ATOM     16  H   UNL     1       2.665   7.709  16.346  0.00  0.00    +0.000 HD
ENDBRANCH   4  15
BRANCH   4  17
ATOM     17  N   UNL     1       3.356   5.703  18.210  0.00  0.00    +0.000 N 
ATOM     18  H   UNL     1       3.220   5.383  19.169  0.00  0.00    +0.000 HD
BRANCH  17  19
ATOM     19  C   UNL     1       4.665   5.278  17.825  0.00  0.00    +0.000 A 
ATOM     20  C   UNL     1       5.805   5.522  18.596  0.00  0.00    +0.000 A 
ATOM     21  C   UNL     1       7.060   5.101  18.159  0.00  0.00    +0.000 A 
ATOM     22  C   UNL     1       7.199   4.453  16.930  0.00  0.00    +0.000 A 
ATOM     23  C   UNL     1       6.084   4.217  16.127  0.00  0.00    +0.000 A 
ATOM     24  C   UNL     1       4.821   4.627  16.586  0.00  0.00    +0.000 A 
BRANCH  23  25
ATOM     25  N   UNL     1       6.161   3.600  14.858  0.00  0.00    +0.000 N 
ATOM     26  C   UNL     1       6.683   4.129  13.706  0.00  0.00    +0.000 C 
ATOM     27  N   UNL     1       6.557   3.280  12.644  0.00  0.00    +0.000 N 
ATOM     28  O   UNL     1       7.228   5.209  13.538  0.00  0.00    +0.000 OA
ATOM     29  H   UNL     1       5.854   2.641  14.797  0.00  0.00    +0.000 HD
ATOM     30  H   UNL     1       5.689   2.776  12.557  0.00  0.00    +0.000 HD
ATOM     31  H   UNL     1       6.871   3.709  11.780  0.00  0.00    +0.000 HD
ENDBRANCH  23  25
ENDBRANCH  17  19
ENDBRANCH   4  17
TORSDOF 6
ENDMDL
MODEL 7
REMARK VINA RESULT:      -7.3      0.987      1.010
REMARK  Name = 
REMARK  7 active torsions:
REMARK  status: ('A' for Active; 'I' for Inactive)
REMARK    1  A    between atoms: C_1  and  C_2
REMARK    2  A    between atoms: C_2  and  C_4
REMARK    3  A    between atoms: C_5  and  O_6
REMARK    4  A    between atoms: C_8  and  O_9
REMARK    5  A    between atoms: C_8  and  N_10
REMARK    6  A    between atoms: N_10  and  C_11
REMARK    7  A    between atoms: C_15  and  N_16
REMARK                            x       y       z     vdW  Elec       q    Type
REMARK                         _______ _______ _______ _____ _____    ______ ____
ROOT
ATOM      1  C   UNL     1      -0.512  11.371  19.587  0.00  0.00    +0.000 C 
ATOM      2  C   UNL     1       0.311  10.390  19.179  0.00  0.00    +0.000 C 
ATOM      3  C   UNL     1       0.847   9.405  20.107  0.00  0.00    +0.000 C 
ATOM      4  C   UNL     1       1.615   8.341  19.745  0.00  0.00    +0.000 C 
ATOM      5  C   UNL     1       0.562   9.622  21.554  0.00  0.00    +0.000 C 
ATOM      6  O   UNL     1       1.128   9.033  22.468  0.00  0.00    +0.000 OA
ATOM      7  O   UNL     1      -0.353  10.564  21.874  0.00  0.00    +0.000 OA
ATOM      8  C   UNL     1      -0.901  11.420  20.997  0.00  0.00    +0.000 C 
ATOM      9  O   UNL     1      -1.726  12.241  21.384  0.00  0.00    +0.000 OA
ENDROOT
BRANCH   1  11
ATOM     10  C   UNL     1      -0.397  13.723  18.460  0.00  0.00    +0.000 C 
ATOM     11  C   UNL     1      -1.017  12.353  18.575  0.00  0.00    +0.000 C 
ATOM     12  O   UNL     1      -1.890  11.994  17.775  0.00  0.00    +0.000 OA
ENDBRANCH   1  11
BRANCH   2  13
ATOM     13  O   UNL     1       0.710  10.229  17.855  0.00  0.00    +0.000 OA
ATOM     14  H   UNL     1       0.180   9.501  17.446  0.00  0.00    +0.000 HD
ENDBRANCH   2  13
BRANCH   4  15
ATOM     15  O   UNL     1       2.049   8.155  18.444  0.00  0.00    +0.000 OA
ATOM     16  H   UNL     1       2.873   8.669  18.325  0.00  0.00    +0.000 HD
ENDBRANCH   4  15
BRANCH   4  17
ATOM     17  N   UNL     1       2.094   7.342  20.569  0.00  0.00    +0.000 N 
ATOM     18  H   UNL     1       2.970   7.657  20.985  0.00  0.00    +0.000 HD
BRANCH  17  19
ATOM     19  C   UNL     1       2.319   6.006  20.115  0.00  0.00    +0.000 A 
ATOM     20  C   UNL     1       1.523   4.924  20.502  0.00  0.00    +0.000 A 
ATOM     21  C   UNL     1       1.804   3.638  20.043  0.00  0.00    +0.000 A 
ATOM     22  C   UNL     1       2.903   3.409  19.213  0.00  0.00    +0.000 A 
ATOM     23  C   UNL     1       3.731   4.464  18.830  0.00  0.00    +0.000 A 
ATOM     24  C   UNL     1       3.426   5.759  19.281  0.00  0.00    +0.000 A 
BRANCH  23  25
ATOM     25  N   UNL     1       4.878   4.293  18.023  0.00  0.00    +0.000 N 
ATOM     26  C   UNL     1       6.183   4.524  18.372  0.00  0.00    +0.000 C 
ATOM     27  N   UNL     1       7.042   4.303  17.335  0.00  0.00    +0.000 N 
ATOM     28  O   UNL     1       6.636   4.874  19.451  0.00  0.00    +0.000 OA
ATOM     29  H   UNL     1       4.735   3.903  17.103  0.00  0.00    +0.000 HD
ATOM     30  H   UNL     1       6.757   4.620  16.423  0.00  0.00    +0.000 HD
ATOM     31  H   UNL     1       7.996   4.553  17.576  0.00  0.00    +0.000 HD
ENDBRANCH  23  25
ENDBRANCH  17  19
ENDBRANCH   4  17
TORSDOF 6
ENDMDL
MODEL 8
REMARK VINA RESULT:      -7.3      2.147      3.529
REMARK  Name = 
REMARK  7 active torsions:
REMARK  status: ('A' for Active; 'I' for Inactive)
REMARK    1  A    between atoms: C_1  and  C_2
REMARK    2  A    between atoms: C_2  and  C_4
REMARK    3  A    between atoms: C_5  and  O_6
REMARK    4  A    between atoms: C_8  and  O_9
REMARK    5  A    between atoms: C_8  and  N_10
REMARK    6  A    between atoms: N_10  and  C_11
REMARK    7  A    between atoms: C_15  and  N_16
REMARK                            x       y       z     vdW  Elec       q    Type
REMARK                         _______ _______ _______ _____ _____    ______ ____
ROOT
ATOM      1  C   UNL     1       0.896   9.754  21.114  0.00  0.00    +0.000 C 
ATOM      2  C   UNL     1       1.371   8.530  20.833  0.00  0.00    +0.000 C 
ATOM      3  C   UNL     1       1.904   8.199  19.519  0.00  0.00    +0.000 C 
ATOM      4  C   UNL     1       2.476   7.006  19.197  0.00  0.00    +0.000 C 
ATOM      5  C   UNL     1       1.760   9.233  18.456  0.00  0.00    +0.000 C 
ATOM      6  O   UNL     1       1.934   9.028  17.260  0.00  0.00    +0.000 OA
ATOM      7  O   UNL     1       1.369  10.469  18.840  0.00  0.00    +0.000 OA
ATOM      8  C   UNL     1       0.952  10.785  20.076  0.00  0.00    +0.000 C 
ATOM      9  O   UNL     1       0.618  11.938  20.328  0.00  0.00    +0.000 OA
ENDROOT
BRANCH   1  11
ATOM     10  C   UNL     1      -1.024  10.596  22.669  0.00  0.00    +0.000 C 
ATOM     11  C   UNL     1       0.357  10.019  22.486  0.00  0.00    +0.000 C 
ATOM     12  O   UNL     1       1.025   9.675  23.469  0.00  0.00    +0.000 OA
ENDBRANCH   1  11
BRANCH   2  13
ATOM     13  O   UNL     1       1.403   7.491  21.759  0.00  0.00    +0.000 OA
ATOM     14  H   UNL     1       0.746   6.802  21.492  0.00  0.00    +0.000 HD
ENDBRANCH   2  13
BRANCH   4  15
ATOM     15  O   UNL     1       2.510   5.942  20.081  0.00  0.00    +0.000 OA
ATOM     16  H   UNL     1       3.211   6.121  20.741  0.00  0.00    +0.000 HD
ENDBRANCH   4  15
BRANCH   4  17
ATOM     17  N   UNL     1       3.055   6.660  17.992  0.00  0.00    +0.000 N 
ATOM     18  H   UNL     1       2.370   6.147  17.438  0.00  0.00    +0.000 HD
BRANCH  17  19
ATOM     19  C   UNL     1       4.277   5.925  17.903  0.00  0.00    +0.000 A 
ATOM     20  C   UNL     1       5.256   5.948  18.901  0.00  0.00    +0.000 A 
ATOM     21  C   UNL     1       6.439   5.225  18.749  0.00  0.00    +0.000 A 
ATOM     22  C   UNL     1       6.674   4.491  17.585  0.00  0.00    +0.000 A 
ATOM     23  C   UNL     1       5.727   4.469  16.561  0.00  0.00    +0.000 A 
ATOM     24  C   UNL     1       4.530   5.183  16.733  0.00  0.00    +0.000 A 
BRANCH  23  25
ATOM     25  N   UNL     1       5.919   3.776  15.345  0.00  0.00    +0.000 N 
ATOM     26  C   UNL     1       6.545   4.235  14.216  0.00  0.00    +0.000 C 
ATOM     27  N   UNL     1       6.515   3.323  13.201  0.00  0.00    +0.000 N 
ATOM     28  O   UNL     1       7.106   5.305  14.033  0.00  0.00    +0.000 OA
ATOM     29  H   UNL     1       5.616   2.814  15.315  0.00  0.00    +0.000 HD
ATOM     30  H   UNL     1       5.658   2.811  13.065  0.00  0.00    +0.000 HD
ATOM     31  H   UNL     1       6.908   3.700  12.344  0.00  0.00    +0.000 HD
ENDBRANCH  23  25
ENDBRANCH  17  19
ENDBRANCH   4  17
TORSDOF 6
ENDMDL
MODEL 9
REMARK VINA RESULT:      -7.3      3.052      8.246
REMARK  Name = 
REMARK  7 active torsions:
REMARK  status: ('A' for Active; 'I' for Inactive)
REMARK    1  A    between atoms: C_1  and  C_2
REMARK    2  A    between atoms: C_2  and  C_4
REMARK    3  A    between atoms: C_5  and  O_6
REMARK    4  A    between atoms: C_8  and  O_9
REMARK    5  A    between atoms: C_8  and  N_10
REMARK    6  A    between atoms: N_10  and  C_11
REMARK    7  A    between atoms: C_15  and  N_16
REMARK                            x       y       z     vdW  Elec       q    Type
REMARK                         _______ _______ _______ _____ _____    ______ ____
ROOT
ATOM      1  C   UNL     1       3.201   3.983  19.318  0.00  0.00    +0.000 C 
ATOM      2  C   UNL     1       2.740   5.086  19.931  0.00  0.00    +0.000 C 
ATOM      3  C   UNL     1       2.708   6.378  19.261  0.00  0.00    +0.000 C 
ATOM      4  C   UNL     1       2.177   7.511  19.796  0.00  0.00    +0.000 C 
ATOM      5  C   UNL     1       3.350   6.453  17.918  0.00  0.00    +0.000 C 
ATOM      6  O   UNL     1       3.618   7.498  17.335  0.00  0.00    +0.000 OA
ATOM      7  O   UNL     1       3.697   5.288  17.328  0.00  0.00    +0.000 OA
ATOM      8  C   UNL     1       3.649   4.088  17.929  0.00  0.00    +0.000 C 
ATOM      9  O   UNL     1       3.984   3.084  17.308  0.00  0.00    +0.000 OA
ENDROOT
BRANCH   1  11
ATOM     10  C   UNL     1       4.511   2.025  20.442  0.00  0.00    +0.000 C 
ATOM     11  C   UNL     1       3.209   2.690  20.074  0.00  0.00    +0.000 C 
ATOM     12  O   UNL     1       2.136   2.220  20.469  0.00  0.00    +0.000 OA
ENDBRANCH   1  11
BRANCH   2  13
ATOM     13  O   UNL     1       2.252   5.087  21.236  0.00  0.00    +0.000 OA
ATOM     14  H   UNL     1       1.293   5.328  21.219  0.00  0.00    +0.000 HD
ENDBRANCH   2  13
BRANCH   4  15
ATOM     15  O   UNL     1       1.700   7.560  21.094  0.00  0.00    +0.000 OA
ATOM     16  H   UNL     1       1.751   6.657  21.468  0.00  0.00    +0.000 HD
ENDBRANCH   4  15
BRANCH   4  17
ATOM     17  N   UNL     1       2.060   8.744  19.184  0.00  0.00    +0.000 N 
ATOM     18  H   UNL     1       2.898   9.288  19.389  0.00  0.00    +0.000 HD
BRANCH  17  19
ATOM     19  C   UNL     1       0.950   9.615  19.404  0.00  0.00    +0.000 A 
ATOM     20  C   UNL     1       0.514   9.990  20.678  0.00  0.00    +0.000 A 
ATOM     21  C   UNL     1      -0.590  10.828  20.831  0.00  0.00    +0.000 A 
ATOM     22  C   UNL     1      -1.293  11.281  19.714  0.00  0.00    +0.000 A 
ATOM     23  C   UNL     1      -0.899  10.904  18.431  0.00  0.00    +0.000 A 
ATOM     24  C   UNL     1       0.228  10.077  18.287  0.00  0.00    +0.000 A 
BRANCH  23  25
ATOM     25  N   UNL     1      -1.588  11.298  17.262  0.00  0.00    +0.000 N 
ATOM     26  C   UNL     1      -2.683  10.696  16.699  0.00  0.00    +0.000 C 
ATOM     27  N   UNL     1      -3.072  11.307  15.543  0.00  0.00    +0.000 N 
ATOM     28  O   UNL     1      -3.320   9.735  17.103  0.00  0.00    +0.000 OA
ATOM     29  H   UNL     1      -1.282  12.151  16.817  0.00  0.00    +0.000 HD
ATOM     30  H   UNL     1      -2.346  11.604  14.911  0.00  0.00    +0.000 HD
ATOM     31  H   UNL     1      -3.831  10.809  15.090  0.00  0.00    +0.000 HD
ENDBRANCH  23  25
ENDBRANCH  17  19
ENDBRANCH   4  17
TORSDOF 6
ENDMDL
