MODEL 1
REMARK VINA RESULT:      -6.2      0.000      0.000
REMARK  Name = 
REMARK  14 active torsions:
REMARK  status: ('A' for Active; 'I' for Inactive)
REMARK    1  A    between atoms: C_1  and  C_2
REMARK    2  A    between atoms: C_2  and  C_3
REMARK    3  A    between atoms: C_2  and  C_4
REMARK    4  A    between atoms: C_4  and  N_5
REMARK    5  A    between atoms: N_5  and  C_6
REMARK    6  A    between atoms: N_5  and  C_10
REMARK    7  A    between atoms: C_6  and  C_7
REMARK    8  A    between atoms: C_7  and  C_8
REMARK    9  A    between atoms: C_7  and  C_9
REMARK   10  A    between atoms: C_10  and  C_11
REMARK   11  A    between atoms: C_11  and  O_12
REMARK   12  A    between atoms: C_11  and  C_13
REMARK   13  A    between atoms: C_13  and  O_14
REMARK   14  A    between atoms: O_14  and  C_15
REMARK                            x       y       z     vdW  Elec       q    Type
REMARK                         _______ _______ _______ _____ _____    ______ ____
ROOT
ATOM      1  C   UNL     1       6.215   4.913  17.861  0.00  0.00    +0.000 C 
ENDROOT
BRANCH   1   2
ATOM      2  O   UNL     1       7.480   4.243  17.956  0.00  0.00    +0.000 OA
ATOM      3  H   UNL     1       7.424   3.416  17.451  0.00  0.00    +0.000 HD
ENDBRANCH   1   2
BRANCH   1   4
ATOM      4  C   UNL     1       5.041   3.889  17.853  0.00  0.00    +0.000 C 
BRANCH   4   5
ATOM      5  N   UNL     1       3.961   4.123  18.829  0.00  0.00    +0.000 NA
BRANCH   5   6
ATOM      6  C   UNL     1       3.937   3.129  19.911  0.00  0.00    +0.000 C 
BRANCH   6   8
ATOM      7  C   UNL     1       1.650   3.317  21.050  0.00  0.00    +0.000 C 
ATOM      8  C   UNL     1       2.569   2.453  20.184  0.00  0.00    +0.000 C 
ATOM      9  C   UNL     1       1.881   2.136  18.851  0.00  0.00    +0.000 C 
ENDBRANCH   6   8
ENDBRANCH   5   6
BRANCH   5  10
ATOM     10  C   UNL     1       3.850   5.527  19.259  0.00  0.00    +0.000 C 
BRANCH  10  11
ATOM     11  C   UNL     1       2.719   6.461  18.744  0.00  0.00    +0.000 C 
ATOM     12  C   UNL     1       3.196   7.628  17.876  0.00  0.00    +0.000 C 
ATOM     13  C   UNL     1       1.731   5.606  17.929  0.00  0.00    +0.000 C 
ENDBRANCH  10  11
ENDBRANCH   5  10
ENDBRANCH   4   5
ENDBRANCH   1   4
BRANCH   1  14
ATOM     14  C   UNL     1       6.162   5.748  16.566  0.00  0.00    +0.000 C 
BRANCH  14  15
ATOM     15  O   UNL     1       7.299   5.461  15.743  0.00  0.00    +0.000 OA
BRANCH  15  16
ATOM     16  C   UNL     1       7.022   4.896  14.525  0.00  0.00    +0.000 A 
ATOM     17  C   UNL     1       7.816   5.333  13.465  0.00  0.00    +0.000 A 
ATOM     18  C   UNL     1       7.618   4.829  12.181  0.00  0.00    +0.000 A 
ATOM     19  C   UNL     1       6.633   3.876  11.943  0.00  0.00    +0.000 A 
ATOM     20  C   UNL     1       5.853   3.418  13.001  0.00  0.00    +0.000 A 
ATOM     21  C   UNL     1       6.047   3.924  14.291  0.00  0.00    +0.000 A 
ENDBRANCH  15  16
ENDBRANCH  14  15
ENDBRANCH   1  14
TORSDOF 10
ENDMDL
MODEL 2
REMARK VINA RESULT:      -6.0      2.413      6.107
REMARK  Name = 
REMARK  14 active torsions:
REMARK  status: ('A' for Active; 'I' for Inactive)
REMARK    1  A    between atoms: C_1  and  C_2
REMARK    2  A    between atoms: C_2  and  C_3
REMARK    3  A    between atoms: C_2  and  C_4
REMARK    4  A    between atoms: C_4  and  N_5
REMARK    5  A    between atoms: N_5  and  C_6
REMARK    6  A    between atoms: N_5  and  C_10
REMARK    7  A    between atoms: C_6  and  C_7
REMARK    8  A    between atoms: C_7  and  C_8
REMARK    9  A    between atoms: C_7  and  C_9
REMARK   10  A    between atoms: C_10  and  C_11
REMARK   11  A    between atoms: C_11  and  O_12
REMARK   12  A    between atoms: C_11  and  C_13
REMARK   13  A    between atoms: C_13  and  O_14
REMARK   14  A    between atoms: O_14  and  C_15
REMARK                            x       y       z     vdW  Elec       q    Type
REMARK                         _______ _______ _______ _____ _____    ______ ____
ROOT
ATOM      1  C   UNL     1       4.920   3.904  16.190  0.00  0.00    +0.000 C 
ENDROOT
BRANCH   1   2
ATOM      2  O   UNL     1       6.217   3.395  15.852  0.00  0.00    +0.000 OA
ATOM      3  H   UNL     1       6.772   4.140  15.572  0.00  0.00    +0.000 HD
ENDBRANCH   1   2
BRANCH   1   4
ATOM      4  C   UNL     1       4.838   5.437  15.930  0.00  0.00    +0.000 C 
BRANCH   4   5
ATOM      5  N   UNL     1       5.123   6.313  17.082  0.00  0.00    +0.000 NA
BRANCH   5   6
ATOM      6  C   UNL     1       6.509   6.800  17.105  0.00  0.00    +0.000 C 
BRANCH   6   8
ATOM      7  C   UNL     1       7.950   5.139  18.419  0.00  0.00    +0.000 C 
ATOM      8  C   UNL     1       7.306   6.527  18.406  0.00  0.00    +0.000 C 
ATOM      9  C   UNL     1       8.386   7.602  18.578  0.00  0.00    +0.000 C 
ENDBRANCH   6   8
ENDBRANCH   5   6
BRANCH   5  10
ATOM     10  C   UNL     1       4.090   7.335  17.315  0.00  0.00    +0.000 C 
BRANCH  10  11
ATOM     11  C   UNL     1       2.730   6.995  17.987  0.00  0.00    +0.000 C 
ATOM     12  C   UNL     1       2.837   6.468  19.421  0.00  0.00    +0.000 C 
ATOM     13  C   UNL     1       1.869   8.271  17.989  0.00  0.00    +0.000 C 
ENDBRANCH  10  11
ENDBRANCH   5  10
ENDBRANCH   4   5
ENDBRANCH   1   4
BRANCH   1  14
ATOM     14  C   UNL     1       4.623   3.630  17.678  0.00  0.00    +0.000 C 
BRANCH  14  15
ATOM     15  O   UNL     1       3.510   2.737  17.807  0.00  0.00    +0.000 OA
BRANCH  15  16
ATOM     16  C   UNL     1       2.822   2.813  18.989  0.00  0.00    +0.000 A 
ATOM     17  C   UNL     1       1.451   3.037  18.874  0.00  0.00    +0.000 A 
ATOM     18  C   UNL     1       0.654   3.138  20.014  0.00  0.00    +0.000 A 
ATOM     19  C   UNL     1       1.215   3.004  21.279  0.00  0.00    +0.000 A 
ATOM     20  C   UNL     1       2.580   2.757  21.400  0.00  0.00    +0.000 A 
ATOM     21  C   UNL     1       3.383   2.659  20.259  0.00  0.00    +0.000 A 
ENDBRANCH  15  16
ENDBRANCH  14  15
ENDBRANCH   1  14
TORSDOF 10
ENDMDL
MODEL 3
REMARK VINA RESULT:      -6.0      0.941      1.278
REMARK  Name = 
REMARK  14 active torsions:
REMARK  status: ('A' for Active; 'I' for Inactive)
REMARK    1  A    between atoms: C_1  and  C_2
REMARK    2  A    between atoms: C_2  and  C_3
REMARK    3  A    between atoms: C_2  and  C_4
REMARK    4  A    between atoms: C_4  and  N_5
REMARK    5  A    between atoms: N_5  and  C_6
REMARK    6  A    between atoms: N_5  and  C_10
REMARK    7  A    between atoms: C_6  and  C_7
REMARK    8  A    between atoms: C_7  and  C_8
REMARK    9  A    between atoms: C_7  and  C_9
REMARK   10  A    between atoms: C_10  and  C_11
REMARK   11  A    between atoms: C_11  and  O_12
REMARK   12  A    between atoms: C_11  and  C_13
REMARK   13  A    between atoms: C_13  and  O_14
REMARK   14  A    between atoms: O_14  and  C_15
REMARK                            x       y       z     vdW  Elec       q    Type
REMARK                         _______ _______ _______ _____ _____    ______ ____
ROOT
ATOM      1  C   UNL     1       6.114   4.956  17.959  0.00  0.00    +0.000 C 
ENDROOT
BRANCH   1   2
ATOM      2  O   UNL     1       6.527   4.602  19.286  0.00  0.00    +0.000 OA
ATOM      3  H   UNL     1       7.066   5.327  19.640  0.00  0.00    +0.000 HD
ENDBRANCH   1   2
BRANCH   1   4
ATOM      4  C   UNL     1       4.754   4.286  17.602  0.00  0.00    +0.000 C 
BRANCH   4   5
ATOM      5  N   UNL     1       3.633   4.547  18.524  0.00  0.00    +0.000 NA
BRANCH   5   6
ATOM      6  C   UNL     1       3.433   3.472  19.505  0.00  0.00    +0.000 C 
BRANCH   6   8
ATOM      7  C   UNL     1       0.944   3.808  20.011  0.00  0.00    +0.000 C 
ATOM      8  C   UNL     1       2.358   3.731  20.591  0.00  0.00    +0.000 C 
ATOM      9  C   UNL     1       2.425   2.625  21.651  0.00  0.00    +0.000 C 
ENDBRANCH   6   8
ENDBRANCH   5   6
BRANCH   5  10
ATOM     10  C   UNL     1       3.628   5.913  19.074  0.00  0.00    +0.000 C 
BRANCH  10  11
ATOM     11  C   UNL     1       2.477   6.916  18.782  0.00  0.00    +0.000 C 
ATOM     12  C   UNL     1       1.938   7.650  20.013  0.00  0.00    +0.000 C 
ATOM     13  C   UNL     1       2.995   7.953  17.770  0.00  0.00    +0.000 C 
ENDBRANCH  10  11
ENDBRANCH   5  10
ENDBRANCH   4   5
ENDBRANCH   1   4
BRANCH   1  14
ATOM     14  C   UNL     1       7.180   4.503  16.942  0.00  0.00    +0.000 C 
BRANCH  14  15
ATOM     15  O   UNL     1       7.241   5.421  15.843  0.00  0.00    +0.000 OA
BRANCH  15  16
ATOM     16  C   UNL     1       6.968   4.889  14.611  0.00  0.00    +0.000 A 
ATOM     17  C   UNL     1       7.757   5.363  13.563  0.00  0.00    +0.000 A 
ATOM     18  C   UNL     1       7.563   4.894  12.265  0.00  0.00    +0.000 A 
ATOM     19  C   UNL     1       6.586   3.940  12.000  0.00  0.00    +0.000 A 
ATOM     20  C   UNL     1       5.812   3.445  13.046  0.00  0.00    +0.000 A 
ATOM     21  C   UNL     1       6.001   3.916  14.349  0.00  0.00    +0.000 A 
ENDBRANCH  15  16
ENDBRANCH  14  15
ENDBRANCH   1  14
TORSDOF 10
ENDMDL
MODEL 4
REMARK VINA RESULT:      -5.9      1.075      1.622
REMARK  Name = 
REMARK  14 active torsions:
REMARK  status: ('A' for Active; 'I' for Inactive)
REMARK    1  A    between atoms: C_1  and  C_2
REMARK    2  A    between atoms: C_2  and  C_3
REMARK    3  A    between atoms: C_2  and  C_4
REMARK    4  A    between atoms: C_4  and  N_5
REMARK    5  A    between atoms: N_5  and  C_6
REMARK    6  A    between atoms: N_5  and  C_10
REMARK    7  A    between atoms: C_6  and  C_7
REMARK    8  A    between atoms: C_7  and  C_8
REMARK    9  A    between atoms: C_7  and  C_9
REMARK   10  A    between atoms: C_10  and  C_11
REMARK   11  A    between atoms: C_11  and  O_12
REMARK   12  A    between atoms: C_11  and  C_13
REMARK   13  A    between atoms: C_13  and  O_14
REMARK   14  A    between atoms: O_14  and  C_15
REMARK                            x       y       z     vdW  Elec       q    Type
REMARK                         _______ _______ _______ _____ _____    ______ ____
ROOT
ATOM      1  C   UNL     1       5.528   5.909  17.015  0.00  0.00    +0.000 C 
ENDROOT
BRANCH   1   2
ATOM      2  O   UNL     1       6.178   7.186  16.964  0.00  0.00    +0.000 OA
ATOM      3  H   UNL     1       5.932   7.619  16.132  0.00  0.00    +0.000 HD
ENDBRANCH   1   2
BRANCH   1   4
ATOM      4  C   UNL     1       4.828   5.695  18.390  0.00  0.00    +0.000 C 
BRANCH   4   5
ATOM      5  N   UNL     1       3.485   5.088  18.353  0.00  0.00    +0.000 NA
BRANCH   5   6
ATOM      6  C   UNL     1       3.285   4.067  19.389  0.00  0.00    +0.000 C 
BRANCH   6   8
ATOM      7  C   UNL     1       1.323   2.491  18.909  0.00  0.00    +0.000 C 
ATOM      8  C   UNL     1       1.813   3.699  19.710  0.00  0.00    +0.000 C 
ATOM      9  C   UNL     1       1.673   3.420  21.211  0.00  0.00    +0.000 C 
ENDBRANCH   6   8
ENDBRANCH   5   6
BRANCH   5  10
ATOM     10  C   UNL     1       2.398   6.072  18.218  0.00  0.00    +0.000 C 
BRANCH  10  11
ATOM     11  C   UNL     1       2.539   7.533  18.730  0.00  0.00    +0.000 C 
ATOM     12  C   UNL     1       1.901   8.594  17.828  0.00  0.00    +0.000 C 
ATOM     13  C   UNL     1       1.893   7.613  20.125  0.00  0.00    +0.000 C 
ENDBRANCH  10  11
ENDBRANCH   5  10
ENDBRANCH   4   5
ENDBRANCH   1   4
BRANCH   1  14
ATOM     14  C   UNL     1       6.564   4.787  16.798  0.00  0.00    +0.000 C 
BRANCH  14  15
ATOM     15  O   UNL     1       7.467   5.141  15.743  0.00  0.00    +0.000 OA
BRANCH  15  16
ATOM     16  C   UNL     1       7.116   4.708  14.492  0.00  0.00    +0.000 A 
ATOM     17  C   UNL     1       7.866   5.234  13.441  0.00  0.00    +0.000 A 
ATOM     18  C   UNL     1       7.592   4.865  12.124  0.00  0.00    +0.000 A 
ATOM     19  C   UNL     1       6.575   3.960  11.845  0.00  0.00    +0.000 A 
ATOM     20  C   UNL     1       5.838   3.413  12.892  0.00  0.00    +0.000 A 
ATOM     21  C   UNL     1       6.107   3.783  14.213  0.00  0.00    +0.000 A 
ENDBRANCH  15  16
ENDBRANCH  14  15
ENDBRANCH   1  14
TORSDOF 10
ENDMDL
MODEL 5
REMARK VINA RESULT:      -5.9      2.118      3.789
REMARK  Name = 
REMARK  14 active torsions:
REMARK  status: ('A' for Active; 'I' for Inactive)
REMARK    1  A    between atoms: C_1  and  C_2
REMARK    2  A    between atoms: C_2  and  C_3
REMARK    3  A    between atoms: C_2  and  C_4
REMARK    4  A    between atoms: C_4  and  N_5
REMARK    5  A    between atoms: N_5  and  C_6
REMARK    6  A    between atoms: N_5  and  C_10
REMARK    7  A    between atoms: C_6  and  C_7
REMARK    8  A    between atoms: C_7  and  C_8
REMARK    9  A    between atoms: C_7  and  C_9
REMARK   10  A    between atoms: C_10  and  C_11
REMARK   11  A    between atoms: C_11  and  O_12
REMARK   12  A    between atoms: C_11  and  C_13
REMARK   13  A    between atoms: C_13  and  O_14
REMARK   14  A    between atoms: O_14  and  C_15
REMARK                            x       y       z     vdW  Elec       q    Type
REMARK                         _______ _______ _______ _____ _____    ______ ____
ROOT
ATOM      1  C   UNL     1       2.476   7.273  18.323  0.00  0.00    +0.000 C 
ENDROOT
BRANCH   1   2
ATOM      2  O   UNL     1       2.187   8.594  18.801  0.00  0.00    +0.000 OA
ATOM      3  H   UNL     1       1.279   8.600  19.144  0.00  0.00    +0.000 HD
ENDBRANCH   1   2
BRANCH   1   4
ATOM      4  C   UNL     1       3.140   6.410  19.437  0.00  0.00    +0.000 C 
BRANCH   4   5
ATOM      5  N   UNL     1       2.696   5.007  19.529  0.00  0.00    +0.000 NA
BRANCH   5   6
ATOM      6  C   UNL     1       3.810   4.049  19.520  0.00  0.00    +0.000 C 
BRANCH   6   8
ATOM      7  C   UNL     1       3.751   1.704  18.489  0.00  0.00    +0.000 C 
ATOM      8  C   UNL     1       3.967   3.198  18.234  0.00  0.00    +0.000 C 
ATOM      9  C   UNL     1       2.978   3.692  17.171  0.00  0.00    +0.000 C 
ENDBRANCH   6   8
ENDBRANCH   5   6
BRANCH   5  10
ATOM     10  C   UNL     1       1.676   4.778  20.565  0.00  0.00    +0.000 C 
BRANCH  10  11
ATOM     11  C   UNL     1       0.898   3.437  20.676  0.00  0.00    +0.000 C 
ATOM     12  C   UNL     1       0.509   2.808  19.335  0.00  0.00    +0.000 C 
ATOM     13  C   UNL     1       1.775   2.441  21.456  0.00  0.00    +0.000 C 
ENDBRANCH  10  11
ENDBRANCH   5  10
ENDBRANCH   4   5
ENDBRANCH   1   4
BRANCH   1  14
ATOM     14  C   UNL     1       3.430   7.352  17.113  0.00  0.00    +0.000 C 
BRANCH  14  15
ATOM     15  O   UNL     1       4.792   7.258  17.547  0.00  0.00    +0.000 OA
BRANCH  15  16
ATOM     16  C   UNL     1       5.550   6.306  16.919  0.00  0.00    +0.000 A 
ATOM     17  C   UNL     1       5.210   6.044  15.592  0.00  0.00    +0.000 A 
ATOM     18  C   UNL     1       5.912   5.089  14.859  0.00  0.00    +0.000 A 
ATOM     19  C   UNL     1       6.969   4.394  15.438  0.00  0.00    +0.000 A 
ATOM     20  C   UNL     1       7.329   4.669  16.754  0.00  0.00    +0.000 A 
ATOM     21  C   UNL     1       6.625   5.623  17.494  0.00  0.00    +0.000 A 
ENDBRANCH  15  16
ENDBRANCH  14  15
ENDBRANCH   1  14
TORSDOF 10
ENDMDL
MODEL 6
REMARK VINA RESULT:      -5.8      2.318      3.598
REMARK  Name = 
REMARK  14 active torsions:
REMARK  status: ('A' for Active; 'I' for Inactive)
REMARK    1  A    between atoms: C_1  and  C_2
REMARK    2  A    between atoms: C_2  and  C_3
REMARK    3  A    between atoms: C_2  and  C_4
REMARK    4  A    between atoms: C_4  and  N_5
REMARK    5  A    between atoms: N_5  and  C_6
REMARK    6  A    between atoms: N_5  and  C_10
REMARK    7  A    between atoms: C_6  and  C_7
REMARK    8  A    between atoms: C_7  and  C_8
REMARK    9  A    between atoms: C_7  and  C_9
REMARK   10  A    between atoms: C_10  and  C_11
REMARK   11  A    between atoms: C_11  and  O_12
REMARK   12  A    between atoms: C_11  and  C_13
REMARK   13  A    between atoms: C_13  and  O_14
REMARK   14  A    between atoms: O_14  and  C_15
REMARK                            x       y       z     vdW  Elec       q    Type
REMARK                         _______ _______ _______ _____ _____    ______ ____
ROOT
ATOM      1  C   UNL     1       4.214   3.465  17.594  0.00  0.00    +0.000 C 
ENDROOT
BRANCH   1   2
ATOM      2  O   UNL     1       3.015   2.821  17.142  0.00  0.00    +0.000 OA
ATOM      3  H   UNL     1       2.563   3.419  16.526  0.00  0.00    +0.000 HD
ENDBRANCH   1   2
BRANCH   1   4
ATOM      4  C   UNL     1       3.901   4.506  18.710  0.00  0.00    +0.000 C 
BRANCH   4   5
ATOM      5  N   UNL     1       2.482   4.867  18.888  0.00  0.00    +0.000 NA
BRANCH   5   6
ATOM      6  C   UNL     1       2.063   4.878  20.296  0.00  0.00    +0.000 C 
BRANCH   6   8
ATOM      7  C   UNL     1       0.653   2.861  19.584  0.00  0.00    +0.000 C 
ATOM      8  C   UNL     1       1.195   3.679  20.758  0.00  0.00    +0.000 C 
ATOM      9  C   UNL     1       2.023   2.777  21.682  0.00  0.00    +0.000 C 
ENDBRANCH   6   8
ENDBRANCH   5   6
BRANCH   5  10
ATOM     10  C   UNL     1       2.069   6.038  18.097  0.00  0.00    +0.000 C 
BRANCH  10  11
ATOM     11  C   UNL     1       2.756   7.424  18.253  0.00  0.00    +0.000 C 
ATOM     12  C   UNL     1       3.915   7.678  17.285  0.00  0.00    +0.000 C 
ATOM     13  C   UNL     1       1.687   8.512  18.047  0.00  0.00    +0.000 C 
ENDBRANCH  10  11
ENDBRANCH   5  10
ENDBRANCH   4   5
ENDBRANCH   1   4
BRANCH   1  14
ATOM     14  C   UNL     1       4.897   4.185  16.414  0.00  0.00    +0.000 C 
BRANCH  14  15
ATOM     15  O   UNL     1       6.321   4.077  16.522  0.00  0.00    +0.000 OA
BRANCH  15  16
ATOM     16  C   UNL     1       6.937   5.060  17.251  0.00  0.00    +0.000 A 
ATOM     17  C   UNL     1       6.995   6.314  16.643  0.00  0.00    +0.000 A 
ATOM     18  C   UNL     1       7.604   7.387  17.293  0.00  0.00    +0.000 A 
ATOM     19  C   UNL     1       8.151   7.222  18.561  0.00  0.00    +0.000 A 
ATOM     20  C   UNL     1       8.075   5.979  19.183  0.00  0.00    +0.000 A 
ATOM     21  C   UNL     1       7.468   4.900  18.533  0.00  0.00    +0.000 A 
ENDBRANCH  15  16
ENDBRANCH  14  15
ENDBRANCH   1  14
TORSDOF 10
ENDMDL
MODEL 7
REMARK VINA RESULT:      -5.8      2.652      3.744
REMARK  Name = 
REMARK  14 active torsions:
REMARK  status: ('A' for Active; 'I' for Inactive)
REMARK    1  A    between atoms: C_1  and  C_2
REMARK    2  A    between atoms: C_2  and  C_3
REMARK    3  A    between atoms: C_2  and  C_4
REMARK    4  A    between atoms: C_4  and  N_5
REMARK    5  A    between atoms: N_5  and  C_6
REMARK    6  A    between atoms: N_5  and  C_10
REMARK    7  A    between atoms: C_6  and  C_7
REMARK    8  A    between atoms: C_7  and  C_8
REMARK    9  A    between atoms: C_7  and  C_9
REMARK   10  A    between atoms: C_10  and  C_11
REMARK   11  A    between atoms: C_11  and  O_12
REMARK   12  A    between atoms: C_11  and  C_13
REMARK   13  A    between atoms: C_13  and  O_14
REMARK   14  A    between atoms: O_14  and  C_15
REMARK                            x       y       z     vdW  Elec       q    Type
REMARK                         _______ _______ _______ _____ _____    ______ ____
ROOT
ATOM      1  C   UNL     1       4.088   3.076  17.840  0.00  0.00    +0.000 C 
ENDROOT
BRANCH   1   2
ATOM      2  O   UNL     1       4.058   1.653  17.662  0.00  0.00    +0.000 OA
ATOM      3  H   UNL     1       4.398   1.239  18.471  0.00  0.00    +0.000 HD
ENDBRANCH   1   2
BRANCH   1   4
ATOM      4  C   UNL     1       2.695   3.705  17.539  0.00  0.00    +0.000 C 
BRANCH   4   5
ATOM      5  N   UNL     1       2.114   4.546  18.602  0.00  0.00    +0.000 NA
BRANCH   5   6
ATOM      6  C   UNL     1       2.798   4.396  19.893  0.00  0.00    +0.000 C 
BRANCH   6   8
ATOM      7  C   UNL     1       0.626   3.197  20.530  0.00  0.00    +0.000 C 
ATOM      8  C   UNL     1       1.996   3.679  21.010  0.00  0.00    +0.000 C 
ATOM      9  C   UNL     1       2.809   2.491  21.539  0.00  0.00    +0.000 C 
ENDBRANCH   6   8
ENDBRANCH   5   6
BRANCH   5  10
ATOM     10  C   UNL     1       1.857   5.934  18.181  0.00  0.00    +0.000 C 
BRANCH  10  11
ATOM     11  C   UNL     1       2.692   7.128  18.723  0.00  0.00    +0.000 C 
ATOM     12  C   UNL     1       2.970   8.233  17.699  0.00  0.00    +0.000 C 
ATOM     13  C   UNL     1       1.934   7.735  19.917  0.00  0.00    +0.000 C 
ENDBRANCH  10  11
ENDBRANCH   5  10
ENDBRANCH   4   5
ENDBRANCH   1   4
BRANCH   1  14
ATOM     14  C   UNL     1       5.135   3.698  16.894  0.00  0.00    +0.000 C 
BRANCH  14  15
ATOM     15  O   UNL     1       4.997   5.124  16.868  0.00  0.00    +0.000 OA
BRANCH  15  16
ATOM     16  C   UNL     1       6.040   5.830  17.406  0.00  0.00    +0.000 A 
ATOM     17  C   UNL     1       6.689   5.223  18.481  0.00  0.00    +0.000 A 
ATOM     18  C   UNL     1       7.761   5.855  19.108  0.00  0.00    +0.000 A 
ATOM     19  C   UNL     1       8.205   7.095  18.661  0.00  0.00    +0.000 A 
ATOM     20  C   UNL     1       7.578   7.696  17.573  0.00  0.00    +0.000 A 
ATOM     21  C   UNL     1       6.499   7.066  16.944  0.00  0.00    +0.000 A 
ENDBRANCH  15  16
ENDBRANCH  14  15
ENDBRANCH   1  14
TORSDOF 10
ENDMDL
MODEL 8
REMARK VINA RESULT:      -5.8      2.368      5.948
REMARK  Name = 
REMARK  14 active torsions:
REMARK  status: ('A' for Active; 'I' for Inactive)
REMARK    1  A    between atoms: C_1  and  C_2
REMARK    2  A    between atoms: C_2  and  C_3
REMARK    3  A    between atoms: C_2  and  C_4
REMARK    4  A    between atoms: C_4  and  N_5
REMARK    5  A    between atoms: N_5  and  C_6
REMARK    6  A    between atoms: N_5  and  C_10
REMARK    7  A    between atoms: C_6  and  C_7
REMARK    8  A    between atoms: C_7  and  C_8
REMARK    9  A    between atoms: C_7  and  C_9
REMARK   10  A    between atoms: C_10  and  C_11
REMARK   11  A    between atoms: C_11  and  O_12
REMARK   12  A    between atoms: C_11  and  C_13
REMARK   13  A    between atoms: C_13  and  O_14
REMARK   14  A    between atoms: O_14  and  C_15
REMARK                            x       y       z     vdW  Elec       q    Type
REMARK                         _______ _______ _______ _____ _____    ______ ____
ROOT
ATOM      1  C   UNL     1       5.013   3.882  16.113  0.00  0.00    +0.000 C 
ENDROOT
BRANCH   1   2
ATOM      2  O   UNL     1       6.145   3.233  15.517  0.00  0.00    +0.000 OA
ATOM      3  H   UNL     1       6.801   3.067  16.213  0.00  0.00    +0.000 HD
ENDBRANCH   1   2
BRANCH   1   4
ATOM      4  C   UNL     1       5.275   5.407  16.291  0.00  0.00    +0.000 C 
BRANCH   4   5
ATOM      5  N   UNL     1       4.765   6.019  17.532  0.00  0.00    +0.000 NA
BRANCH   5   6
ATOM      6  C   UNL     1       5.789   6.140  18.578  0.00  0.00    +0.000 C 
BRANCH   6   8
ATOM      7  C   UNL     1       7.628   7.647  17.625  0.00  0.00    +0.000 C 
ATOM      8  C   UNL     1       7.256   6.237  18.087  0.00  0.00    +0.000 C 
ATOM      9  C   UNL     1       8.200   5.792  19.211  0.00  0.00    +0.000 C 
ENDBRANCH   6   8
ENDBRANCH   5   6
BRANCH   5  10
ATOM     10  C   UNL     1       3.950   7.224  17.303  0.00  0.00    +0.000 C 
BRANCH  10  11
ATOM     11  C   UNL     1       2.892   7.712  18.333  0.00  0.00    +0.000 C 
ATOM     12  C   UNL     1       1.834   8.661  17.764  0.00  0.00    +0.000 C 
ATOM     13  C   UNL     1       2.188   6.473  18.915  0.00  0.00    +0.000 C 
ENDBRANCH  10  11
ENDBRANCH   5  10
ENDBRANCH   4   5
ENDBRANCH   1   4
BRANCH   1  14
ATOM     14  C   UNL     1       4.720   3.259  17.492  0.00  0.00    +0.000 C 
BRANCH  14  15
ATOM     15  O   UNL     1       3.379   2.757  17.536  0.00  0.00    +0.000 OA
BRANCH  15  16
ATOM     16  C   UNL     1       2.764   2.812  18.759  0.00  0.00    +0.000 A 
ATOM     17  C   UNL     1       1.374   2.923  18.730  0.00  0.00    +0.000 A 
ATOM     18  C   UNL     1       0.646   2.993  19.917  0.00  0.00    +0.000 A 
ATOM     19  C   UNL     1       1.297   2.940  21.145  0.00  0.00    +0.000 A 
ATOM     20  C   UNL     1       2.682   2.805  21.181  0.00  0.00    +0.000 A 
ATOM     21  C   UNL     1       3.416   2.739  19.993  0.00  0.00    +0.000 A 
ENDBRANCH  15  16
ENDBRANCH  14  15
ENDBRANCH   1  14
TORSDOF 10
ENDMDL
MODEL 9
REMARK VINA RESULT:      -5.8      2.443      5.939
REMARK  Name = 
REMARK  14 active torsions:
REMARK  status: ('A' for Active; 'I' for Inactive)
REMARK    1  A    between atoms: C_1  and  C_2
REMARK    2  A    between atoms: C_2  and  C_3
REMARK    3  A    between atoms: C_2  and  C_4
REMARK    4  A    between atoms: C_4  and  N_5
REMARK    5  A    between atoms: N_5  and  C_6
REMARK    6  A    between atoms: N_5  and  C_10
REMARK    7  A    between atoms: C_6  and  C_7
REMARK    8  A    between atoms: C_7  and  C_8
REMARK    9  A    between atoms: C_7  and  C_9
REMARK   10  A    between atoms: C_10  and  C_11
REMARK   11  A    between atoms: C_11  and  O_12
REMARK   12  A    between atoms: C_11  and  C_13
REMARK   13  A    between atoms: C_13  and  O_14
REMARK   14  A    between atoms: O_14  and  C_15
REMARK                            x       y       z     vdW  Elec       q    Type
REMARK                         _______ _______ _______ _____ _____    ______ ____
ROOT
ATOM      1  C   UNL     1       4.987   3.840  16.244  0.00  0.00    +0.000 C 
ENDROOT
BRANCH   1   2
ATOM      2  O   UNL     1       6.085   3.180  15.599  0.00  0.00    +0.000 OA
ATOM      3  H   UNL     1       5.724   2.552  14.953  0.00  0.00    +0.000 HD
ENDBRANCH   1   2
BRANCH   1   4
ATOM      4  C   UNL     1       5.235   5.375  16.334  0.00  0.00    +0.000 C 
BRANCH   4   5
ATOM      5  N   UNL     1       4.694   6.057  17.524  0.00  0.00    +0.000 NA
BRANCH   5   6
ATOM      6  C   UNL     1       5.738   6.503  18.456  0.00  0.00    +0.000 C 
BRANCH   6   8
ATOM      7  C   UNL     1       7.795   7.791  17.636  0.00  0.00    +0.000 C 
ATOM      8  C   UNL     1       7.197   6.415  17.939  0.00  0.00    +0.000 C 
ATOM      9  C   UNL     1       8.063   5.689  18.975  0.00  0.00    +0.000 C 
ENDBRANCH   6   8
ENDBRANCH   5   6
BRANCH   5  10
ATOM     10  C   UNL     1       3.658   7.055  17.212  0.00  0.00    +0.000 C 
BRANCH  10  11
ATOM     11  C   UNL     1       2.875   7.807  18.325  0.00  0.00    +0.000 C 
ATOM     12  C   UNL     1       1.727   8.686  17.820  0.00  0.00    +0.000 C 
ATOM     13  C   UNL     1       2.307   6.759  19.299  0.00  0.00    +0.000 C 
ENDBRANCH  10  11
ENDBRANCH   5  10
ENDBRANCH   4   5
ENDBRANCH   1   4
BRANCH   1  14
ATOM     14  C   UNL     1       4.803   3.277  17.668  0.00  0.00    +0.000 C 
BRANCH  14  15
ATOM     15  O   UNL     1       3.620   2.472  17.735  0.00  0.00    +0.000 OA
BRANCH  15  16
ATOM     16  C   UNL     1       2.796   2.716  18.801  0.00  0.00    +0.000 A 
ATOM     17  C   UNL     1       3.374   2.550  20.059  0.00  0.00    +0.000 A 
ATOM     18  C   UNL     1       2.626   2.767  21.215  0.00  0.00    +0.000 A 
ATOM     19  C   UNL     1       1.295   3.162  21.128  0.00  0.00    +0.000 A 
ATOM     20  C   UNL     1       0.719   3.352  19.875  0.00  0.00    +0.000 A 
ATOM     21  C   UNL     1       1.465   3.132  18.713  0.00  0.00    +0.000 A 
ENDBRANCH  15  16
ENDBRANCH  14  15
ENDBRANCH   1  14
TORSDOF 10
ENDMDL
