MODEL 1
REMARK VINA RESULT:      -8.4      0.000      0.000
REMARK  Name = 
REMARK  9 active torsions:
REMARK  status: ('A' for Active; 'I' for Inactive)
REMARK    1  A    between atoms: C_1  and  N_2
REMARK    2  A    between atoms: N_2  and  C_3
REMARK    3  A    between atoms: N_6  and  C_7
REMARK    4  A    between atoms: C_9  and  O_10
REMARK    5  A    between atoms: O_10  and  C_11
REMARK    6  A    between atoms: C_12  and  C_13
REMARK    7  A    between atoms: C_17  and  C_18
REMARK    8  A    between atoms: C_20  and  C_21
REMARK    9  A    between atoms: C_28  and  C_29
REMARK                            x       y       z     vdW  Elec       q    Type
REMARK                         _______ _______ _______ _____ _____    ______ ____
ROOT
ATOM      1  C   UNL     1       1.524   8.403  19.878  0.00  0.00    +0.000 A 
ATOM      2  C   UNL     1       1.633   7.153  20.501  0.00  0.00    +0.000 A 
ATOM      3  C   UNL     1       2.307   6.040  19.945  0.00  0.00    +0.000 A 
ATOM      4  C   UNL     1       2.886   6.186  18.678  0.00  0.00    +0.000 A 
ATOM      5  C   UNL     1       2.741   7.426  18.023  0.00  0.00    +0.000 A 
ATOM      6  C   UNL     1       2.123   8.526  18.628  0.00  0.00    +0.000 A 
ATOM      7 CL   UNL     1       2.146  10.035  17.785  0.00  0.00    +0.000 Cl
ENDROOT
BRANCH   4   8
ATOM      8  C   UNL     1       3.513   5.106  17.863  0.00  0.00    +0.000 C 
ATOM      9  O   UNL     1       2.781   4.242  17.387  0.00  0.00    +0.000 OA
ATOM     10  N   UNL     1       4.870   5.166  17.533  0.00  0.00    +0.000 N 
ATOM     11  C   UNL     1       5.372   4.320  16.444  0.00  0.00    +0.000 C 
ATOM     12  C   UNL     1       6.097   5.189  15.396  0.00  0.00    +0.000 C 
ATOM     13  C   UNL     1       6.710   4.330  14.299  0.00  0.00    +0.000 C 
ATOM     14  O   UNL     1       7.154   5.954  16.016  0.00  0.00    +0.000 OA
ATOM     15  C   UNL     1       6.631   6.824  17.039  0.00  0.00    +0.000 C 
ATOM     16  C   UNL     1       7.778   7.638  17.617  0.00  0.00    +0.000 C 
ATOM     17  C   UNL     1       5.924   5.997  18.136  0.00  0.00    +0.000 C 
ENDBRANCH   4   8
BRANCH   1  21
ATOM     18  C   UNL     1      -2.184  10.378  18.863  0.00  0.00    +0.000 A 
ATOM     19  N   UNL     1      -1.045   9.742  19.174  0.00  0.00    +0.000 NA
ATOM     20  C   UNL     1      -0.244  10.207  20.137  0.00  0.00    +0.000 A 
ATOM     21  N   UNL     1       0.897   9.499  20.490  0.00  0.00    +0.000 N 
ATOM     22  N   UNL     1      -0.516  11.318  20.825  0.00  0.00    +0.000 NA
ATOM     23  C   UNL     1      -1.651  11.961  20.490  0.00  0.00    +0.000 A 
ATOM     24  C   UNL     1      -2.539  11.529  19.523  0.00  0.00    +0.000 A 
ATOM     25  H   UNL     1       1.308   9.866  21.331  0.00  0.00    +0.000 HD
BRANCH  24  26
ATOM     26  C   UNL     1      -3.781  12.306  19.284  0.00  0.00    +0.000 C 
ATOM     27  F   UNL     1      -4.128  12.482  17.981  0.00  0.00    +0.000 F 
ATOM     28  F   UNL     1      -4.864  11.699  19.856  0.00  0.00    +0.000 F 
ATOM     29  F   UNL     1      -3.736  13.551  19.834  0.00  0.00    +0.000 F 
ENDBRANCH  24  26
BRANCH  18  31
ATOM     30  C   UNL     1      -2.356   9.974  16.488  0.00  0.00    +0.000 C 
ATOM     31  N   UNL     1      -2.954   9.855  17.816  0.00  0.00    +0.000 N 
ATOM     32  H   UNL     1      -3.254   8.904  18.012  0.00  0.00    +0.000 HD
ENDBRANCH  18  31
ENDBRANCH   1  21
BRANCH   3  33
ATOM     33  O   UNL     1       2.260   5.006  20.834  0.00  0.00    +0.000 OA
ATOM     34  C   UNL     1       1.365   3.920  20.711  0.00  0.00    +0.000 C 
ENDBRANCH   3  33
TORSDOF 5
ENDMDL
MODEL 2
REMARK VINA RESULT:      -8.1      1.059      1.242
REMARK  Name = 
REMARK  9 active torsions:
REMARK  status: ('A' for Active; 'I' for Inactive)
REMARK    1  A    between atoms: C_1  and  N_2
REMARK    2  A    between atoms: N_2  and  C_3
REMARK    3  A    between atoms: N_6  and  C_7
REMARK    4  A    between atoms: C_9  and  O_10
REMARK    5  A    between atoms: O_10  and  C_11
REMARK    6  A    between atoms: C_12  and  C_13
REMARK    7  A    between atoms: C_17  and  C_18
REMARK    8  A    between atoms: C_20  and  C_21
REMARK    9  A    between atoms: C_28  and  C_29
REMARK                            x       y       z     vdW  Elec       q    Type
REMARK                         _______ _______ _______ _____ _____    ______ ____
ROOT
ATOM      1  C   UNL     1       1.692   7.369  20.241  0.00  0.00    +0.000 A 
ATOM      2  C   UNL     1       1.732   6.016  20.601  0.00  0.00    +0.000 A 
ATOM      3  C   UNL     1       2.374   5.007  19.844  0.00  0.00    +0.000 A 
ATOM      4  C   UNL     1       2.994   5.378  18.643  0.00  0.00    +0.000 A 
ATOM      5  C   UNL     1       2.919   6.730  18.250  0.00  0.00    +0.000 A 
ATOM      6  C   UNL     1       2.330   7.713  19.053  0.00  0.00    +0.000 A 
ATOM      7 CL   UNL     1       2.439   9.358  18.532  0.00  0.00    +0.000 Cl
ENDROOT
BRANCH   4   8
ATOM      8  C   UNL     1       3.598   4.456  17.639  0.00  0.00    +0.000 C 
ATOM      9  O   UNL     1       2.860   3.654  17.073  0.00  0.00    +0.000 OA
ATOM     10  N   UNL     1       4.933   4.607  17.252  0.00  0.00    +0.000 N 
ATOM     11  C   UNL     1       5.392   3.955  16.021  0.00  0.00    +0.000 C 
ATOM     12  C   UNL     1       6.039   4.996  15.085  0.00  0.00    +0.000 C 
ATOM     13  C   UNL     1       6.607   4.336  13.838  0.00  0.00    +0.000 C 
ATOM     14  O   UNL     1       7.111   5.688  15.760  0.00  0.00    +0.000 OA
ATOM     15  C   UNL     1       6.627   6.374  16.932  0.00  0.00    +0.000 C 
ATOM     16  C   UNL     1       7.786   7.123  17.570  0.00  0.00    +0.000 C 
ATOM     17  C   UNL     1       6.000   5.367  17.922  0.00  0.00    +0.000 C 
ENDBRANCH   4   8
BRANCH   1  21
ATOM     18  C   UNL     1      -0.916  10.636  19.143  0.00  0.00    +0.000 A 
ATOM     19  N   UNL     1      -0.120   9.607  19.468  0.00  0.00    +0.000 NA
ATOM     20  C   UNL     1       0.326   9.456  20.718  0.00  0.00    +0.000 A 
ATOM     21  N   UNL     1       1.095   8.348  21.049  0.00  0.00    +0.000 N 
ATOM     22  N   UNL     1       0.024  10.310  21.698  0.00  0.00    +0.000 NA
ATOM     23  C   UNL     1      -0.758  11.352  21.357  0.00  0.00    +0.000 A 
ATOM     24  C   UNL     1      -1.275  11.562  20.092  0.00  0.00    +0.000 A 
ATOM     25  H   UNL     1       1.215   8.272  22.044  0.00  0.00    +0.000 HD
BRANCH  24  26
ATOM     26  C   UNL     1      -2.166  12.726  19.860  0.00  0.00    +0.000 C 
ATOM     27  F   UNL     1      -3.387  12.442  19.332  0.00  0.00    +0.000 F 
ATOM     28  F   UNL     1      -2.434  13.387  21.026  0.00  0.00    +0.000 F 
ATOM     29  F   UNL     1      -1.608  13.659  19.039  0.00  0.00    +0.000 F 
ENDBRANCH  24  26
BRANCH  18  31
ATOM     30  C   UNL     1      -2.425   9.892  17.410  0.00  0.00    +0.000 C 
ATOM     31  N   UNL     1      -1.312  10.753  17.805  0.00  0.00    +0.000 N 
ATOM     32  H   UNL     1      -1.473  11.721  17.546  0.00  0.00    +0.000 HD
ENDBRANCH  18  31
ENDBRANCH   1  21
BRANCH   3  33
ATOM     33  O   UNL     1       2.260   3.819  20.504  0.00  0.00    +0.000 OA
ATOM     34  C   UNL     1       1.212   2.902  20.271  0.00  0.00    +0.000 C 
ENDBRANCH   3  33
TORSDOF 5
ENDMDL
MODEL 3
REMARK VINA RESULT:      -7.7      1.301      1.635
REMARK  Name = 
REMARK  9 active torsions:
REMARK  status: ('A' for Active; 'I' for Inactive)
REMARK    1  A    between atoms: C_1  and  N_2
REMARK    2  A    between atoms: N_2  and  C_3
REMARK    3  A    between atoms: N_6  and  C_7
REMARK    4  A    between atoms: C_9  and  O_10
REMARK    5  A    between atoms: O_10  and  C_11
REMARK    6  A    between atoms: C_12  and  C_13
REMARK    7  A    between atoms: C_17  and  C_18
REMARK    8  A    between atoms: C_20  and  C_21
REMARK    9  A    between atoms: C_28  and  C_29
REMARK                            x       y       z     vdW  Elec       q    Type
REMARK                         _______ _______ _______ _____ _____    ______ ____
ROOT
ATOM      1  C   UNL     1       1.502   7.612  20.519  0.00  0.00    +0.000 A 
ATOM      2  C   UNL     1       1.366   6.258  20.851  0.00  0.00    +0.000 A 
ATOM      3  C   UNL     1       1.822   5.188  20.044  0.00  0.00    +0.000 A 
ATOM      4  C   UNL     1       2.431   5.499  18.822  0.00  0.00    +0.000 A 
ATOM      5  C   UNL     1       2.531   6.857  18.458  0.00  0.00    +0.000 A 
ATOM      6  C   UNL     1       2.127   7.893  19.308  0.00  0.00    +0.000 A 
ATOM      7 CL   UNL     1       2.445   9.519  18.814  0.00  0.00    +0.000 Cl
ENDROOT
BRANCH   4   8
ATOM      8  C   UNL     1       2.850   4.527  17.771  0.00  0.00    +0.000 C 
ATOM      9  O   UNL     1       1.981   4.048  17.047  0.00  0.00    +0.000 OA
ATOM     10  N   UNL     1       4.206   4.287  17.529  0.00  0.00    +0.000 N 
ATOM     11  C   UNL     1       4.596   3.636  16.273  0.00  0.00    +0.000 C 
ATOM     12  C   UNL     1       5.637   4.502  15.534  0.00  0.00    +0.000 C 
ATOM     13  C   UNL     1       6.131   3.810  14.272  0.00  0.00    +0.000 C 
ATOM     14  O   UNL     1       6.776   4.762  16.384  0.00  0.00    +0.000 OA
ATOM     15  C   UNL     1       6.378   5.458  17.582  0.00  0.00    +0.000 C 
ATOM     16  C   UNL     1       7.620   5.750  18.409  0.00  0.00    +0.000 C 
ATOM     17  C   UNL     1       5.360   4.614  18.381  0.00  0.00    +0.000 C 
ENDBRANCH   4   8
BRANCH   1  21
ATOM     18  C   UNL     1      -1.162  10.927  19.753  0.00  0.00    +0.000 A 
ATOM     19  N   UNL     1      -0.351   9.883  19.978  0.00  0.00    +0.000 NA
ATOM     20  C   UNL     1       0.306   9.766  21.135  0.00  0.00    +0.000 A 
ATOM     21  N   UNL     1       1.089   8.644  21.375  0.00  0.00    +0.000 N 
ATOM     22  N   UNL     1       0.211  10.670  22.112  0.00  0.00    +0.000 NA
ATOM     23  C   UNL     1      -0.588  11.726  21.867  0.00  0.00    +0.000 A 
ATOM     24  C   UNL     1      -1.317  11.904  20.706  0.00  0.00    +0.000 A 
ATOM     25  H   UNL     1       1.384   8.604  22.335  0.00  0.00    +0.000 HD
BRANCH  24  26
ATOM     26  C   UNL     1      -2.200  13.090  20.583  0.00  0.00    +0.000 C 
ATOM     27  F   UNL     1      -2.332  13.851  21.703  0.00  0.00    +0.000 F 
ATOM     28  F   UNL     1      -1.742  13.953  19.626  0.00  0.00    +0.000 F 
ATOM     29  F   UNL     1      -3.465  12.766  20.196  0.00  0.00    +0.000 F 
ENDBRANCH  24  26
BRANCH  18  31
ATOM     30  C   UNL     1      -1.412   9.958  17.555  0.00  0.00    +0.000 C 
ATOM     31  N   UNL     1      -1.788  11.005  18.502  0.00  0.00    +0.000 N 
ATOM     32  H   UNL     1      -2.796  11.087  18.593  0.00  0.00    +0.000 HD
ENDBRANCH  18  31
ENDBRANCH   1  21
BRANCH   3  33
ATOM     33  O   UNL     1       1.570   4.011  20.687  0.00  0.00    +0.000 OA
ATOM     34  C   UNL     1       2.419   3.475  21.680  0.00  0.00    +0.000 C 
ENDBRANCH   3  33
TORSDOF 5
ENDMDL
MODEL 4
REMARK VINA RESULT:      -7.5      5.225      9.484
REMARK  Name = 
REMARK  9 active torsions:
REMARK  status: ('A' for Active; 'I' for Inactive)
REMARK    1  A    between atoms: C_1  and  N_2
REMARK    2  A    between atoms: N_2  and  C_3
REMARK    3  A    between atoms: N_6  and  C_7
REMARK    4  A    between atoms: C_9  and  O_10
REMARK    5  A    between atoms: O_10  and  C_11
REMARK    6  A    between atoms: C_12  and  C_13
REMARK    7  A    between atoms: C_17  and  C_18
REMARK    8  A    between atoms: C_20  and  C_21
REMARK    9  A    between atoms: C_28  and  C_29
REMARK                            x       y       z     vdW  Elec       q    Type
REMARK                         _______ _______ _______ _____ _____    ______ ____
ROOT
ATOM      1  C   UNL     1       2.027   6.759  18.934  0.00  0.00    +0.000 A 
ATOM      2  C   UNL     1       1.928   7.992  18.275  0.00  0.00    +0.000 A 
ATOM      3  C   UNL     1       1.524   9.198  18.895  0.00  0.00    +0.000 A 
ATOM      4  C   UNL     1       1.179   9.158  20.252  0.00  0.00    +0.000 A 
ATOM      5  C   UNL     1       1.231   7.913  20.912  0.00  0.00    +0.000 A 
ATOM      6  C   UNL     1       1.695   6.751  20.286  0.00  0.00    +0.000 A 
ATOM      7 CL   UNL     1       1.858   5.322  21.245  0.00  0.00    +0.000 Cl
ENDROOT
BRANCH   4   8
ATOM      8  C   UNL     1       0.599  10.276  21.049  0.00  0.00    +0.000 C 
ATOM      9  O   UNL     1       1.192  10.632  22.064  0.00  0.00    +0.000 OA
ATOM     10  N   UNL     1      -0.503  10.991  20.570  0.00  0.00    +0.000 N 
ATOM     11  C   UNL     1      -0.816  12.294  21.165  0.00  0.00    +0.000 C 
ATOM     12  C   UNL     1      -0.894  13.370  20.063  0.00  0.00    +0.000 C 
ATOM     13  C   UNL     1      -1.308  14.717  20.637  0.00  0.00    +0.000 C 
ATOM     14  O   UNL     1      -1.856  12.994  19.053  0.00  0.00    +0.000 OA
ATOM     15  C   UNL     1      -1.495  11.741  18.438  0.00  0.00    +0.000 C 
ATOM     16  C   UNL     1      -2.511  11.424  17.352  0.00  0.00    +0.000 C 
ATOM     17  C   UNL     1      -1.439  10.618  19.497  0.00  0.00    +0.000 C 
ENDBRANCH   4   8
BRANCH   1  21
ATOM     18  C   UNL     1       5.637   6.119  16.645  0.00  0.00    +0.000 A 
ATOM     19  N   UNL     1       4.530   6.331  17.373  0.00  0.00    +0.000 NA
ATOM     20  C   UNL     1       3.595   5.384  17.486  0.00  0.00    +0.000 A 
ATOM     21  N   UNL     1       2.489   5.597  18.297  0.00  0.00    +0.000 N 
ATOM     22  N   UNL     1       3.696   4.198  16.882  0.00  0.00    +0.000 NA
ATOM     23  C   UNL     1       4.799   4.003  16.136  0.00  0.00    +0.000 A 
ATOM     24  C   UNL     1       5.819   4.926  15.990  0.00  0.00    +0.000 A 
ATOM     25  H   UNL     1       1.961   4.751  18.424  0.00  0.00    +0.000 HD
BRANCH  24  26
ATOM     26  C   UNL     1       7.007   4.566  15.177  0.00  0.00    +0.000 C 
ATOM     27  F   UNL     1       7.426   5.510  14.291  0.00  0.00    +0.000 F 
ATOM     28  F   UNL     1       8.095   4.321  15.968  0.00  0.00    +0.000 F 
ATOM     29  F   UNL     1       6.825   3.426  14.455  0.00  0.00    +0.000 F 
ENDBRANCH  24  26
BRANCH  18  31
ATOM     30  C   UNL     1       7.508   7.277  17.643  0.00  0.00    +0.000 C 
ATOM     31  N   UNL     1       6.555   7.172  16.539  0.00  0.00    +0.000 N 
ATOM     32  H   UNL     1       7.021   7.172  15.637  0.00  0.00    +0.000 HD
ENDBRANCH  18  31
ENDBRANCH   1  21
BRANCH   3  33
ATOM     33  O   UNL     1       1.585  10.207  17.979  0.00  0.00    +0.000 OA
ATOM     34  C   UNL     1       2.281  11.415  18.204  0.00  0.00    +0.000 C 
ENDBRANCH   3  33
TORSDOF 5
ENDMDL
MODEL 5
REMARK VINA RESULT:      -7.5      5.299     10.206
REMARK  Name = 
REMARK  9 active torsions:
REMARK  status: ('A' for Active; 'I' for Inactive)
REMARK    1  A    between atoms: C_1  and  N_2
REMARK    2  A    between atoms: N_2  and  C_3
REMARK    3  A    between atoms: N_6  and  C_7
REMARK    4  A    between atoms: C_9  and  O_10
REMARK    5  A    between atoms: O_10  and  C_11
REMARK    6  A    between atoms: C_12  and  C_13
REMARK    7  A    between atoms: C_17  and  C_18
REMARK    8  A    between atoms: C_20  and  C_21
REMARK    9  A    between atoms: C_28  and  C_29
REMARK                            x       y       z     vdW  Elec       q    Type
REMARK                         _______ _______ _______ _____ _____    ______ ____
ROOT
ATOM      1  C   UNL     1       0.116  11.530  19.982  0.00  0.00    +0.000 A 
ATOM      2  C   UNL     1      -0.051  10.869  21.206  0.00  0.00    +0.000 A 
ATOM      3  C   UNL     1      -0.650  11.447  22.350  0.00  0.00    +0.000 A 
ATOM      4  C   UNL     1      -1.087  12.775  22.265  0.00  0.00    +0.000 A 
ATOM      5  C   UNL     1      -0.881  13.463  21.052  0.00  0.00    +0.000 A 
ATOM      6  C   UNL     1      -0.343  12.843  19.919  0.00  0.00    +0.000 A 
ATOM      7 CL   UNL     1      -0.285  13.748  18.448  0.00  0.00    +0.000 Cl
ENDROOT
BRANCH   4   8
ATOM      8  C   UNL     1      -1.611  13.605  23.387  0.00  0.00    +0.000 C 
ATOM      9  O   UNL     1      -0.821  14.322  23.995  0.00  0.00    +0.000 OA
ATOM     10  N   UNL     1      -2.985  13.673  23.635  0.00  0.00    +0.000 N 
ATOM     11  C   UNL     1      -3.501  14.761  24.475  0.00  0.00    +0.000 C 
ATOM     12  C   UNL     1      -4.606  15.528  23.720  0.00  0.00    +0.000 C 
ATOM     13  C   UNL     1      -5.225  16.605  24.598  0.00  0.00    +0.000 C 
ATOM     14  O   UNL     1      -5.654  14.627  23.302  0.00  0.00    +0.000 OA
ATOM     15  C   UNL     1      -5.137  13.604  22.428  0.00  0.00    +0.000 C 
ATOM     16  C   UNL     1      -6.291  12.720  21.980  0.00  0.00    +0.000 C 
ATOM     17  C   UNL     1      -4.049  12.779  23.151  0.00  0.00    +0.000 C 
ENDBRANCH   4   8
BRANCH   1  21
ATOM     18  C   UNL     1       2.064   7.688  19.638  0.00  0.00    +0.000 A 
ATOM     19  N   UNL     1       1.442   8.870  19.760  0.00  0.00    +0.000 NA
ATOM     20  C   UNL     1       1.368   9.712  18.726  0.00  0.00    +0.000 A 
ATOM     21  N   UNL     1       0.662  10.902  18.853  0.00  0.00    +0.000 N 
ATOM     22  N   UNL     1       1.910   9.442  17.537  0.00  0.00    +0.000 NA
ATOM     23  C   UNL     1       2.552   8.263  17.431  0.00  0.00    +0.000 A 
ATOM     24  C   UNL     1       2.650   7.332  18.447  0.00  0.00    +0.000 A 
ATOM     25  H   UNL     1       0.544  11.352  17.962  0.00  0.00    +0.000 HD
BRANCH  24  26
ATOM     26  C   UNL     1       3.345   6.046  18.185  0.00  0.00    +0.000 C 
ATOM     27  F   UNL     1       2.544   4.953  18.071  0.00  0.00    +0.000 F 
ATOM     28  F   UNL     1       4.046   6.091  17.011  0.00  0.00    +0.000 F 
ATOM     29  F   UNL     1       4.266   5.742  19.140  0.00  0.00    +0.000 F 
ENDBRANCH  24  26
BRANCH  18  31
ATOM     30  C   UNL     1       1.217   5.738  20.784  0.00  0.00    +0.000 C 
ATOM     31  N   UNL     1       2.138   6.873  20.774  0.00  0.00    +0.000 N 
ATOM     32  H   UNL     1       3.093   6.586  20.967  0.00  0.00    +0.000 HD
ENDBRANCH  18  31
ENDBRANCH   1  21
BRANCH   3  33
ATOM     33  O   UNL     1      -0.693  10.514  23.345  0.00  0.00    +0.000 OA
ATOM     34  C   UNL     1       0.186   9.410  23.409  0.00  0.00    +0.000 C 
ENDBRANCH   3  33
TORSDOF 5
ENDMDL
MODEL 6
REMARK VINA RESULT:      -7.5      2.337      3.127
REMARK  Name = 
REMARK  9 active torsions:
REMARK  status: ('A' for Active; 'I' for Inactive)
REMARK    1  A    between atoms: C_1  and  N_2
REMARK    2  A    between atoms: N_2  and  C_3
REMARK    3  A    between atoms: N_6  and  C_7
REMARK    4  A    between atoms: C_9  and  O_10
REMARK    5  A    between atoms: O_10  and  C_11
REMARK    6  A    between atoms: C_12  and  C_13
REMARK    7  A    between atoms: C_17  and  C_18
REMARK    8  A    between atoms: C_20  and  C_21
REMARK    9  A    between atoms: C_28  and  C_29
REMARK                            x       y       z     vdW  Elec       q    Type
REMARK                         _______ _______ _______ _____ _____    ______ ____
ROOT
ATOM      1  C   UNL     1       1.887   6.382  20.446  0.00  0.00    +0.000 A 
ATOM      2  C   UNL     1       2.364   7.104  19.344  0.00  0.00    +0.000 A 
ATOM      3  C   UNL     1       3.026   6.525  18.236  0.00  0.00    +0.000 A 
ATOM      4  C   UNL     1       3.241   5.141  18.246  0.00  0.00    +0.000 A 
ATOM      5  C   UNL     1       2.806   4.412  19.372  0.00  0.00    +0.000 A 
ATOM      6  C   UNL     1       2.098   5.006  20.423  0.00  0.00    +0.000 A 
ATOM      7 CL   UNL     1       1.483   3.980  21.670  0.00  0.00    +0.000 Cl
ENDROOT
BRANCH   4   8
ATOM      8  C   UNL     1       4.035   4.363  17.253  0.00  0.00    +0.000 C 
ATOM      9  O   UNL     1       3.446   3.532  16.565  0.00  0.00    +0.000 OA
ATOM     10  N   UNL     1       5.375   4.679  17.013  0.00  0.00    +0.000 N 
ATOM     11  C   UNL     1       6.017   4.171  15.795  0.00  0.00    +0.000 C 
ATOM     12  C   UNL     1       6.629   5.339  14.997  0.00  0.00    +0.000 C 
ATOM     13  C   UNL     1       7.382   4.836  13.775  0.00  0.00    +0.000 C 
ATOM     14  O   UNL     1       7.551   6.088  15.820  0.00  0.00    +0.000 OA
ATOM     15  C   UNL     1       6.886   6.631  16.978  0.00  0.00    +0.000 C 
ATOM     16  C   UNL     1       7.890   7.449  17.775  0.00  0.00    +0.000 C 
ATOM     17  C   UNL     1       6.284   5.494  17.834  0.00  0.00    +0.000 C 
ENDBRANCH   4   8
BRANCH   1  21
ATOM     18  C   UNL     1       0.172  10.341  20.698  0.00  0.00    +0.000 A 
ATOM     19  N   UNL     1       0.696   9.110  20.595  0.00  0.00    +0.000 NA
ATOM     20  C   UNL     1       0.697   8.280  21.641  0.00  0.00    +0.000 A 
ATOM     21  N   UNL     1       1.183   6.987  21.498  0.00  0.00    +0.000 N 
ATOM     22  N   UNL     1       0.201   8.621  22.833  0.00  0.00    +0.000 NA
ATOM     23  C   UNL     1      -0.301   9.867  22.931  0.00  0.00    +0.000 A 
ATOM     24  C   UNL     1      -0.358  10.773  21.889  0.00  0.00    +0.000 A 
ATOM     25  H   UNL     1       0.969   6.425  22.304  0.00  0.00    +0.000 HD
BRANCH  24  26
ATOM     26  C   UNL     1      -0.983  12.099  22.118  0.00  0.00    +0.000 C 
ATOM     27  F   UNL     1      -1.992  12.433  21.268  0.00  0.00    +0.000 F 
ATOM     28  F   UNL     1      -1.536  12.179  23.366  0.00  0.00    +0.000 F 
ATOM     29  F   UNL     1      -0.085  13.121  22.057  0.00  0.00    +0.000 F 
ENDBRANCH  24  26
BRANCH  18  31
ATOM     30  C   UNL     1      -0.512  10.704  18.410  0.00  0.00    +0.000 C 
ATOM     31  N   UNL     1       0.242  11.171  19.571  0.00  0.00    +0.000 N 
ATOM     32  H   UNL     1       0.020  12.134  19.803  0.00  0.00    +0.000 HD
ENDBRANCH  18  31
ENDBRANCH   1  21
BRANCH   3  33
ATOM     33  O   UNL     1       3.310   7.505  17.330  0.00  0.00    +0.000 OA
ATOM     34  C   UNL     1       2.777   8.810  17.408  0.00  0.00    +0.000 C 
ENDBRANCH   3  33
TORSDOF 5
ENDMDL
MODEL 7
REMARK VINA RESULT:      -7.3      5.116      9.350
REMARK  Name = 
REMARK  9 active torsions:
REMARK  status: ('A' for Active; 'I' for Inactive)
REMARK    1  A    between atoms: C_1  and  N_2
REMARK    2  A    between atoms: N_2  and  C_3
REMARK    3  A    between atoms: N_6  and  C_7
REMARK    4  A    between atoms: C_9  and  O_10
REMARK    5  A    between atoms: O_10  and  C_11
REMARK    6  A    between atoms: C_12  and  C_13
REMARK    7  A    between atoms: C_17  and  C_18
REMARK    8  A    between atoms: C_20  and  C_21
REMARK    9  A    between atoms: C_28  and  C_29
REMARK                            x       y       z     vdW  Elec       q    Type
REMARK                         _______ _______ _______ _____ _____    ______ ____
ROOT
ATOM      1  C   UNL     1       2.174   6.102  19.278  0.00  0.00    +0.000 A 
ATOM      2  C   UNL     1       2.215   7.438  18.857  0.00  0.00    +0.000 A 
ATOM      3  C   UNL     1       1.833   8.540  19.659  0.00  0.00    +0.000 A 
ATOM      4  C   UNL     1       1.362   8.281  20.953  0.00  0.00    +0.000 A 
ATOM      5  C   UNL     1       1.274   6.937  21.369  0.00  0.00    +0.000 A 
ATOM      6  C   UNL     1       1.719   5.875  20.574  0.00  0.00    +0.000 A 
ATOM      7 CL   UNL     1       1.702   4.287  21.257  0.00  0.00    +0.000 Cl
ENDROOT
BRANCH   4   8
ATOM      8  C   UNL     1       0.784   9.279  21.898  0.00  0.00    +0.000 C 
ATOM      9  O   UNL     1       1.284   9.374  23.015  0.00  0.00    +0.000 OA
ATOM     10  N   UNL     1      -0.198  10.175  21.468  0.00  0.00    +0.000 N 
ATOM     11  C   UNL     1      -0.475  11.366  22.279  0.00  0.00    +0.000 C 
ATOM     12  C   UNL     1      -0.345  12.635  21.411  0.00  0.00    +0.000 C 
ATOM     13  C   UNL     1      -0.716  13.881  22.201  0.00  0.00    +0.000 C 
ATOM     14  O   UNL     1      -1.213  12.553  20.259  0.00  0.00    +0.000 OA
ATOM     15  C   UNL     1      -0.882  11.412  19.443  0.00  0.00    +0.000 C 
ATOM     16  C   UNL     1      -1.790  11.408  18.224  0.00  0.00    +0.000 C 
ATOM     17  C   UNL     1      -1.033  10.107  20.258  0.00  0.00    +0.000 C 
ENDBRANCH   4   8
BRANCH   1  21
ATOM     18  C   UNL     1       5.525   5.926  16.554  0.00  0.00    +0.000 A 
ATOM     19  N   UNL     1       4.500   5.993  17.417  0.00  0.00    +0.000 NA
ATOM     20  C   UNL     1       3.633   4.983  17.527  0.00  0.00    +0.000 A 
ATOM     21  N   UNL     1       2.617   5.043  18.472  0.00  0.00    +0.000 N 
ATOM     22  N   UNL     1       3.723   3.873  16.791  0.00  0.00    +0.000 NA
ATOM     23  C   UNL     1       4.742   3.825  15.912  0.00  0.00    +0.000 A 
ATOM     24  C   UNL     1       5.690   4.819  15.757  0.00  0.00    +0.000 A 
ATOM     25  H   UNL     1       2.151   4.157  18.563  0.00  0.00    +0.000 HD
BRANCH  24  26
ATOM     26  C   UNL     1       6.794   4.620  14.785  0.00  0.00    +0.000 C 
ATOM     27  F   UNL     1       6.941   5.595  13.848  0.00  0.00    +0.000 F 
ATOM     28  F   UNL     1       8.005   4.555  15.416  0.00  0.00    +0.000 F 
ATOM     29  F   UNL     1       6.684   3.450  14.098  0.00  0.00    +0.000 F 
ENDBRANCH  24  26
BRANCH  18  31
ATOM     30  C   UNL     1       7.375   7.142  17.520  0.00  0.00    +0.000 C 
ATOM     31  N   UNL     1       6.370   7.039  16.464  0.00  0.00    +0.000 N 
ATOM     32  H   UNL     1       6.784   7.120  15.540  0.00  0.00    +0.000 HD
ENDBRANCH  18  31
ENDBRANCH   1  21
BRANCH   3  33
ATOM     33  O   UNL     1       2.042   9.691  18.957  0.00  0.00    +0.000 OA
ATOM     34  C   UNL     1       1.892   9.780  17.555  0.00  0.00    +0.000 C 
ENDBRANCH   3  33
TORSDOF 5
ENDMDL
MODEL 8
REMARK VINA RESULT:      -7.1      5.313      9.691
REMARK  Name = 
REMARK  9 active torsions:
REMARK  status: ('A' for Active; 'I' for Inactive)
REMARK    1  A    between atoms: C_1  and  N_2
REMARK    2  A    between atoms: N_2  and  C_3
REMARK    3  A    between atoms: N_6  and  C_7
REMARK    4  A    between atoms: C_9  and  O_10
REMARK    5  A    between atoms: O_10  and  C_11
REMARK    6  A    between atoms: C_12  and  C_13
REMARK    7  A    between atoms: C_17  and  C_18
REMARK    8  A    between atoms: C_20  and  C_21
REMARK    9  A    between atoms: C_28  and  C_29
REMARK                            x       y       z     vdW  Elec       q    Type
REMARK                         _______ _______ _______ _____ _____    ______ ____
ROOT
ATOM      1  C   UNL     1      -0.023  10.795  19.360  0.00  0.00    +0.000 A 
ATOM      2  C   UNL     1       0.236  10.627  20.727  0.00  0.00    +0.000 A 
ATOM      3  C   UNL     1      -0.557  11.176  21.763  0.00  0.00    +0.000 A 
ATOM      4  C   UNL     1      -1.663  11.958  21.402  0.00  0.00    +0.000 A 
ATOM      5  C   UNL     1      -1.904  12.170  20.030  0.00  0.00    +0.000 A 
ATOM      6  C   UNL     1      -1.138  11.561  19.030  0.00  0.00    +0.000 A 
ATOM      7 CL   UNL     1      -1.629  11.775  17.387  0.00  0.00    +0.000 Cl
ENDROOT
BRANCH   4   8
ATOM      8  C   UNL     1      -2.535  12.734  22.329  0.00  0.00    +0.000 C 
ATOM      9  O   UNL     1      -3.438  12.138  22.910  0.00  0.00    +0.000 OA
ATOM     10  N   UNL     1      -2.235  14.065  22.636  0.00  0.00    +0.000 N 
ATOM     11  C   UNL     1      -2.864  14.681  23.810  0.00  0.00    +0.000 C 
ATOM     12  C   UNL     1      -1.781  15.261  24.742  0.00  0.00    +0.000 C 
ATOM     13  C   UNL     1      -2.405  15.988  25.924  0.00  0.00    +0.000 C 
ATOM     14  O   UNL     1      -0.943  16.195  24.027  0.00  0.00    +0.000 OA
ATOM     15  C   UNL     1      -0.286  15.554  22.915  0.00  0.00    +0.000 C 
ATOM     16  C   UNL     1       0.619  16.569  22.234  0.00  0.00    +0.000 C 
ATOM     17  C   UNL     1      -1.331  14.986  21.929  0.00  0.00    +0.000 C 
ENDBRANCH   4   8
BRANCH   1  21
ATOM     18  C   UNL     1       2.329   7.173  19.532  0.00  0.00    +0.000 A 
ATOM     19  N   UNL     1       1.580   8.285  19.492  0.00  0.00    +0.000 NA
ATOM     20  C   UNL     1       1.586   9.074  18.414  0.00  0.00    +0.000 A 
ATOM     21  N   UNL     1       0.754  10.185  18.364  0.00  0.00    +0.000 N 
ATOM     22  N   UNL     1       2.333   8.817  17.338  0.00  0.00    +0.000 NA
ATOM     23  C   UNL     1       3.098   7.711  17.397  0.00  0.00    +0.000 A 
ATOM     24  C   UNL     1       3.128   6.836  18.467  0.00  0.00    +0.000 A 
ATOM     25  H   UNL     1       0.734  10.585  17.442  0.00  0.00    +0.000 HD
BRANCH  24  26
ATOM     26  C   UNL     1       3.980   5.623  18.385  0.00  0.00    +0.000 C 
ATOM     27  F   UNL     1       3.318   4.436  18.333  0.00  0.00    +0.000 F 
ATOM     28  F   UNL     1       4.760   5.638  17.262  0.00  0.00    +0.000 F 
ATOM     29  F   UNL     1       4.853   5.523  19.426  0.00  0.00    +0.000 F 
ENDBRANCH  24  26
BRANCH  18  31
ATOM     30  C   UNL     1       1.348   5.309  20.715  0.00  0.00    +0.000 C 
ATOM     31  N   UNL     1       2.303   6.416  20.710  0.00  0.00    +0.000 N 
ATOM     32  H   UNL     1       3.234   6.113  20.980  0.00  0.00    +0.000 HD
ENDBRANCH  18  31
ENDBRANCH   1  21
BRANCH   3  33
ATOM     33  O   UNL     1      -0.049  10.780  22.965  0.00  0.00    +0.000 OA
ATOM     34  C   UNL     1       0.110   9.424  23.329  0.00  0.00    +0.000 C 
ENDBRANCH   3  33
TORSDOF 5
ENDMDL
MODEL 9
REMARK VINA RESULT:      -7.1      5.524     10.232
REMARK  Name = 
REMARK  9 active torsions:
REMARK  status: ('A' for Active; 'I' for Inactive)
REMARK    1  A    between atoms: C_1  and  N_2
REMARK    2  A    between atoms: N_2  and  C_3
REMARK    3  A    between atoms: N_6  and  C_7
REMARK    4  A    between atoms: C_9  and  O_10
REMARK    5  A    between atoms: O_10  and  C_11
REMARK    6  A    between atoms: C_12  and  C_13
REMARK    7  A    between atoms: C_17  and  C_18
REMARK    8  A    between atoms: C_20  and  C_21
REMARK    9  A    between atoms: C_28  and  C_29
REMARK                            x       y       z     vdW  Elec       q    Type
REMARK                         _______ _______ _______ _____ _____    ______ ____
ROOT
ATOM      1  C   UNL     1       0.623  12.375  19.118  0.00  0.00    +0.000 A 
ATOM      2  C   UNL     1       1.443  12.924  20.113  0.00  0.00    +0.000 A 
ATOM      3  C   UNL     1       1.017  13.892  21.053  0.00  0.00    +0.000 A 
ATOM      4  C   UNL     1      -0.305  14.350  20.975  0.00  0.00    +0.000 A 
ATOM      5  C   UNL     1      -1.123  13.837  19.948  0.00  0.00    +0.000 A 
ATOM      6  C   UNL     1      -0.690  12.834  19.073  0.00  0.00    +0.000 A 
ATOM      7 CL   UNL     1      -1.836  12.179  17.958  0.00  0.00    +0.000 Cl
ENDROOT
BRANCH   4   8
ATOM      8  C   UNL     1      -0.904  15.457  21.773  0.00  0.00    +0.000 C 
ATOM      9  O   UNL     1      -0.685  16.612  21.416  0.00  0.00    +0.000 OA
ATOM     10  N   UNL     1      -1.807  15.179  22.804  0.00  0.00    +0.000 N 
ATOM     11  C   UNL     1      -2.656  16.261  23.314  0.00  0.00    +0.000 C 
ATOM     12  C   UNL     1      -4.139  15.843  23.244  0.00  0.00    +0.000 C 
ATOM     13  C   UNL     1      -5.040  16.908  23.851  0.00  0.00    +0.000 C 
ATOM     14  O   UNL     1      -4.352  14.607  23.961  0.00  0.00    +0.000 OA
ATOM     15  C   UNL     1      -3.556  13.543  23.403  0.00  0.00    +0.000 C 
ATOM     16  C   UNL     1      -3.860  12.261  24.162  0.00  0.00    +0.000 C 
ATOM     17  C   UNL     1      -2.054  13.897  23.483  0.00  0.00    +0.000 C 
ENDBRANCH   4   8
BRANCH   1  21
ATOM     18  C   UNL     1       1.743   8.284  19.947  0.00  0.00    +0.000 A 
ATOM     19  N   UNL     1       1.375   9.551  19.706  0.00  0.00    +0.000 NA
ATOM     20  C   UNL     1       1.515  10.082  18.488  0.00  0.00    +0.000 A 
ATOM     21  N   UNL     1       1.068  11.373  18.241  0.00  0.00    +0.000 N 
ATOM     22  N   UNL     1       2.032   9.404  17.461  0.00  0.00    +0.000 NA
ATOM     23  C   UNL     1       2.419   8.140  17.720  0.00  0.00    +0.000 A 
ATOM     24  C   UNL     1       2.285   7.516  18.946  0.00  0.00    +0.000 A 
ATOM     25  H   UNL     1       1.078  11.581  17.258  0.00  0.00    +0.000 HD
BRANCH  24  26
ATOM     26  C   UNL     1       2.707   6.099  19.085  0.00  0.00    +0.000 C 
ATOM     27  F   UNL     1       3.723   5.867  19.959  0.00  0.00    +0.000 F 
ATOM     28  F   UNL     1       1.678   5.315  19.526  0.00  0.00    +0.000 F 
ATOM     29  F   UNL     1       3.095   5.548  17.901  0.00  0.00    +0.000 F 
ENDBRANCH  24  26
BRANCH  18  31
ATOM     30  C   UNL     1       1.249   8.817  22.250  0.00  0.00    +0.000 C 
ATOM     31  N   UNL     1       1.604   7.806  21.256  0.00  0.00    +0.000 N 
ATOM     32  H   UNL     1       0.985   7.002  21.297  0.00  0.00    +0.000 HD
ENDBRANCH  18  31
ENDBRANCH   1  21
BRANCH   3  33
ATOM     33  O   UNL     1       2.050  14.169  21.901  0.00  0.00    +0.000 OA
ATOM     34  C   UNL     1       3.361  14.446  21.457  0.00  0.00    +0.000 C 
ENDBRANCH   3  33
TORSDOF 5
ENDMDL
