MODEL 1
REMARK VINA RESULT:      -7.9      0.000      0.000
REMARK  Name = 
REMARK  4 active torsions:
REMARK  status: ('A' for Active; 'I' for Inactive)
REMARK    1  A    between atoms: C_1  and  S_2
REMARK    2  A    between atoms: S_2  and  C_5
REMARK    3  A    between atoms: C_9  and  C_10
REMARK    4  A    between atoms: C_20  and  N_21
REMARK                            x       y       z     vdW  Elec       q    Type
REMARK                         _______ _______ _______ _____ _____    ______ ____
ROOT
ATOM      1  C   UNL     1       5.735   5.442  17.203  0.00  0.00    +0.000 A 
ATOM      2  C   UNL     1       5.163   6.779  16.921  0.00  0.00    +0.000 A 
ATOM      3  N   UNL     1       4.156   7.324  17.534  0.00  0.00    +0.000 NA
ATOM      4  C   UNL     1       3.590   6.592  18.544  0.00  0.00    +0.000 A 
ATOM      5  C   UNL     1       2.536   6.848  19.406  0.00  0.00    +0.000 A 
ATOM      6  C   UNL     1       2.459   5.693  20.215  0.00  0.00    +0.000 A 
ATOM      7  N   UNL     1       3.382   4.777  19.921  0.00  0.00    +0.000 NA
ATOM      8  N   UNL     1       4.074   5.323  18.883  0.00  0.00    +0.000 N 
ATOM      9  C   UNL     1       5.175   4.734  18.204  0.00  0.00    +0.000 A 
ENDROOT
BRANCH   5  10
ATOM     10  C   UNL     1       1.727   8.058  19.426  0.00  0.00    +0.000 A 
ATOM     11  C   UNL     1       1.191   8.530  20.636  0.00  0.00    +0.000 A 
ATOM     12  C   UNL     1       0.422   9.697  20.664  0.00  0.00    +0.000 A 
ATOM     13  C   UNL     1       0.187  10.396  19.486  0.00  0.00    +0.000 A 
ATOM     14  F   UNL     1      -0.549  11.514  19.516  0.00  0.00    +0.000 F 
ATOM     15  C   UNL     1       0.708   9.952  18.280  0.00  0.00    +0.000 A 
ATOM     16  C   UNL     1       1.479   8.787  18.251  0.00  0.00    +0.000 A 
ENDBRANCH   5  10
BRANCH   1  18
ATOM     17  C   UNL     1       6.326   3.644  15.214  0.00  0.00    +0.000 C 
ATOM     18  S   UNL     1       7.060   4.854  16.287  0.00  0.00    +0.000 S 
ATOM     19  O   UNL     1       7.974   4.151  17.172  0.00  0.00    +0.000 OA
ATOM     20  O   UNL     1       7.562   5.914  15.432  0.00  0.00    +0.000 OA
ENDBRANCH   1  18
BRANCH   9  21
ATOM     21  N   UNL     1       5.579   3.471  18.648  0.00  0.00    +0.000 N 
ATOM     22  H   UNL     1       6.571   3.491  18.917  0.00  0.00    +0.000 HD
ATOM     23  H   UNL     1       5.410   2.731  17.960  0.00  0.00    +0.000 HD
ENDBRANCH   9  21
TORSDOF 3
ENDMDL
MODEL 2
REMARK VINA RESULT:      -7.8      0.081      1.057
REMARK  Name = 
REMARK  4 active torsions:
REMARK  status: ('A' for Active; 'I' for Inactive)
REMARK    1  A    between atoms: C_1  and  S_2
REMARK    2  A    between atoms: S_2  and  C_5
REMARK    3  A    between atoms: C_9  and  C_10
REMARK    4  A    between atoms: C_20  and  N_21
REMARK                            x       y       z     vdW  Elec       q    Type
REMARK                         _______ _______ _______ _____ _____    ______ ____
ROOT
ATOM      1  C   UNL     1       5.743   5.443  17.172  0.00  0.00    +0.000 A 
ATOM      2  C   UNL     1       5.168   6.774  16.870  0.00  0.00    +0.000 A 
ATOM      3  N   UNL     1       4.161   7.328  17.477  0.00  0.00    +0.000 NA
ATOM      4  C   UNL     1       3.598   6.609  18.498  0.00  0.00    +0.000 A 
ATOM      5  C   UNL     1       2.545   6.876  19.359  0.00  0.00    +0.000 A 
ATOM      6  C   UNL     1       2.472   5.733  20.185  0.00  0.00    +0.000 A 
ATOM      7  N   UNL     1       3.397   4.814  19.903  0.00  0.00    +0.000 NA
ATOM      8  N   UNL     1       4.086   5.347  18.856  0.00  0.00    +0.000 N 
ATOM      9  C   UNL     1       5.187   4.749  18.183  0.00  0.00    +0.000 A 
ENDROOT
BRANCH   5  10
ATOM     10  C   UNL     1       1.733   8.085  19.362  0.00  0.00    +0.000 A 
ATOM     11  C   UNL     1       1.507   8.787  18.166  0.00  0.00    +0.000 A 
ATOM     12  C   UNL     1       0.720   9.942  18.160  0.00  0.00    +0.000 A 
ATOM     13  C   UNL     1       0.156  10.398  19.345  0.00  0.00    +0.000 A 
ATOM     14  F   UNL     1      -0.598  11.504  19.337  0.00  0.00    +0.000 F 
ATOM     15  C   UNL     1       0.362   9.720  20.538  0.00  0.00    +0.000 A 
ATOM     16  C   UNL     1       1.146   8.564  20.544  0.00  0.00    +0.000 A 
ENDBRANCH   5  10
BRANCH   1  18
ATOM     17  C   UNL     1       6.336   3.611  15.215  0.00  0.00    +0.000 C 
ATOM     18  S   UNL     1       7.067   4.844  16.262  0.00  0.00    +0.000 S 
ATOM     19  O   UNL     1       7.988   4.163  17.156  0.00  0.00    +0.000 OA
ATOM     20  O   UNL     1       7.561   5.891  15.384  0.00  0.00    +0.000 OA
ENDBRANCH   1  18
BRANCH   9  21
ATOM     21  N   UNL     1       5.594   3.494  18.646  0.00  0.00    +0.000 N 
ATOM     22  H   UNL     1       5.855   3.550  19.639  0.00  0.00    +0.000 HD
ATOM     23  H   UNL     1       6.361   3.095  18.097  0.00  0.00    +0.000 HD
ENDBRANCH   9  21
TORSDOF 3
ENDMDL
MODEL 3
REMARK VINA RESULT:      -7.5      5.088      7.298
REMARK  Name = 
REMARK  4 active torsions:
REMARK  status: ('A' for Active; 'I' for Inactive)
REMARK    1  A    between atoms: C_1  and  S_2
REMARK    2  A    between atoms: S_2  and  C_5
REMARK    3  A    between atoms: C_9  and  C_10
REMARK    4  A    between atoms: C_20  and  N_21
REMARK                            x       y       z     vdW  Elec       q    Type
REMARK                         _______ _______ _______ _____ _____    ______ ____
ROOT
ATOM      1  C   UNL     1       2.653   4.010  18.866  0.00  0.00    +0.000 A 
ATOM      2  C   UNL     1       3.030   3.157  17.715  0.00  0.00    +0.000 A 
ATOM      3  N   UNL     1       3.834   3.487  16.749  0.00  0.00    +0.000 NA
ATOM      4  C   UNL     1       4.390   4.737  16.822  0.00  0.00    +0.000 A 
ATOM      5  C   UNL     1       5.280   5.412  16.002  0.00  0.00    +0.000 A 
ATOM      6  C   UNL     1       5.457   6.662  16.636  0.00  0.00    +0.000 A 
ATOM      7  N   UNL     1       4.764   6.786  17.768  0.00  0.00    +0.000 NA
ATOM      8  N   UNL     1       4.096   5.604  17.880  0.00  0.00    +0.000 N 
ATOM      9  C   UNL     1       3.212   5.235  18.931  0.00  0.00    +0.000 A 
ENDROOT
BRANCH   5  10
ATOM     10  C   UNL     1       5.867   4.896  14.774  0.00  0.00    +0.000 A 
ATOM     11  C   UNL     1       5.146   3.996  13.970  0.00  0.00    +0.000 A 
ATOM     12  C   UNL     1       5.699   3.505  12.784  0.00  0.00    +0.000 A 
ATOM     13  C   UNL     1       6.971   3.910  12.397  0.00  0.00    +0.000 A 
ATOM     14  F   UNL     1       7.498   3.438  11.260  0.00  0.00    +0.000 F 
ATOM     15  C   UNL     1       7.700   4.799  13.172  0.00  0.00    +0.000 A 
ATOM     16  C   UNL     1       7.147   5.293  14.356  0.00  0.00    +0.000 A 
ENDBRANCH   5  10
BRANCH   1  18
ATOM     17  C   UNL     1       2.619   2.791  21.325  0.00  0.00    +0.000 C 
ATOM     18  S   UNL     1       1.559   3.433  20.053  0.00  0.00    +0.000 S 
ATOM     19  O   UNL     1       0.813   2.313  19.505  0.00  0.00    +0.000 OA
ATOM     20  O   UNL     1       0.846   4.554  20.637  0.00  0.00    +0.000 OA
ENDBRANCH   1  18
BRANCH   9  21
ATOM     21  N   UNL     1       3.015   6.180  19.941  0.00  0.00    +0.000 N 
ATOM     22  H   UNL     1       2.414   6.942  19.602  0.00  0.00    +0.000 HD
ATOM     23  H   UNL     1       3.891   6.556  20.315  0.00  0.00    +0.000 HD
ENDBRANCH   9  21
TORSDOF 3
ENDMDL
MODEL 4
REMARK VINA RESULT:      -7.5      4.986      7.277
REMARK  Name = 
REMARK  4 active torsions:
REMARK  status: ('A' for Active; 'I' for Inactive)
REMARK    1  A    between atoms: C_1  and  S_2
REMARK    2  A    between atoms: S_2  and  C_5
REMARK    3  A    between atoms: C_9  and  C_10
REMARK    4  A    between atoms: C_20  and  N_21
REMARK                            x       y       z     vdW  Elec       q    Type
REMARK                         _______ _______ _______ _____ _____    ______ ____
ROOT
ATOM      1  C   UNL     1       3.013   3.948  19.053  0.00  0.00    +0.000 A 
ATOM      2  C   UNL     1       3.457   3.051  17.962  0.00  0.00    +0.000 A 
ATOM      3  N   UNL     1       4.144   3.400  16.916  0.00  0.00    +0.000 NA
ATOM      4  C   UNL     1       4.498   4.722  16.836  0.00  0.00    +0.000 A 
ATOM      5  C   UNL     1       5.223   5.439  15.898  0.00  0.00    +0.000 A 
ATOM      6  C   UNL     1       5.233   6.759  16.401  0.00  0.00    +0.000 A 
ATOM      7  N   UNL     1       4.592   6.889  17.563  0.00  0.00    +0.000 NA
ATOM      8  N   UNL     1       4.127   5.636  17.828  0.00  0.00    +0.000 N 
ATOM      9  C   UNL     1       3.372   5.244  18.967  0.00  0.00    +0.000 A 
ENDROOT
BRANCH   5  10
ATOM     10  C   UNL     1       5.817   4.897  14.684  0.00  0.00    +0.000 A 
ATOM     11  C   UNL     1       7.122   5.261  14.313  0.00  0.00    +0.000 A 
ATOM     12  C   UNL     1       7.703   4.736  13.155  0.00  0.00    +0.000 A 
ATOM     13  C   UNL     1       6.983   3.846  12.366  0.00  0.00    +0.000 A 
ATOM     14  F   UNL     1       7.542   3.344  11.257  0.00  0.00    +0.000 F 
ATOM     15  C   UNL     1       5.695   3.469  12.713  0.00  0.00    +0.000 A 
ATOM     16  C   UNL     1       5.115   3.991  13.872  0.00  0.00    +0.000 A 
ENDBRANCH   5  10
BRANCH   1  18
ATOM     17  C   UNL     1       1.077   2.082  19.611  0.00  0.00    +0.000 C 
ATOM     18  S   UNL     1       2.091   3.333  20.361  0.00  0.00    +0.000 S 
ATOM     19  O   UNL     1       1.203   4.375  20.848  0.00  0.00    +0.000 OA
ATOM     20  O   UNL     1       2.971   2.648  21.291  0.00  0.00    +0.000 OA
ENDBRANCH   1  18
BRANCH   9  21
ATOM     21  N   UNL     1       3.082   6.245  19.898  0.00  0.00    +0.000 N 
ATOM     22  H   UNL     1       3.950   6.598  20.322  0.00  0.00    +0.000 HD
ATOM     23  H   UNL     1       2.429   5.938  20.626  0.00  0.00    +0.000 HD
ENDBRANCH   9  21
TORSDOF 3
ENDMDL
MODEL 5
REMARK VINA RESULT:      -7.5      4.977      7.247
REMARK  Name = 
REMARK  4 active torsions:
REMARK  status: ('A' for Active; 'I' for Inactive)
REMARK    1  A    between atoms: C_1  and  S_2
REMARK    2  A    between atoms: S_2  and  C_5
REMARK    3  A    between atoms: C_9  and  C_10
REMARK    4  A    between atoms: C_20  and  N_21
REMARK                            x       y       z     vdW  Elec       q    Type
REMARK                         _______ _______ _______ _____ _____    ______ ____
ROOT
ATOM      1  C   UNL     1       3.311   3.880  19.235  0.00  0.00    +0.000 A 
ATOM      2  C   UNL     1       3.803   2.976  18.169  0.00  0.00    +0.000 A 
ATOM      3  N   UNL     1       4.409   3.338  17.079  0.00  0.00    +0.000 NA
ATOM      4  C   UNL     1       4.622   4.682  16.920  0.00  0.00    +0.000 A 
ATOM      5  C   UNL     1       5.232   5.419  15.917  0.00  0.00    +0.000 A 
ATOM      6  C   UNL     1       5.127   6.757  16.355  0.00  0.00    +0.000 A 
ATOM      7  N   UNL     1       4.521   6.883  17.536  0.00  0.00    +0.000 NA
ATOM      8  N   UNL     1       4.198   5.606  17.882  0.00  0.00    +0.000 N 
ATOM      9  C   UNL     1       3.533   5.199  19.070  0.00  0.00    +0.000 A 
ENDROOT
BRANCH   5  10
ATOM     10  C   UNL     1       5.831   4.876  14.705  0.00  0.00    +0.000 A 
ATOM     11  C   UNL     1       5.110   3.977  13.903  0.00  0.00    +0.000 A 
ATOM     12  C   UNL     1       5.675   3.461  12.733  0.00  0.00    +0.000 A 
ATOM     13  C   UNL     1       6.959   3.841  12.361  0.00  0.00    +0.000 A 
ATOM     14  F   UNL     1       7.497   3.346  11.240  0.00  0.00    +0.000 F 
ATOM     15  C   UNL     1       7.689   4.730  13.135  0.00  0.00    +0.000 A 
ATOM     16  C   UNL     1       7.124   5.249  14.303  0.00  0.00    +0.000 A 
ENDBRANCH   5  10
BRANCH   1  18
ATOM     17  C   UNL     1       1.347   2.090  19.924  0.00  0.00    +0.000 C 
ATOM     18  S   UNL     1       2.509   3.245  20.610  0.00  0.00    +0.000 S 
ATOM     19  O   UNL     1       1.744   4.304  21.245  0.00  0.00    +0.000 OA
ATOM     20  O   UNL     1       3.448   2.466  21.398  0.00  0.00    +0.000 OA
ENDBRANCH   1  18
BRANCH   9  21
ATOM     21  N   UNL     1       3.178   6.214  19.965  0.00  0.00    +0.000 N 
ATOM     22  H   UNL     1       2.353   5.933  20.510  0.00  0.00    +0.000 HD
ATOM     23  H   UNL     1       3.011   7.113  19.504  0.00  0.00    +0.000 HD
ENDBRANCH   9  21
TORSDOF 3
ENDMDL
MODEL 6
REMARK VINA RESULT:      -7.4      5.105      7.296
REMARK  Name = 
REMARK  4 active torsions:
REMARK  status: ('A' for Active; 'I' for Inactive)
REMARK    1  A    between atoms: C_1  and  S_2
REMARK    2  A    between atoms: S_2  and  C_5
REMARK    3  A    between atoms: C_9  and  C_10
REMARK    4  A    between atoms: C_20  and  N_21
REMARK                            x       y       z     vdW  Elec       q    Type
REMARK                         _______ _______ _______ _____ _____    ______ ____
ROOT
ATOM      1  C   UNL     1       2.612   3.933  18.854  0.00  0.00    +0.000 A 
ATOM      2  C   UNL     1       3.003   3.095  17.697  0.00  0.00    +0.000 A 
ATOM      3  N   UNL     1       3.803   3.445  16.736  0.00  0.00    +0.000 NA
ATOM      4  C   UNL     1       4.342   4.701  16.820  0.00  0.00    +0.000 A 
ATOM      5  C   UNL     1       5.224   5.396  16.008  0.00  0.00    +0.000 A 
ATOM      6  C   UNL     1       5.383   6.643  16.653  0.00  0.00    +0.000 A 
ATOM      7  N   UNL     1       4.686   6.747  17.785  0.00  0.00    +0.000 NA
ATOM      8  N   UNL     1       4.034   5.556  17.885  0.00  0.00    +0.000 N 
ATOM      9  C   UNL     1       3.154   5.165  18.931  0.00  0.00    +0.000 A 
ENDROOT
BRANCH   5  10
ATOM     10  C   UNL     1       5.820   4.898  14.776  0.00  0.00    +0.000 A 
ATOM     11  C   UNL     1       7.108   5.313  14.397  0.00  0.00    +0.000 A 
ATOM     12  C   UNL     1       7.690   4.830  13.221  0.00  0.00    +0.000 A 
ATOM     13  C   UNL     1       6.991   3.934  12.423  0.00  0.00    +0.000 A 
ATOM     14  F   UNL     1       7.552   3.473  11.298  0.00  0.00    +0.000 F 
ATOM     15  C   UNL     1       5.720   3.507  12.778  0.00  0.00    +0.000 A 
ATOM     16  C   UNL     1       5.138   3.987  13.954  0.00  0.00    +0.000 A 
ENDBRANCH   5  10
BRANCH   1  18
ATOM     17  C   UNL     1       2.586   2.798  21.354  0.00  0.00    +0.000 C 
ATOM     18  S   UNL     1       1.524   3.330  20.035  0.00  0.00    +0.000 S 
ATOM     19  O   UNL     1       0.861   2.149  19.509  0.00  0.00    +0.000 OA
ATOM     20  O   UNL     1       0.729   4.425  20.561  0.00  0.00    +0.000 OA
ENDBRANCH   1  18
BRANCH   9  21
ATOM     21  N   UNL     1       2.942   6.098  19.950  0.00  0.00    +0.000 N 
ATOM     22  H   UNL     1       1.938   6.177  20.155  0.00  0.00    +0.000 HD
ATOM     23  H   UNL     1       3.336   7.020  19.737  0.00  0.00    +0.000 HD
ENDBRANCH   9  21
TORSDOF 3
ENDMDL
MODEL 7
REMARK VINA RESULT:      -7.4      5.494      7.617
REMARK  Name = 
REMARK  4 active torsions:
REMARK  status: ('A' for Active; 'I' for Inactive)
REMARK    1  A    between atoms: C_1  and  S_2
REMARK    2  A    between atoms: S_2  and  C_5
REMARK    3  A    between atoms: C_9  and  C_10
REMARK    4  A    between atoms: C_20  and  N_21
REMARK                            x       y       z     vdW  Elec       q    Type
REMARK                         _______ _______ _______ _____ _____    ______ ____
ROOT
ATOM      1  C   UNL     1       0.516  10.060  20.641  0.00  0.00    +0.000 A 
ATOM      2  C   UNL     1       0.838   8.776  21.307  0.00  0.00    +0.000 A 
ATOM      3  N   UNL     1       1.481   7.780  20.777  0.00  0.00    +0.000 NA
ATOM      4  C   UNL     1       1.911   7.952  19.488  0.00  0.00    +0.000 A 
ATOM      5  C   UNL     1       2.621   7.134  18.623  0.00  0.00    +0.000 A 
ATOM      6  C   UNL     1       2.745   7.899  17.442  0.00  0.00    +0.000 A 
ATOM      7  N   UNL     1       2.183   9.106  17.531  0.00  0.00    +0.000 NA
ATOM      8  N   UNL     1       1.658   9.137  18.787  0.00  0.00    +0.000 N 
ATOM      9  C   UNL     1       0.950  10.220  19.376  0.00  0.00    +0.000 A 
ENDROOT
BRANCH   5  10
ATOM     10  C   UNL     1       3.106   5.794  18.923  0.00  0.00    +0.000 A 
ATOM     11  C   UNL     1       2.200   4.731  19.066  0.00  0.00    +0.000 A 
ATOM     12  C   UNL     1       2.660   3.440  19.343  0.00  0.00    +0.000 A 
ATOM     13  C   UNL     1       4.023   3.208  19.478  0.00  0.00    +0.000 A 
ATOM     14  F   UNL     1       4.461   1.970  19.742  0.00  0.00    +0.000 F 
ATOM     15  C   UNL     1       4.937   4.241  19.338  0.00  0.00    +0.000 A 
ATOM     16  C   UNL     1       4.479   5.531  19.058  0.00  0.00    +0.000 A 
ENDBRANCH   5  10
BRANCH   1  18
ATOM     17  C   UNL     1      -0.819  10.489  23.002  0.00  0.00    +0.000 C 
ATOM     18  S   UNL     1      -0.362  11.274  21.475  0.00  0.00    +0.000 S 
ATOM     19  O   UNL     1      -1.588  11.555  20.749  0.00  0.00    +0.000 OA
ATOM     20  O   UNL     1       0.533  12.362  21.823  0.00  0.00    +0.000 OA
ENDBRANCH   1  18
BRANCH   9  21
ATOM     21  N   UNL     1       0.779  11.358  18.582  0.00  0.00    +0.000 N 
ATOM     22  H   UNL     1      -0.087  11.846  18.844  0.00  0.00    +0.000 HD
ATOM     23  H   UNL     1       0.784  11.151  17.579  0.00  0.00    +0.000 HD
ENDBRANCH   9  21
TORSDOF 3
ENDMDL
MODEL 8
REMARK VINA RESULT:      -7.4      5.481      7.614
REMARK  Name = 
REMARK  4 active torsions:
REMARK  status: ('A' for Active; 'I' for Inactive)
REMARK    1  A    between atoms: C_1  and  S_2
REMARK    2  A    between atoms: S_2  and  C_5
REMARK    3  A    between atoms: C_9  and  C_10
REMARK    4  A    between atoms: C_20  and  N_21
REMARK                            x       y       z     vdW  Elec       q    Type
REMARK                         _______ _______ _______ _____ _____    ______ ____
ROOT
ATOM      1  C   UNL     1       0.541  10.066  20.605  0.00  0.00    +0.000 A 
ATOM      2  C   UNL     1       0.854   8.782  21.274  0.00  0.00    +0.000 A 
ATOM      3  N   UNL     1       1.491   7.780  20.747  0.00  0.00    +0.000 NA
ATOM      4  C   UNL     1       1.921   7.945  19.457  0.00  0.00    +0.000 A 
ATOM      5  C   UNL     1       2.626   7.120  18.595  0.00  0.00    +0.000 A 
ATOM      6  C   UNL     1       2.754   7.881  17.412  0.00  0.00    +0.000 A 
ATOM      7  N   UNL     1       2.201   9.091  17.497  0.00  0.00    +0.000 NA
ATOM      8  N   UNL     1       1.676   9.129  18.753  0.00  0.00    +0.000 N 
ATOM      9  C   UNL     1       0.975  10.219  19.338  0.00  0.00    +0.000 A 
ENDROOT
BRANCH   5  10
ATOM     10  C   UNL     1       3.102   5.778  18.900  0.00  0.00    +0.000 A 
ATOM     11  C   UNL     1       4.478   5.533  19.046  0.00  0.00    +0.000 A 
ATOM     12  C   UNL     1       4.942   4.249  19.349  0.00  0.00    +0.000 A 
ATOM     13  C   UNL     1       4.035   3.209  19.507  0.00  0.00    +0.000 A 
ATOM     14  F   UNL     1       4.481   1.980  19.798  0.00  0.00    +0.000 F 
ATOM     15  C   UNL     1       2.672   3.426  19.371  0.00  0.00    +0.000 A 
ATOM     16  C   UNL     1       2.207   4.710  19.071  0.00  0.00    +0.000 A 
ENDBRANCH   5  10
BRANCH   1  18
ATOM     17  C   UNL     1      -0.798  10.509  22.960  0.00  0.00    +0.000 C 
ATOM     18  S   UNL     1      -0.329  11.288  21.435  0.00  0.00    +0.000 S 
ATOM     19  O   UNL     1      -1.551  11.580  20.704  0.00  0.00    +0.000 OA
ATOM     20  O   UNL     1       0.575  12.369  21.785  0.00  0.00    +0.000 OA
ENDBRANCH   1  18
BRANCH   9  21
ATOM     21  N   UNL     1       0.812  11.356  18.541  0.00  0.00    +0.000 N 
ATOM     22  H   UNL     1       1.347  11.258  17.669  0.00  0.00    +0.000 HD
ATOM     23  H   UNL     1       1.070  12.223  19.023  0.00  0.00    +0.000 HD
ENDBRANCH   9  21
TORSDOF 3
ENDMDL
MODEL 9
REMARK VINA RESULT:      -7.2      2.592      3.718
REMARK  Name = 
REMARK  4 active torsions:
REMARK  status: ('A' for Active; 'I' for Inactive)
REMARK    1  A    between atoms: C_1  and  S_2
REMARK    2  A    between atoms: S_2  and  C_5
REMARK    3  A    between atoms: C_9  and  C_10
REMARK    4  A    between atoms: C_20  and  N_21
REMARK                            x       y       z     vdW  Elec       q    Type
REMARK                         _______ _______ _______ _____ _____    ______ ____
ROOT
ATOM      1  C   UNL     1       3.264   4.959  19.261  0.00  0.00    +0.000 A 
ATOM      2  C   UNL     1       2.465   5.289  20.464  0.00  0.00    +0.000 A 
ATOM      3  N   UNL     1       1.884   6.425  20.708  0.00  0.00    +0.000 NA
ATOM      4  C   UNL     1       2.018   7.393  19.748  0.00  0.00    +0.000 A 
ATOM      5  C   UNL     1       1.538   8.690  19.658  0.00  0.00    +0.000 A 
ATOM      6  C   UNL     1       2.026   9.156  18.417  0.00  0.00    +0.000 A 
ATOM      7  N   UNL     1       2.741   8.247  17.753  0.00  0.00    +0.000 NA
ATOM      8  N   UNL     1       2.748   7.163  18.577  0.00  0.00    +0.000 N 
ATOM      9  C   UNL     1       3.382   5.917  18.321  0.00  0.00    +0.000 A 
ENDROOT
BRANCH   5  10
ATOM     10  C   UNL     1       0.718   9.367  20.653  0.00  0.00    +0.000 A 
ATOM     11  C   UNL     1      -0.132  10.418  20.271  0.00  0.00    +0.000 A 
ATOM     12  C   UNL     1      -0.930  11.065  21.219  0.00  0.00    +0.000 A 
ATOM     13  C   UNL     1      -0.883  10.664  22.549  0.00  0.00    +0.000 A 
ATOM     14  F   UNL     1      -1.648  11.285  23.455  0.00  0.00    +0.000 F 
ATOM     15  C   UNL     1      -0.054   9.627  22.949  0.00  0.00    +0.000 A 
ATOM     16  C   UNL     1       0.742   8.978  22.002  0.00  0.00    +0.000 A 
ENDBRANCH   5  10
BRANCH   1  18
ATOM     17  C   UNL     1       3.401   2.520  20.517  0.00  0.00    +0.000 C 
ATOM     18  S   UNL     1       3.986   3.412  19.096  0.00  0.00    +0.000 S 
ATOM     19  O   UNL     1       5.427   3.544  19.232  0.00  0.00    +0.000 OA
ATOM     20  O   UNL     1       3.432   2.743  17.933  0.00  0.00    +0.000 OA
ENDBRANCH   1  18
BRANCH   9  21
ATOM     21  N   UNL     1       4.064   5.802  17.106  0.00  0.00    +0.000 N 
ATOM     22  H   UNL     1       4.294   4.817  16.920  0.00  0.00    +0.000 HD
ATOM     23  H   UNL     1       4.909   6.380  17.065  0.00  0.00    +0.000 HD
ENDBRANCH   9  21
TORSDOF 3
ENDMDL
