MODEL 1
REMARK VINA RESULT:      -8.2      0.000      0.000
REMARK  Name = 
REMARK  10 active torsions:
REMARK  status: ('A' for Active; 'I' for Inactive)
REMARK    1  A    between atoms: C_1  and  O_2
REMARK    2  A    between atoms: O_2  and  C_3
REMARK    3  A    between atoms: C_6  and  C_7
REMARK    4  A    between atoms: C_7  and  N_8
REMARK    5  A    between atoms: N_8  and  C_9
REMARK    6  A    between atoms: C_11  and  O_12
REMARK    7  A    between atoms: O_12  and  C_13
REMARK    8  A    between atoms: C_13  and  C_14
REMARK    9  A    between atoms: C_16  and  C_17
REMARK   10  A    between atoms: N_25  and  C_26
REMARK                            x       y       z     vdW  Elec       q    Type
REMARK                         _______ _______ _______ _____ _____    ______ ____
ROOT
ATOM      1  C   UNL     1       2.962   4.778  18.302  0.00  0.00    +0.000 A 
ATOM      2  C   UNL     1       2.659   6.042  18.610  0.00  0.00    +0.000 A 
ATOM      3  C   UNL     1       2.097   6.292  19.934  0.00  0.00    +0.000 A 
ATOM      4  N   UNL     1       1.831   5.425  20.849  0.00  0.00    +0.000 NA
ATOM      5  N   UNL     1       2.099   4.109  20.523  0.00  0.00    +0.000 N 
ATOM      6  C   UNL     1       1.793   3.109  21.524  0.00  0.00    +0.000 C 
ATOM      7  C   UNL     1       2.642   3.695  19.308  0.00  0.00    +0.000 A 
ATOM      8  O   UNL     1       2.885   2.522  19.017  0.00  0.00    +0.000 OA
ENDROOT
BRANCH   1   9
ATOM      9  N   UNL     1       3.521   4.393  17.076  0.00  0.00    +0.000 N 
ATOM     10  H   UNL     1       2.946   3.624  16.714  0.00  0.00    +0.000 HD
BRANCH   9  11
ATOM     11  C   UNL     1       4.906   3.904  17.042  0.00  0.00    +0.000 C 
BRANCH  11  15
ATOM     12  C   UNL     1       7.685   7.048  18.117  0.00  0.00    +0.000 A 
ATOM     13  C   UNL     1       7.523   5.930  18.932  0.00  0.00    +0.000 A 
ATOM     14  C   UNL     1       6.623   4.920  18.586  0.00  0.00    +0.000 A 
ATOM     15  C   UNL     1       5.855   5.017  17.417  0.00  0.00    +0.000 A 
ATOM     16  C   UNL     1       6.014   6.149  16.605  0.00  0.00    +0.000 A 
ATOM     17  C   UNL     1       6.923   7.160  16.954  0.00  0.00    +0.000 A 
BRANCH  12  19
ATOM     18  C   UNL     1       8.360   9.317  18.165  0.00  0.00    +0.000 C 
ATOM     19  O   UNL     1       8.579   7.974  18.578  0.00  0.00    +0.000 OA
ENDBRANCH  12  19
ENDBRANCH  11  15
ENDBRANCH   9  11
ENDBRANCH   1   9
BRANCH   3  20
ATOM     20  O   UNL     1       1.903   7.620  20.059  0.00  0.00    +0.000 OA
BRANCH  20  21
ATOM     21  C   UNL     1       1.445   8.147  21.315  0.00  0.00    +0.000 C 
BRANCH  21  22
ATOM     22  C   UNL     1       0.237   8.969  20.983  0.00  0.00    +0.000 C 
ATOM     23  C   UNL     1       0.027  10.255  21.738  0.00  0.00    +0.000 C 
ATOM     24  C   UNL     1       0.279  10.297  20.246  0.00  0.00    +0.000 C 
BRANCH  24  25
ATOM     25  C   UNL     1      -0.865  10.671  19.327  0.00  0.00    +0.000 A 
ATOM     26  C   UNL     1      -1.005  10.068  18.069  0.00  0.00    +0.000 A 
ATOM     27  C   UNL     1      -2.050  10.443  17.224  0.00  0.00    +0.000 A 
ATOM     28  C   UNL     1      -2.938  11.411  17.655  0.00  0.00    +0.000 A 
ATOM     29  F   UNL     1      -3.951  11.802  16.874  0.00  0.00    +0.000 F 
ATOM     30  C   UNL     1      -2.756  11.965  18.908  0.00  0.00    +0.000 A 
ATOM     31  N   UNL     1      -1.748  11.614  19.747  0.00  0.00    +0.000 NA
ENDBRANCH  24  25
ENDBRANCH  21  22
ENDBRANCH  20  21
ENDBRANCH   3  20
TORSDOF 8
ENDMDL
MODEL 2
REMARK VINA RESULT:      -8.0      2.100      2.778
REMARK  Name = 
REMARK  10 active torsions:
REMARK  status: ('A' for Active; 'I' for Inactive)
REMARK    1  A    between atoms: C_1  and  O_2
REMARK    2  A    between atoms: O_2  and  C_3
REMARK    3  A    between atoms: C_6  and  C_7
REMARK    4  A    between atoms: C_7  and  N_8
REMARK    5  A    between atoms: N_8  and  C_9
REMARK    6  A    between atoms: C_11  and  O_12
REMARK    7  A    between atoms: O_12  and  C_13
REMARK    8  A    between atoms: C_13  and  C_14
REMARK    9  A    between atoms: C_16  and  C_17
REMARK   10  A    between atoms: N_25  and  C_26
REMARK                            x       y       z     vdW  Elec       q    Type
REMARK                         _______ _______ _______ _____ _____    ______ ____
ROOT
ATOM      1  C   UNL     1       3.978   3.653  17.903  0.00  0.00    +0.000 A 
ATOM      2  C   UNL     1       3.317   4.778  17.618  0.00  0.00    +0.000 A 
ATOM      3  C   UNL     1       2.396   5.287  18.630  0.00  0.00    +0.000 A 
ATOM      4  N   UNL     1       2.121   4.764  19.774  0.00  0.00    +0.000 NA
ATOM      5  N   UNL     1       2.766   3.574  20.058  0.00  0.00    +0.000 N 
ATOM      6  C   UNL     1       2.462   2.951  21.330  0.00  0.00    +0.000 C 
ATOM      7  C   UNL     1       3.680   2.954  19.210  0.00  0.00    +0.000 A 
ATOM      8  O   UNL     1       4.259   1.895  19.464  0.00  0.00    +0.000 OA
ENDROOT
BRANCH   1   9
ATOM      9  N   UNL     1       4.903   3.058  17.034  0.00  0.00    +0.000 N 
ATOM     10  H   UNL     1       5.627   2.627  17.619  0.00  0.00    +0.000 HD
BRANCH   9  11
ATOM     11  C   UNL     1       5.622   3.899  16.068  0.00  0.00    +0.000 C 
BRANCH  11  15
ATOM     12  C   UNL     1       7.839   6.963  18.181  0.00  0.00    +0.000 A 
ATOM     13  C   UNL     1       6.933   7.301  17.177  0.00  0.00    +0.000 A 
ATOM     14  C   UNL     1       6.224   6.312  16.495  0.00  0.00    +0.000 A 
ATOM     15  C   UNL     1       6.417   4.956  16.797  0.00  0.00    +0.000 A 
ATOM     16  C   UNL     1       7.337   4.620  17.800  0.00  0.00    +0.000 A 
ATOM     17  C   UNL     1       8.045   5.618  18.488  0.00  0.00    +0.000 A 
BRANCH  12  19
ATOM     18  C   UNL     1       8.322   9.280  18.116  0.00  0.00    +0.000 C 
ATOM     19  O   UNL     1       8.486   8.021  18.757  0.00  0.00    +0.000 OA
ENDBRANCH  12  19
ENDBRANCH  11  15
ENDBRANCH   9  11
ENDBRANCH   1   9
BRANCH   3  20
ATOM     20  O   UNL     1       1.868   6.439  18.168  0.00  0.00    +0.000 OA
BRANCH  20  21
ATOM     21  C   UNL     1       2.747   7.517  17.805  0.00  0.00    +0.000 C 
BRANCH  21  22
ATOM     22  C   UNL     1       2.312   8.682  18.641  0.00  0.00    +0.000 C 
ATOM     23  C   UNL     1       1.982   9.972  17.939  0.00  0.00    +0.000 C 
ATOM     24  C   UNL     1       0.894   9.226  18.681  0.00  0.00    +0.000 C 
BRANCH  24  25
ATOM     25  C   UNL     1       0.362   9.814  19.972  0.00  0.00    +0.000 A 
ATOM     26  C   UNL     1       0.059   8.991  21.067  0.00  0.00    +0.000 A 
ATOM     27  C   UNL     1      -0.455   9.546  22.239  0.00  0.00    +0.000 A 
ATOM     28  C   UNL     1      -0.652  10.913  22.296  0.00  0.00    +0.000 A 
ATOM     29  F   UNL     1      -1.146  11.484  23.400  0.00  0.00    +0.000 F 
ATOM     30  C   UNL     1      -0.327  11.675  21.190  0.00  0.00    +0.000 A 
ATOM     31  N   UNL     1       0.175  11.158  20.040  0.00  0.00    +0.000 NA
ENDBRANCH  24  25
ENDBRANCH  21  22
ENDBRANCH  20  21
ENDBRANCH   3  20
TORSDOF 8
ENDMDL
MODEL 3
REMARK VINA RESULT:      -7.9      1.513      2.082
REMARK  Name = 
REMARK  10 active torsions:
REMARK  status: ('A' for Active; 'I' for Inactive)
REMARK    1  A    between atoms: C_1  and  O_2
REMARK    2  A    between atoms: O_2  and  C_3
REMARK    3  A    between atoms: C_6  and  C_7
REMARK    4  A    between atoms: C_7  and  N_8
REMARK    5  A    between atoms: N_8  and  C_9
REMARK    6  A    between atoms: C_11  and  O_12
REMARK    7  A    between atoms: O_12  and  C_13
REMARK    8  A    between atoms: C_13  and  C_14
REMARK    9  A    between atoms: C_16  and  C_17
REMARK   10  A    between atoms: N_25  and  C_26
REMARK                            x       y       z     vdW  Elec       q    Type
REMARK                         _______ _______ _______ _____ _____    ______ ____
ROOT
ATOM      1  C   UNL     1       4.303   4.243  19.518  0.00  0.00    +0.000 A 
ATOM      2  C   UNL     1       3.770   5.466  19.466  0.00  0.00    +0.000 A 
ATOM      3  C   UNL     1       2.498   5.672  20.152  0.00  0.00    +0.000 A 
ATOM      4  N   UNL     1       1.802   4.798  20.792  0.00  0.00    +0.000 NA
ATOM      5  N   UNL     1       2.324   3.517  20.813  0.00  0.00    +0.000 N 
ATOM      6  C   UNL     1       1.554   2.508  21.511  0.00  0.00    +0.000 C 
ATOM      7  C   UNL     1       3.527   3.149  20.218  0.00  0.00    +0.000 A 
ATOM      8  O   UNL     1       3.995   2.008  20.239  0.00  0.00    +0.000 OA
ENDROOT
BRANCH   1   9
ATOM      9  N   UNL     1       5.525   3.905  18.920  0.00  0.00    +0.000 N 
ATOM     10  H   UNL     1       6.266   4.253  19.539  0.00  0.00    +0.000 HD
BRANCH   9  11
ATOM     11  C   UNL     1       5.840   4.433  17.587  0.00  0.00    +0.000 C 
BRANCH  11  15
ATOM     12  C   UNL     1       7.907   8.221  17.966  0.00  0.00    +0.000 A 
ATOM     13  C   UNL     1       6.863   8.065  17.056  0.00  0.00    +0.000 A 
ATOM     14  C   UNL     1       6.202   6.842  16.932  0.00  0.00    +0.000 A 
ATOM     15  C   UNL     1       6.583   5.741  17.713  0.00  0.00    +0.000 A 
ATOM     16  C   UNL     1       7.640   5.900  18.620  0.00  0.00    +0.000 A 
ATOM     17  C   UNL     1       8.299   7.133  18.746  0.00  0.00    +0.000 A 
BRANCH  12  19
ATOM     18  C   UNL     1       9.166   9.826  19.169  0.00  0.00    +0.000 C 
ATOM     19  O   UNL     1       8.486   9.460  17.975  0.00  0.00    +0.000 OA
ENDBRANCH  12  19
ENDBRANCH  11  15
ENDBRANCH   9  11
ENDBRANCH   1   9
BRANCH   3  20
ATOM     20  O   UNL     1       2.158   6.970  20.014  0.00  0.00    +0.000 OA
BRANCH  20  21
ATOM     21  C   UNL     1       2.348   7.613  18.742  0.00  0.00    +0.000 C 
BRANCH  21  22
ATOM     22  C   UNL     1       1.675   8.946  18.868  0.00  0.00    +0.000 C 
ATOM     23  C   UNL     1       2.079  10.035  17.911  0.00  0.00    +0.000 C 
ATOM     24  C   UNL     1       0.666   9.495  17.875  0.00  0.00    +0.000 C 
BRANCH  24  25
ATOM     25  C   UNL     1      -0.461  10.376  18.373  0.00  0.00    +0.000 A 
ATOM     26  C   UNL     1      -0.345  11.080  19.580  0.00  0.00    +0.000 A 
ATOM     27  C   UNL     1      -1.403  11.866  20.037  0.00  0.00    +0.000 A 
ATOM     28  C   UNL     1      -2.555  11.937  19.276  0.00  0.00    +0.000 A 
ATOM     29  F   UNL     1      -3.593  12.677  19.680  0.00  0.00    +0.000 F 
ATOM     30  C   UNL     1      -2.609  11.230  18.091  0.00  0.00    +0.000 A 
ATOM     31  N   UNL     1      -1.592  10.460  17.625  0.00  0.00    +0.000 NA
ENDBRANCH  24  25
ENDBRANCH  21  22
ENDBRANCH  20  21
ENDBRANCH   3  20
TORSDOF 8
ENDMDL
MODEL 4
REMARK VINA RESULT:      -7.9      2.079      2.926
REMARK  Name = 
REMARK  10 active torsions:
REMARK  status: ('A' for Active; 'I' for Inactive)
REMARK    1  A    between atoms: C_1  and  O_2
REMARK    2  A    between atoms: O_2  and  C_3
REMARK    3  A    between atoms: C_6  and  C_7
REMARK    4  A    between atoms: C_7  and  N_8
REMARK    5  A    between atoms: N_8  and  C_9
REMARK    6  A    between atoms: C_11  and  O_12
REMARK    7  A    between atoms: O_12  and  C_13
REMARK    8  A    between atoms: C_13  and  C_14
REMARK    9  A    between atoms: C_16  and  C_17
REMARK   10  A    between atoms: N_25  and  C_26
REMARK                            x       y       z     vdW  Elec       q    Type
REMARK                         _______ _______ _______ _____ _____    ______ ____
ROOT
ATOM      1  C   UNL     1       4.096   4.552  19.566  0.00  0.00    +0.000 A 
ATOM      2  C   UNL     1       3.525   5.756  19.485  0.00  0.00    +0.000 A 
ATOM      3  C   UNL     1       2.197   5.908  20.073  0.00  0.00    +0.000 A 
ATOM      4  N   UNL     1       1.487   5.002  20.649  0.00  0.00    +0.000 NA
ATOM      5  N   UNL     1       2.051   3.740  20.698  0.00  0.00    +0.000 N 
ATOM      6  C   UNL     1       1.268   2.695  21.323  0.00  0.00    +0.000 C 
ATOM      7  C   UNL     1       3.310   3.422  20.192  0.00  0.00    +0.000 A 
ATOM      8  O   UNL     1       3.815   2.299  20.239  0.00  0.00    +0.000 OA
ENDROOT
BRANCH   1   9
ATOM      9  N   UNL     1       5.372   4.265  19.061  0.00  0.00    +0.000 N 
ATOM     10  H   UNL     1       5.967   4.039  19.865  0.00  0.00    +0.000 HD
BRANCH   9  11
ATOM     11  C   UNL     1       6.094   5.299  18.309  0.00  0.00    +0.000 C 
BRANCH  11  15
ATOM     12  C   UNL     1       6.349   4.194  14.129  0.00  0.00    +0.000 A 
ATOM     13  C   UNL     1       7.303   5.031  14.705  0.00  0.00    +0.000 A 
ATOM     14  C   UNL     1       7.215   5.390  16.051  0.00  0.00    +0.000 A 
ATOM     15  C   UNL     1       6.160   4.925  16.849  0.00  0.00    +0.000 A 
ATOM     16  C   UNL     1       5.197   4.091  16.261  0.00  0.00    +0.000 A 
ATOM     17  C   UNL     1       5.290   3.728  14.908  0.00  0.00    +0.000 A 
BRANCH  12  19
ATOM     18  C   UNL     1       5.522   3.168  12.161  0.00  0.00    +0.000 C 
ATOM     19  O   UNL     1       6.534   3.937  12.798  0.00  0.00    +0.000 OA
ENDBRANCH  12  19
ENDBRANCH  11  15
ENDBRANCH   9  11
ENDBRANCH   1   9
BRANCH   3  20
ATOM     20  O   UNL     1       1.822   7.194  19.922  0.00  0.00    +0.000 OA
BRANCH  20  21
ATOM     21  C   UNL     1       1.632   8.010  21.090  0.00  0.00    +0.000 C 
BRANCH  21  22
ATOM     22  C   UNL     1       0.427   8.850  20.795  0.00  0.00    +0.000 C 
ATOM     23  C   UNL     1       0.250  10.130  21.568  0.00  0.00    +0.000 C 
ATOM     24  C   UNL     1       0.468  10.185  20.071  0.00  0.00    +0.000 C 
BRANCH  24  25
ATOM     25  C   UNL     1      -0.693  10.583  19.182  0.00  0.00    +0.000 A 
ATOM     26  C   UNL     1      -1.638  11.526  19.612  0.00  0.00    +0.000 A 
ATOM     27  C   UNL     1      -2.715  11.862  18.791  0.00  0.00    +0.000 A 
ATOM     28  C   UNL     1      -2.825  11.251  17.556  0.00  0.00    +0.000 A 
ATOM     29  F   UNL     1      -3.845  11.542  16.741  0.00  0.00    +0.000 F 
ATOM     30  C   UNL     1      -1.860  10.336  17.182  0.00  0.00    +0.000 A 
ATOM     31  N   UNL     1      -0.802   9.995  17.963  0.00  0.00    +0.000 NA
ENDBRANCH  24  25
ENDBRANCH  21  22
ENDBRANCH  20  21
ENDBRANCH   3  20
TORSDOF 8
ENDMDL
MODEL 5
REMARK VINA RESULT:      -7.9      1.353      1.824
REMARK  Name = 
REMARK  10 active torsions:
REMARK  status: ('A' for Active; 'I' for Inactive)
REMARK    1  A    between atoms: C_1  and  O_2
REMARK    2  A    between atoms: O_2  and  C_3
REMARK    3  A    between atoms: C_6  and  C_7
REMARK    4  A    between atoms: C_7  and  N_8
REMARK    5  A    between atoms: N_8  and  C_9
REMARK    6  A    between atoms: C_11  and  O_12
REMARK    7  A    between atoms: O_12  and  C_13
REMARK    8  A    between atoms: C_13  and  C_14
REMARK    9  A    between atoms: C_16  and  C_17
REMARK   10  A    between atoms: N_25  and  C_26
REMARK                            x       y       z     vdW  Elec       q    Type
REMARK                         _______ _______ _______ _____ _____    ______ ____
ROOT
ATOM      1  C   UNL     1       4.072   3.987  19.258  0.00  0.00    +0.000 A 
ATOM      2  C   UNL     1       3.585   5.116  19.777  0.00  0.00    +0.000 A 
ATOM      3  C   UNL     1       2.140   5.196  19.970  0.00  0.00    +0.000 A 
ATOM      4  N   UNL     1       1.260   4.303  19.676  0.00  0.00    +0.000 NA
ATOM      5  N   UNL     1       1.750   3.147  19.096  0.00  0.00    +0.000 N 
ATOM      6  C   UNL     1       0.782   2.132  18.736  0.00  0.00    +0.000 C 
ATOM      7  C   UNL     1       3.099   2.904  18.847  0.00  0.00    +0.000 A 
ATOM      8  O   UNL     1       3.538   1.873  18.334  0.00  0.00    +0.000 OA
ENDROOT
BRANCH   1   9
ATOM      9  N   UNL     1       5.438   3.765  19.032  0.00  0.00    +0.000 N 
ATOM     10  H   UNL     1       5.949   4.329  19.719  0.00  0.00    +0.000 HD
BRANCH   9  11
ATOM     11  C   UNL     1       6.013   4.112  17.726  0.00  0.00    +0.000 C 
BRANCH  11  15
ATOM     12  C   UNL     1       7.787   8.058  17.928  0.00  0.00    +0.000 A 
ATOM     13  C   UNL     1       6.769   7.779  17.019  0.00  0.00    +0.000 A 
ATOM     14  C   UNL     1       6.202   6.505  16.952  0.00  0.00    +0.000 A 
ATOM     15  C   UNL     1       6.654   5.477  17.791  0.00  0.00    +0.000 A 
ATOM     16  C   UNL     1       7.687   5.760  18.697  0.00  0.00    +0.000 A 
ATOM     17  C   UNL     1       8.251   7.043  18.765  0.00  0.00    +0.000 A 
BRANCH  12  19
ATOM     18  C   UNL     1       9.046   9.757  18.995  0.00  0.00    +0.000 C 
ATOM     19  O   UNL     1       8.272   9.336  17.879  0.00  0.00    +0.000 OA
ENDBRANCH  12  19
ENDBRANCH  11  15
ENDBRANCH   9  11
ENDBRANCH   1   9
BRANCH   3  20
ATOM     20  O   UNL     1       1.862   6.388  20.535  0.00  0.00    +0.000 OA
BRANCH  20  21
ATOM     21  C   UNL     1       2.181   7.594  19.821  0.00  0.00    +0.000 C 
BRANCH  21  22
ATOM     22  C   UNL     1       0.965   8.461  19.947  0.00  0.00    +0.000 C 
ATOM     23  C   UNL     1       0.982   9.558  20.979  0.00  0.00    +0.000 C 
ATOM     24  C   UNL     1       0.900   9.915  19.510  0.00  0.00    +0.000 C 
BRANCH  24  25
ATOM     25  C   UNL     1      -0.402  10.469  18.970  0.00  0.00    +0.000 A 
ATOM     26  C   UNL     1      -1.141  11.411  19.699  0.00  0.00    +0.000 A 
ATOM     27  C   UNL     1      -2.352  11.892  19.198  0.00  0.00    +0.000 A 
ATOM     28  C   UNL     1      -2.797  11.425  17.977  0.00  0.00    +0.000 A 
ATOM     29  F   UNL     1      -3.954  11.857  17.464  0.00  0.00    +0.000 F 
ATOM     30  C   UNL     1      -2.023  10.504  17.298  0.00  0.00    +0.000 A 
ATOM     31  N   UNL     1      -0.842  10.023  17.765  0.00  0.00    +0.000 NA
ENDBRANCH  24  25
ENDBRANCH  21  22
ENDBRANCH  20  21
ENDBRANCH   3  20
TORSDOF 8
ENDMDL
MODEL 6
REMARK VINA RESULT:      -7.9      4.357      8.653
REMARK  Name = 
REMARK  10 active torsions:
REMARK  status: ('A' for Active; 'I' for Inactive)
REMARK    1  A    between atoms: C_1  and  O_2
REMARK    2  A    between atoms: O_2  and  C_3
REMARK    3  A    between atoms: C_6  and  C_7
REMARK    4  A    between atoms: C_7  and  N_8
REMARK    5  A    between atoms: N_8  and  C_9
REMARK    6  A    between atoms: C_11  and  O_12
REMARK    7  A    between atoms: O_12  and  C_13
REMARK    8  A    between atoms: C_13  and  C_14
REMARK    9  A    between atoms: C_16  and  C_17
REMARK   10  A    between atoms: N_25  and  C_26
REMARK                            x       y       z     vdW  Elec       q    Type
REMARK                         _______ _______ _______ _____ _____    ______ ____
ROOT
ATOM      1  C   UNL     1       4.559   6.213  17.391  0.00  0.00    +0.000 A 
ATOM      2  C   UNL     1       5.306   7.302  17.588  0.00  0.00    +0.000 A 
ATOM      3  C   UNL     1       6.653   7.300  17.026  0.00  0.00    +0.000 A 
ATOM      4  N   UNL     1       7.228   6.351  16.372  0.00  0.00    +0.000 NA
ATOM      5  N   UNL     1       6.478   5.201  16.203  0.00  0.00    +0.000 N 
ATOM      6  C   UNL     1       7.105   4.109  15.488  0.00  0.00    +0.000 C 
ATOM      7  C   UNL     1       5.176   5.037  16.667  0.00  0.00    +0.000 A 
ATOM      8  O   UNL     1       4.505   4.015  16.513  0.00  0.00    +0.000 OA
ENDROOT
BRANCH   1   9
ATOM      9  N   UNL     1       3.243   6.082  17.859  0.00  0.00    +0.000 N 
ATOM     10  H   UNL     1       2.664   6.718  17.301  0.00  0.00    +0.000 HD
BRANCH   9  11
ATOM     11  C   UNL     1       2.947   6.402  19.261  0.00  0.00    +0.000 C 
BRANCH  11  15
ATOM     12  C   UNL     1       0.527   9.990  19.434  0.00  0.00    +0.000 A 
ATOM     13  C   UNL     1       1.098   9.572  18.234  0.00  0.00    +0.000 A 
ATOM     14  C   UNL     1       1.882   8.418  18.182  0.00  0.00    +0.000 A 
ATOM     15  C   UNL     1       2.120   7.662  19.339  0.00  0.00    +0.000 A 
ATOM     16  C   UNL     1       1.551   8.093  20.546  0.00  0.00    +0.000 A 
ATOM     17  C   UNL     1       0.759   9.251  20.594  0.00  0.00    +0.000 A 
BRANCH  12  19
ATOM     18  C   UNL     1      -1.254  11.161  18.403  0.00  0.00    +0.000 C 
ATOM     19  O   UNL     1      -0.199  11.146  19.356  0.00  0.00    +0.000 OA
ENDBRANCH  12  19
ENDBRANCH  11  15
ENDBRANCH   9  11
ENDBRANCH   1   9
BRANCH   3  20
ATOM     20  O   UNL     1       7.219   8.493  17.299  0.00  0.00    +0.000 OA
BRANCH  20  21
ATOM     21  C   UNL     1       8.433   8.534  18.066  0.00  0.00    +0.000 C 
BRANCH  21  22
ATOM     22  C   UNL     1       8.652   9.983  18.383  0.00  0.00    +0.000 C 
ATOM     23  C   UNL     1       9.148  10.338  19.759  0.00  0.00    +0.000 C 
ATOM     24  C   UNL     1      10.017  10.626  18.554  0.00  0.00    +0.000 C 
BRANCH  24  25
ATOM     25  C   UNL     1      10.216  12.067  18.131  0.00  0.00    +0.000 A 
ATOM     26  C   UNL     1      11.244  12.422  17.245  0.00  0.00    +0.000 A 
ATOM     27  C   UNL     1      11.429  13.758  16.886  0.00  0.00    +0.000 A 
ATOM     28  C   UNL     1      10.581  14.712  17.416  0.00  0.00    +0.000 A 
ATOM     29  F   UNL     1      10.727  16.003  17.100  0.00  0.00    +0.000 F 
ATOM     30  C   UNL     1       9.581  14.303  18.276  0.00  0.00    +0.000 A 
ATOM     31  N   UNL     1       9.380  13.010  18.639  0.00  0.00    +0.000 NA
ENDBRANCH  24  25
ENDBRANCH  21  22
ENDBRANCH  20  21
ENDBRANCH   3  20
TORSDOF 8
ENDMDL
MODEL 7
REMARK VINA RESULT:      -7.9      2.229      2.713
REMARK  Name = 
REMARK  10 active torsions:
REMARK  status: ('A' for Active; 'I' for Inactive)
REMARK    1  A    between atoms: C_1  and  O_2
REMARK    2  A    between atoms: O_2  and  C_3
REMARK    3  A    between atoms: C_6  and  C_7
REMARK    4  A    between atoms: C_7  and  N_8
REMARK    5  A    between atoms: N_8  and  C_9
REMARK    6  A    between atoms: C_11  and  O_12
REMARK    7  A    between atoms: O_12  and  C_13
REMARK    8  A    between atoms: C_13  and  C_14
REMARK    9  A    between atoms: C_16  and  C_17
REMARK   10  A    between atoms: N_25  and  C_26
REMARK                            x       y       z     vdW  Elec       q    Type
REMARK                         _______ _______ _______ _____ _____    ______ ____
ROOT
ATOM      1  C   UNL     1       4.235   3.949  18.707  0.00  0.00    +0.000 A 
ATOM      2  C   UNL     1       3.823   5.188  18.990  0.00  0.00    +0.000 A 
ATOM      3  C   UNL     1       2.400   5.374  19.258  0.00  0.00    +0.000 A 
ATOM      4  N   UNL     1       1.473   4.480  19.233  0.00  0.00    +0.000 NA
ATOM      5  N   UNL     1       1.883   3.203  18.897  0.00  0.00    +0.000 N 
ATOM      6  C   UNL     1       0.861   2.179  18.841  0.00  0.00    +0.000 C 
ATOM      7  C   UNL     1       3.201   2.849  18.617  0.00  0.00    +0.000 A 
ATOM      8  O   UNL     1       3.569   1.710  18.321  0.00  0.00    +0.000 OA
ENDROOT
BRANCH   1   9
ATOM      9  N   UNL     1       5.572   3.620  18.444  0.00  0.00    +0.000 N 
ATOM     10  H   UNL     1       6.117   3.915  19.261  0.00  0.00    +0.000 HD
BRANCH   9  11
ATOM     11  C   UNL     1       6.242   4.218  17.282  0.00  0.00    +0.000 C 
BRANCH  11  15
ATOM     12  C   UNL     1       8.282   7.859  18.442  0.00  0.00    +0.000 A 
ATOM     13  C   UNL     1       8.363   6.713  19.232  0.00  0.00    +0.000 A 
ATOM     14  C   UNL     1       7.700   5.543  18.858  0.00  0.00    +0.000 A 
ATOM     15  C   UNL     1       6.930   5.499  17.687  0.00  0.00    +0.000 A 
ATOM     16  C   UNL     1       6.844   6.658  16.902  0.00  0.00    +0.000 A 
ATOM     17  C   UNL     1       7.516   7.832  17.278  0.00  0.00    +0.000 A 
BRANCH  12  19
ATOM     18  C   UNL     1       8.725  10.178  18.263  0.00  0.00    +0.000 C 
ATOM     19  O   UNL     1       8.957   8.944  18.929  0.00  0.00    +0.000 OA
ENDBRANCH  12  19
ENDBRANCH  11  15
ENDBRANCH   9  11
ENDBRANCH   1   9
BRANCH   3  20
ATOM     20  O   UNL     1       2.201   6.674  19.559  0.00  0.00    +0.000 OA
BRANCH  20  21
ATOM     21  C   UNL     1       2.397   7.667  18.538  0.00  0.00    +0.000 C 
BRANCH  21  22
ATOM     22  C   UNL     1       1.928   8.955  19.144  0.00  0.00    +0.000 C 
ATOM     23  C   UNL     1       1.361  10.004  18.224  0.00  0.00    +0.000 C 
ATOM     24  C   UNL     1       0.470   9.363  19.266  0.00  0.00    +0.000 C 
BRANCH  24  25
ATOM     25  C   UNL     1       0.030  10.194  20.454  0.00  0.00    +0.000 A 
ATOM     26  C   UNL     1      -0.294   9.588  21.676  0.00  0.00    +0.000 A 
ATOM     27  C   UNL     1      -0.722  10.366  22.753  0.00  0.00    +0.000 A 
ATOM     28  C   UNL     1      -0.814  11.735  22.587  0.00  0.00    +0.000 A 
ATOM     29  F   UNL     1      -1.225  12.515  23.593  0.00  0.00    +0.000 F 
ATOM     30  C   UNL     1      -0.474  12.278  21.364  0.00  0.00    +0.000 A 
ATOM     31  N   UNL     1      -0.053  11.542  20.303  0.00  0.00    +0.000 NA
ENDBRANCH  24  25
ENDBRANCH  21  22
ENDBRANCH  20  21
ENDBRANCH   3  20
TORSDOF 8
ENDMDL
MODEL 8
REMARK VINA RESULT:      -7.8      2.288      3.102
REMARK  Name = 
REMARK  10 active torsions:
REMARK  status: ('A' for Active; 'I' for Inactive)
REMARK    1  A    between atoms: C_1  and  O_2
REMARK    2  A    between atoms: O_2  and  C_3
REMARK    3  A    between atoms: C_6  and  C_7
REMARK    4  A    between atoms: C_7  and  N_8
REMARK    5  A    between atoms: N_8  and  C_9
REMARK    6  A    between atoms: C_11  and  O_12
REMARK    7  A    between atoms: O_12  and  C_13
REMARK    8  A    between atoms: C_13  and  C_14
REMARK    9  A    between atoms: C_16  and  C_17
REMARK   10  A    between atoms: N_25  and  C_26
REMARK                            x       y       z     vdW  Elec       q    Type
REMARK                         _______ _______ _______ _____ _____    ______ ____
ROOT
ATOM      1  C   UNL     1       4.461   4.321  19.057  0.00  0.00    +0.000 A 
ATOM      2  C   UNL     1       4.116   5.605  19.183  0.00  0.00    +0.000 A 
ATOM      3  C   UNL     1       2.767   5.891  19.661  0.00  0.00    +0.000 A 
ATOM      4  N   UNL     1       1.844   5.044  19.959  0.00  0.00    +0.000 NA
ATOM      5  N   UNL     1       2.177   3.712  19.788  0.00  0.00    +0.000 N 
ATOM      6  C   UNL     1       1.154   2.736  20.097  0.00  0.00    +0.000 C 
ATOM      7  C   UNL     1       3.420   3.263  19.348  0.00  0.00    +0.000 A 
ATOM      8  O   UNL     1       3.719   2.077  19.199  0.00  0.00    +0.000 OA
ENDROOT
BRANCH   1   9
ATOM      9  N   UNL     1       5.726   3.898  18.625  0.00  0.00    +0.000 N 
ATOM     10  H   UNL     1       6.252   3.628  19.463  0.00  0.00    +0.000 HD
BRANCH   9  11
ATOM     11  C   UNL     1       6.588   4.842  17.901  0.00  0.00    +0.000 C 
BRANCH  11  15
ATOM     12  C   UNL     1       6.344   4.078  13.644  0.00  0.00    +0.000 A 
ATOM     13  C   UNL     1       5.384   3.568  14.517  0.00  0.00    +0.000 A 
ATOM     14  C   UNL     1       5.468   3.812  15.889  0.00  0.00    +0.000 A 
ATOM     15  C   UNL     1       6.526   4.565  16.419  0.00  0.00    +0.000 A 
ATOM     16  C   UNL     1       7.494   5.067  15.537  0.00  0.00    +0.000 A 
ATOM     17  C   UNL     1       7.404   4.824  14.158  0.00  0.00    +0.000 A 
BRANCH  12  19
ATOM     18  C   UNL     1       4.885   3.223  11.986  0.00  0.00    +0.000 C 
ATOM     19  O   UNL     1       6.161   3.751  12.329  0.00  0.00    +0.000 OA
ENDBRANCH  12  19
ENDBRANCH  11  15
ENDBRANCH   9  11
ENDBRANCH   1   9
BRANCH   3  20
ATOM     20  O   UNL     1       2.636   7.230  19.755  0.00  0.00    +0.000 OA
BRANCH  20  21
ATOM     21  C   UNL     1       2.246   7.980  18.593  0.00  0.00    +0.000 C 
BRANCH  21  22
ATOM     22  C   UNL     1       0.970   8.668  18.975  0.00  0.00    +0.000 C 
ATOM     23  C   UNL     1       1.024   9.702  20.068  0.00  0.00    +0.000 C 
ATOM     24  C   UNL     1       0.651  10.119  18.661  0.00  0.00    +0.000 C 
BRANCH  24  25
ATOM     25  C   UNL     1      -0.783  10.519  18.379  0.00  0.00    +0.000 A 
ATOM     26  C   UNL     1      -1.490   9.955  17.307  0.00  0.00    +0.000 A 
ATOM     27  C   UNL     1      -2.801  10.354  17.046  0.00  0.00    +0.000 A 
ATOM     28  C   UNL     1      -3.381  11.305  17.863  0.00  0.00    +0.000 A 
ATOM     29  F   UNL     1      -4.635  11.718  17.644  0.00  0.00    +0.000 F 
ATOM     30  C   UNL     1      -2.640  11.819  18.909  0.00  0.00    +0.000 A 
ATOM     31  N   UNL     1      -1.364  11.446  19.184  0.00  0.00    +0.000 NA
ENDBRANCH  24  25
ENDBRANCH  21  22
ENDBRANCH  20  21
ENDBRANCH   3  20
TORSDOF 8
ENDMDL
MODEL 9
REMARK VINA RESULT:      -7.8      2.059      2.680
REMARK  Name = 
REMARK  10 active torsions:
REMARK  status: ('A' for Active; 'I' for Inactive)
REMARK    1  A    between atoms: C_1  and  O_2
REMARK    2  A    between atoms: O_2  and  C_3
REMARK    3  A    between atoms: C_6  and  C_7
REMARK    4  A    between atoms: C_7  and  N_8
REMARK    5  A    between atoms: N_8  and  C_9
REMARK    6  A    between atoms: C_11  and  O_12
REMARK    7  A    between atoms: O_12  and  C_13
REMARK    8  A    between atoms: C_13  and  C_14
REMARK    9  A    between atoms: C_16  and  C_17
REMARK   10  A    between atoms: N_25  and  C_26
REMARK                            x       y       z     vdW  Elec       q    Type
REMARK                         _______ _______ _______ _____ _____    ______ ____
ROOT
ATOM      1  C   UNL     1       3.750   4.132  19.566  0.00  0.00    +0.000 A 
ATOM      2  C   UNL     1       3.205   5.215  20.126  0.00  0.00    +0.000 A 
ATOM      3  C   UNL     1       1.760   5.203  20.339  0.00  0.00    +0.000 A 
ATOM      4  N   UNL     1       0.930   4.270  20.026  0.00  0.00    +0.000 NA
ATOM      5  N   UNL     1       1.479   3.164  19.404  0.00  0.00    +0.000 N 
ATOM      6  C   UNL     1       0.567   2.105  19.023  0.00  0.00    +0.000 C 
ATOM      7  C   UNL     1       2.836   3.008  19.131  0.00  0.00    +0.000 A 
ATOM      8  O   UNL     1       3.327   2.021  18.581  0.00  0.00    +0.000 OA
ENDROOT
BRANCH   1   9
ATOM      9  N   UNL     1       5.123   3.998  19.316  0.00  0.00    +0.000 N 
ATOM     10  H   UNL     1       5.578   3.853  20.224  0.00  0.00    +0.000 HD
BRANCH   9  11
ATOM     11  C   UNL     1       5.847   5.107  18.682  0.00  0.00    +0.000 C 
BRANCH  11  15
ATOM     12  C   UNL     1       6.397   4.315  14.459  0.00  0.00    +0.000 A 
ATOM     13  C   UNL     1       5.166   4.091  15.073  0.00  0.00    +0.000 A 
ATOM     14  C   UNL     1       4.993   4.342  16.435  0.00  0.00    +0.000 A 
ATOM     15  C   UNL     1       6.057   4.815  17.216  0.00  0.00    +0.000 A 
ATOM     16  C   UNL     1       7.297   5.028  16.596  0.00  0.00    +0.000 A 
ATOM     17  C   UNL     1       7.466   4.779  15.225  0.00  0.00    +0.000 A 
BRANCH  12  19
ATOM     18  C   UNL     1       7.409   4.709  12.355  0.00  0.00    +0.000 C 
ATOM     19  O   UNL     1       6.442   4.009  13.127  0.00  0.00    +0.000 OA
ENDBRANCH  12  19
ENDBRANCH  11  15
ENDBRANCH   9  11
ENDBRANCH   1   9
BRANCH   3  20
ATOM     20  O   UNL     1       1.421   6.358  20.946  0.00  0.00    +0.000 OA
BRANCH  20  21
ATOM     21  C   UNL     1       1.955   7.595  20.447  0.00  0.00    +0.000 C 
BRANCH  21  22
ATOM     22  C   UNL     1       0.793   8.542  20.409  0.00  0.00    +0.000 C 
ATOM     23  C   UNL     1       0.895   9.819  21.200  0.00  0.00    +0.000 C 
ATOM     24  C   UNL     1       0.800   9.880  19.691  0.00  0.00    +0.000 C 
BRANCH  24  25
ATOM     25  C   UNL     1      -0.481  10.392  19.064  0.00  0.00    +0.000 A 
ATOM     26  C   UNL     1      -0.902   9.930  17.809  0.00  0.00    +0.000 A 
ATOM     27  C   UNL     1      -2.071  10.432  17.235  0.00  0.00    +0.000 A 
ATOM     28  C   UNL     1      -2.798  11.381  17.929  0.00  0.00    +0.000 A 
ATOM     29  F   UNL     1      -3.921  11.890  17.411  0.00  0.00    +0.000 F 
ATOM     30  C   UNL     1      -2.338  11.792  19.165  0.00  0.00    +0.000 A 
ATOM     31  N   UNL     1      -1.206  11.317  19.744  0.00  0.00    +0.000 NA
ENDBRANCH  24  25
ENDBRANCH  21  22
ENDBRANCH  20  21
ENDBRANCH   3  20
TORSDOF 8
ENDMDL
