MODEL 1
REMARK VINA RESULT:      -7.9      0.000      0.000
REMARK  Name = 
REMARK  4 active torsions:
REMARK  status: ('A' for Active; 'I' for Inactive)
REMARK    1  A    between atoms: S_2  and  C_4
REMARK    2  A    between atoms: S_2  and  C_21
REMARK    3  A    between atoms: C_4  and  C_5
REMARK    4  A    between atoms: C_10  and  C_11
REMARK                            x       y       z     vdW  Elec       q    Type
REMARK                         _______ _______ _______ _____ _____    ______ ____
ROOT
ATOM      1  C   UNL     1       0.669  10.306  19.773  0.00  0.00    +0.000 A 
ATOM      2  C   UNL     1       0.207  10.036  21.019  0.00  0.00    +0.000 A 
ATOM      3  C   UNL     1       0.467   8.776  21.697  0.00  0.00    +0.000 A 
ATOM      4  C   UNL     1       1.205   7.839  21.080  0.00  0.00    +0.000 A 
ATOM      5  N   UNL     1       1.707   8.103  19.811  0.00  0.00    +0.000 N 
ATOM      6  C   UNL     1       2.530   7.376  18.968  0.00  0.00    +0.000 A 
ATOM      7  N   UNL     1       2.738   8.078  17.868  0.00  0.00    +0.000 NA
ATOM      8  N   UNL     1       2.048   9.263  17.959  0.00  0.00    +0.000 NA
ATOM      9  C   UNL     1       1.446   9.288  19.127  0.00  0.00    +0.000 A 
ENDROOT
BRANCH   6  10
ATOM     10  C   UNL     1       3.093   6.010  19.290  0.00  0.00    +0.000 C 
ATOM     11  C   UNL     1       2.027   4.903  19.169  0.00  0.00    +0.000 C 
ATOM     12  C   UNL     1       1.660   4.438  17.759  0.00  0.00    +0.000 C 
ATOM     13  C   UNL     1       2.597   3.394  17.158  0.00  0.00    +0.000 C 
ATOM     14  C   UNL     1       4.043   3.821  16.951  0.00  0.00    +0.000 C 
ATOM     15  C   UNL     1       4.753   4.320  18.205  0.00  0.00    +0.000 C 
ATOM     16  C   UNL     1       4.411   5.772  18.532  0.00  0.00    +0.000 C 
ENDBRANCH   6  10
BRANCH   1  17
ATOM     17  C   UNL     1       0.342  11.628  19.114  0.00  0.00    +0.000 C 
BRANCH  17  19
ATOM     18  O   UNL     1       1.987  12.665  20.872  0.00  0.00    +0.000 OA
ATOM     19  S   UNL     1       1.590  12.857  19.491  0.00  0.00    +0.000 S 
ATOM     20  O   UNL     1       2.643  12.757  18.496  0.00  0.00    +0.000 OA
BRANCH  19  21
ATOM     21  C   UNL     1       0.771  14.427  19.354  0.00  0.00    +0.000 A 
ATOM     22  C   UNL     1       1.362  15.471  18.621  0.00  0.00    +0.000 A 
ATOM     23 CL   UNL     1       2.944  15.428  17.916  0.00  0.00    +0.000 Cl
ATOM     24  C   UNL     1       0.695  16.697  18.465  0.00  0.00    +0.000 A 
ATOM     25  C   UNL     1      -0.541  16.911  19.059  0.00  0.00    +0.000 A 
ATOM     26  C   UNL     1      -1.117  15.895  19.811  0.00  0.00    +0.000 A 
ATOM     27  C   UNL     1      -0.481  14.654  19.954  0.00  0.00    +0.000 A 
ATOM     28 CL   UNL     1      -1.336  13.539  20.968  0.00  0.00    +0.000 Cl
ENDBRANCH  19  21
ENDBRANCH  17  19
ENDBRANCH   1  17
TORSDOF 4
ENDMDL
MODEL 2
REMARK VINA RESULT:      -7.8      2.650      3.438
REMARK  Name = 
REMARK  4 active torsions:
REMARK  status: ('A' for Active; 'I' for Inactive)
REMARK    1  A    between atoms: S_2  and  C_4
REMARK    2  A    between atoms: S_2  and  C_21
REMARK    3  A    between atoms: C_4  and  C_5
REMARK    4  A    between atoms: C_10  and  C_11
REMARK                            x       y       z     vdW  Elec       q    Type
REMARK                         _______ _______ _______ _____ _____    ______ ____
ROOT
ATOM      1  C   UNL     1       0.410  10.280  19.450  0.00  0.00    +0.000 A 
ATOM      2  C   UNL     1       0.095  10.032  20.745  0.00  0.00    +0.000 A 
ATOM      3  C   UNL     1       0.572   8.859  21.460  0.00  0.00    +0.000 A 
ATOM      4  C   UNL     1       1.370   7.985  20.825  0.00  0.00    +0.000 A 
ATOM      5  N   UNL     1       1.724   8.231  19.503  0.00  0.00    +0.000 N 
ATOM      6  C   UNL     1       2.559   7.561  18.626  0.00  0.00    +0.000 A 
ATOM      7  N   UNL     1       2.580   8.213  17.477  0.00  0.00    +0.000 NA
ATOM      8  N   UNL     1       1.752   9.306  17.571  0.00  0.00    +0.000 NA
ATOM      9  C   UNL     1       1.254   9.328  18.787  0.00  0.00    +0.000 A 
ENDROOT
BRANCH   6  10
ATOM     10  C   UNL     1       3.320   6.298  18.963  0.00  0.00    +0.000 C 
ATOM     11  C   UNL     1       2.383   5.086  19.129  0.00  0.00    +0.000 C 
ATOM     12  C   UNL     1       1.844   4.439  17.853  0.00  0.00    +0.000 C 
ATOM     13  C   UNL     1       2.781   3.434  17.192  0.00  0.00    +0.000 C 
ATOM     14  C   UNL     1       4.115   3.975  16.696  0.00  0.00    +0.000 C 
ATOM     15  C   UNL     1       4.961   4.672  17.758  0.00  0.00    +0.000 C 
ATOM     16  C   UNL     1       4.514   6.111  18.010  0.00  0.00    +0.000 C 
ENDBRANCH   6  10
BRANCH   1  17
ATOM     17  C   UNL     1      -0.142  11.508  18.758  0.00  0.00    +0.000 C 
BRANCH  17  19
ATOM     18  O   UNL     1      -1.895  11.774  16.826  0.00  0.00    +0.000 OA
ATOM     19  S   UNL     1      -1.804  11.211  18.160  0.00  0.00    +0.000 S 
ATOM     20  O   UNL     1      -2.087   9.793  18.283  0.00  0.00    +0.000 OA
BRANCH  19  21
ATOM     21  C   UNL     1      -2.871  12.139  19.235  0.00  0.00    +0.000 A 
ATOM     22  C   UNL     1      -4.264  11.963  19.175  0.00  0.00    +0.000 A 
ATOM     23 CL   UNL     1      -5.099  10.987  18.011  0.00  0.00    +0.000 Cl
ATOM     24  C   UNL     1      -5.109  12.655  20.058  0.00  0.00    +0.000 A 
ATOM     25  C   UNL     1      -4.585  13.549  20.982  0.00  0.00    +0.000 A 
ATOM     26  C   UNL     1      -3.213  13.753  21.028  0.00  0.00    +0.000 A 
ATOM     27  C   UNL     1      -2.350  13.050  20.174  0.00  0.00    +0.000 A 
ATOM     28 CL   UNL     1      -0.681  13.479  20.352  0.00  0.00    +0.000 Cl
ENDBRANCH  19  21
ENDBRANCH  17  19
ENDBRANCH   1  17
TORSDOF 4
ENDMDL
MODEL 3
REMARK VINA RESULT:      -7.6      2.558      3.115
REMARK  Name = 
REMARK  4 active torsions:
REMARK  status: ('A' for Active; 'I' for Inactive)
REMARK    1  A    between atoms: S_2  and  C_4
REMARK    2  A    between atoms: S_2  and  C_21
REMARK    3  A    between atoms: C_4  and  C_5
REMARK    4  A    between atoms: C_10  and  C_11
REMARK                            x       y       z     vdW  Elec       q    Type
REMARK                         _______ _______ _______ _____ _____    ______ ____
ROOT
ATOM      1  C   UNL     1       0.445  10.296  19.750  0.00  0.00    +0.000 A 
ATOM      2  C   UNL     1       0.134  10.050  21.046  0.00  0.00    +0.000 A 
ATOM      3  C   UNL     1       0.558   8.845  21.741  0.00  0.00    +0.000 A 
ATOM      4  C   UNL     1       1.299   7.938  21.087  0.00  0.00    +0.000 A 
ATOM      5  N   UNL     1       1.649   8.179  19.763  0.00  0.00    +0.000 N 
ATOM      6  C   UNL     1       2.435   7.476  18.867  0.00  0.00    +0.000 A 
ATOM      7  N   UNL     1       2.477   8.140  17.725  0.00  0.00    +0.000 NA
ATOM      8  N   UNL     1       1.710   9.274  17.842  0.00  0.00    +0.000 NA
ATOM      9  C   UNL     1       1.229   9.309  19.065  0.00  0.00    +0.000 A 
ENDROOT
BRANCH   6  10
ATOM     10  C   UNL     1       3.132   6.171  19.180  0.00  0.00    +0.000 C 
ATOM     11  C   UNL     1       2.151   4.982  19.195  0.00  0.00    +0.000 C 
ATOM     12  C   UNL     1       1.696   4.434  17.842  0.00  0.00    +0.000 C 
ATOM     13  C   UNL     1       2.654   3.441  17.192  0.00  0.00    +0.000 C 
ATOM     14  C   UNL     1       4.037   3.968  16.836  0.00  0.00    +0.000 C 
ATOM     15  C   UNL     1       4.816   4.569  18.002  0.00  0.00    +0.000 C 
ATOM     16  C   UNL     1       4.391   6.004  18.311  0.00  0.00    +0.000 C 
ENDBRANCH   6  10
BRANCH   1  17
ATOM     17  C   UNL     1      -0.048  11.560  19.079  0.00  0.00    +0.000 C 
BRANCH  17  19
ATOM     18  O   UNL     1      -1.636  11.909  17.022  0.00  0.00    +0.000 OA
ATOM     19  S   UNL     1      -1.659  11.303  18.338  0.00  0.00    +0.000 S 
ATOM     20  O   UNL     1      -1.964   9.884  18.391  0.00  0.00    +0.000 OA
BRANCH  19  21
ATOM     21  C   UNL     1      -2.802  12.207  19.355  0.00  0.00    +0.000 A 
ATOM     22  C   UNL     1      -2.330  13.162  20.272  0.00  0.00    +0.000 A 
ATOM     23 CL   UNL     1      -0.662  13.467  20.629  0.00  0.00    +0.000 Cl
ATOM     24  C   UNL     1      -3.231  13.917  21.040  0.00  0.00    +0.000 A 
ATOM     25  C   UNL     1      -4.599  13.710  20.931  0.00  0.00    +0.000 A 
ATOM     26  C   UNL     1      -5.072  12.747  20.050  0.00  0.00    +0.000 A 
ATOM     27  C   UNL     1      -4.191  12.003  19.253  0.00  0.00    +0.000 A 
ATOM     28 CL   UNL     1      -4.971  10.821  18.256  0.00  0.00    +0.000 Cl
ENDBRANCH  19  21
ENDBRANCH  17  19
ENDBRANCH   1  17
TORSDOF 4
ENDMDL
MODEL 4
REMARK VINA RESULT:      -7.6      1.879      2.571
REMARK  Name = 
REMARK  4 active torsions:
REMARK  status: ('A' for Active; 'I' for Inactive)
REMARK    1  A    between atoms: S_2  and  C_4
REMARK    2  A    between atoms: S_2  and  C_21
REMARK    3  A    between atoms: C_4  and  C_5
REMARK    4  A    between atoms: C_10  and  C_11
REMARK                            x       y       z     vdW  Elec       q    Type
REMARK                         _______ _______ _______ _____ _____    ______ ____
ROOT
ATOM      1  C   UNL     1       0.215  10.156  19.452  0.00  0.00    +0.000 A 
ATOM      2  C   UNL     1      -0.040   9.875  20.754  0.00  0.00    +0.000 A 
ATOM      3  C   UNL     1       0.562   8.747  21.446  0.00  0.00    +0.000 A 
ATOM      4  C   UNL     1       1.418   7.952  20.784  0.00  0.00    +0.000 A 
ATOM      5  N   UNL     1       1.711   8.235  19.454  0.00  0.00    +0.000 N 
ATOM      6  C   UNL     1       2.578   7.648  18.550  0.00  0.00    +0.000 A 
ATOM      7  N   UNL     1       2.508   8.304  17.406  0.00  0.00    +0.000 NA
ATOM      8  N   UNL     1       1.587   9.317  17.530  0.00  0.00    +0.000 NA
ATOM      9  C   UNL     1       1.123   9.288  18.759  0.00  0.00    +0.000 A 
ENDROOT
BRANCH   6  10
ATOM     10  C   UNL     1       3.460   6.458  18.857  0.00  0.00    +0.000 C 
ATOM     11  C   UNL     1       2.636   5.183  19.127  0.00  0.00    +0.000 C 
ATOM     12  C   UNL     1       2.053   4.458  17.914  0.00  0.00    +0.000 C 
ATOM     13  C   UNL     1       3.013   3.507  17.206  0.00  0.00    +0.000 C 
ATOM     14  C   UNL     1       4.257   4.133  16.593  0.00  0.00    +0.000 C 
ATOM     15  C   UNL     1       5.125   4.925  17.566  0.00  0.00    +0.000 C 
ATOM     16  C   UNL     1       4.588   6.332  17.817  0.00  0.00    +0.000 C 
ENDBRANCH   6  10
BRANCH   1  17
ATOM     17  C   UNL     1      -0.464  11.332  18.784  0.00  0.00    +0.000 C 
BRANCH  17  19
ATOM     18  O   UNL     1       1.637  12.614  19.684  0.00  0.00    +0.000 OA
ATOM     19  S   UNL     1       0.258  12.879  19.324  0.00  0.00    +0.000 S 
ATOM     20  O   UNL     1       0.041  13.871  18.286  0.00  0.00    +0.000 OA
BRANCH  19  21
ATOM     21  C   UNL     1      -0.630  13.334  20.794  0.00  0.00    +0.000 A 
ATOM     22  C   UNL     1      -1.991  13.008  20.927  0.00  0.00    +0.000 A 
ATOM     23 CL   UNL     1      -2.974  12.295  19.691  0.00  0.00    +0.000 Cl
ATOM     24  C   UNL     1      -2.685  13.318  22.108  0.00  0.00    +0.000 A 
ATOM     25  C   UNL     1      -2.049  13.981  23.149  0.00  0.00    +0.000 A 
ATOM     26  C   UNL     1      -0.713  14.334  23.013  0.00  0.00    +0.000 A 
ATOM     27  C   UNL     1       0.006  14.007  21.854  0.00  0.00    +0.000 A 
ATOM     28 CL   UNL     1       1.642  14.576  21.857  0.00  0.00    +0.000 Cl
ENDBRANCH  19  21
ENDBRANCH  17  19
ENDBRANCH   1  17
TORSDOF 4
ENDMDL
MODEL 5
REMARK VINA RESULT:      -7.5      1.419      2.757
REMARK  Name = 
REMARK  4 active torsions:
REMARK  status: ('A' for Active; 'I' for Inactive)
REMARK    1  A    between atoms: S_2  and  C_4
REMARK    2  A    between atoms: S_2  and  C_21
REMARK    3  A    between atoms: C_4  and  C_5
REMARK    4  A    between atoms: C_10  and  C_11
REMARK                            x       y       z     vdW  Elec       q    Type
REMARK                         _______ _______ _______ _____ _____    ______ ____
ROOT
ATOM      1  C   UNL     1       0.458  10.526  19.656  0.00  0.00    +0.000 A 
ATOM      2  C   UNL     1       0.987  10.868  18.455  0.00  0.00    +0.000 A 
ATOM      3  C   UNL     1       1.900  10.004  17.725  0.00  0.00    +0.000 A 
ATOM      4  C   UNL     1       2.230   8.810  18.244  0.00  0.00    +0.000 A 
ATOM      5  N   UNL     1       1.682   8.430  19.464  0.00  0.00    +0.000 N 
ATOM      6  C   UNL     1       1.783   7.265  20.204  0.00  0.00    +0.000 A 
ATOM      7  N   UNL     1       1.048   7.389  21.295  0.00  0.00    +0.000 NA
ATOM      8  N   UNL     1       0.468   8.635  21.301  0.00  0.00    +0.000 NA
ATOM      9  C   UNL     1       0.832   9.252  20.198  0.00  0.00    +0.000 A 
ENDROOT
BRANCH   6  10
ATOM     10  C   UNL     1       2.599   6.059  19.796  0.00  0.00    +0.000 C 
ATOM     11  C   UNL     1       2.364   4.858  20.733  0.00  0.00    +0.000 C 
ATOM     12  C   UNL     1       1.069   4.067  20.545  0.00  0.00    +0.000 C 
ATOM     13  C   UNL     1       1.111   3.009  19.446  0.00  0.00    +0.000 C 
ATOM     14  C   UNL     1       1.348   3.512  18.030  0.00  0.00    +0.000 C 
ATOM     15  C   UNL     1       2.619   4.334  17.842  0.00  0.00    +0.000 C 
ATOM     16  C   UNL     1       2.449   5.785  18.288  0.00  0.00    +0.000 C 
ENDBRANCH   6  10
BRANCH   1  17
ATOM     17  C   UNL     1      -0.467  11.483  20.376  0.00  0.00    +0.000 C 
BRANCH  17  19
ATOM     18  O   UNL     1      -0.217  13.035  22.474  0.00  0.00    +0.000 OA
ATOM     19  S   UNL     1       0.464  12.756  21.226  0.00  0.00    +0.000 S 
ATOM     20  O   UNL     1       1.845  12.319  21.327  0.00  0.00    +0.000 OA
BRANCH  19  21
ATOM     21  C   UNL     1       0.357  14.197  20.192  0.00  0.00    +0.000 A 
ATOM     22  C   UNL     1      -0.829  14.949  20.147  0.00  0.00    +0.000 A 
ATOM     23 CL   UNL     1      -2.315  14.520  20.929  0.00  0.00    +0.000 Cl
ATOM     24  C   UNL     1      -0.902  16.118  19.372  0.00  0.00    +0.000 A 
ATOM     25  C   UNL     1       0.183  16.532  18.612  0.00  0.00    +0.000 A 
ATOM     26  C   UNL     1       1.349  15.777  18.626  0.00  0.00    +0.000 A 
ATOM     27  C   UNL     1       1.452  14.623  19.416  0.00  0.00    +0.000 A 
ATOM     28 CL   UNL     1       2.966  13.797  19.259  0.00  0.00    +0.000 Cl
ENDBRANCH  19  21
ENDBRANCH  17  19
ENDBRANCH   1  17
TORSDOF 4
ENDMDL
MODEL 6
REMARK VINA RESULT:      -7.4      2.889      3.893
REMARK  Name = 
REMARK  4 active torsions:
REMARK  status: ('A' for Active; 'I' for Inactive)
REMARK    1  A    between atoms: S_2  and  C_4
REMARK    2  A    between atoms: S_2  and  C_21
REMARK    3  A    between atoms: C_4  and  C_5
REMARK    4  A    between atoms: C_10  and  C_11
REMARK                            x       y       z     vdW  Elec       q    Type
REMARK                         _______ _______ _______ _____ _____    ______ ____
ROOT
ATOM      1  C   UNL     1       0.776  10.295  19.810  0.00  0.00    +0.000 A 
ATOM      2  C   UNL     1       1.285  10.703  18.621  0.00  0.00    +0.000 A 
ATOM      3  C   UNL     1       2.108   9.846  17.783  0.00  0.00    +0.000 A 
ATOM      4  C   UNL     1       2.371   8.593  18.186  0.00  0.00    +0.000 A 
ATOM      5  N   UNL     1       1.841   8.146  19.392  0.00  0.00    +0.000 N 
ATOM      6  C   UNL     1       1.886   6.917  20.027  0.00  0.00    +0.000 A 
ATOM      7  N   UNL     1       1.201   6.996  21.154  0.00  0.00    +0.000 NA
ATOM      8  N   UNL     1       0.711   8.273  21.289  0.00  0.00    +0.000 NA
ATOM      9  C   UNL     1       1.078   8.957  20.228  0.00  0.00    +0.000 A 
ENDROOT
BRANCH   6  10
ATOM     10  C   UNL     1       2.600   5.699  19.486  0.00  0.00    +0.000 C 
ATOM     11  C   UNL     1       2.791   4.614  20.564  0.00  0.00    +0.000 C 
ATOM     12  C   UNL     1       1.572   3.762  20.922  0.00  0.00    +0.000 C 
ATOM     13  C   UNL     1       1.315   2.581  19.993  0.00  0.00    +0.000 C 
ATOM     14  C   UNL     1       1.012   2.915  18.539  0.00  0.00    +0.000 C 
ATOM     15  C   UNL     1       2.077   3.751  17.836  0.00  0.00    +0.000 C 
ATOM     16  C   UNL     1       1.962   5.238  18.162  0.00  0.00    +0.000 C 
ENDBRANCH   6  10
BRANCH   1  17
ATOM     17  C   UNL     1      -0.054  11.247  20.645  0.00  0.00    +0.000 C 
BRANCH  17  19
ATOM     18  O   UNL     1      -0.697  13.285  19.127  0.00  0.00    +0.000 OA
ATOM     19  S   UNL     1      -1.290  12.067  19.642  0.00  0.00    +0.000 S 
ATOM     20  O   UNL     1      -1.778  11.120  18.656  0.00  0.00    +0.000 OA
BRANCH  19  21
ATOM     21  C   UNL     1      -2.598  12.507  20.760  0.00  0.00    +0.000 A 
ATOM     22  C   UNL     1      -3.941  12.396  20.358  0.00  0.00    +0.000 A 
ATOM     23 CL   UNL     1      -4.476  11.984  18.763  0.00  0.00    +0.000 Cl
ATOM     24  C   UNL     1      -4.979  12.692  21.256  0.00  0.00    +0.000 A 
ATOM     25  C   UNL     1      -4.699  13.131  22.543  0.00  0.00    +0.000 A 
ATOM     26  C   UNL     1      -3.375  13.274  22.938  0.00  0.00    +0.000 A 
ATOM     27  C   UNL     1      -2.324  12.955  22.066  0.00  0.00    +0.000 A 
ATOM     28 CL   UNL     1      -0.749  13.245  22.728  0.00  0.00    +0.000 Cl
ENDBRANCH  19  21
ENDBRANCH  17  19
ENDBRANCH   1  17
TORSDOF 4
ENDMDL
MODEL 7
REMARK VINA RESULT:      -7.4      2.227      2.599
REMARK  Name = 
REMARK  4 active torsions:
REMARK  status: ('A' for Active; 'I' for Inactive)
REMARK    1  A    between atoms: S_2  and  C_4
REMARK    2  A    between atoms: S_2  and  C_21
REMARK    3  A    between atoms: C_4  and  C_5
REMARK    4  A    between atoms: C_10  and  C_11
REMARK                            x       y       z     vdW  Elec       q    Type
REMARK                         _______ _______ _______ _____ _____    ______ ____
ROOT
ATOM      1  C   UNL     1       0.674  10.144  19.626  0.00  0.00    +0.000 A 
ATOM      2  C   UNL     1       0.161   9.889  20.854  0.00  0.00    +0.000 A 
ATOM      3  C   UNL     1       0.405   8.644  21.565  0.00  0.00    +0.000 A 
ATOM      4  C   UNL     1       1.181   7.707  20.997  0.00  0.00    +0.000 A 
ATOM      5  N   UNL     1       1.736   7.957  19.747  0.00  0.00    +0.000 N 
ATOM      6  C   UNL     1       2.604   7.227  18.953  0.00  0.00    +0.000 A 
ATOM      7  N   UNL     1       2.853   7.912  17.852  0.00  0.00    +0.000 NA
ATOM      8  N   UNL     1       2.144   9.090  17.892  0.00  0.00    +0.000 NA
ATOM      9  C   UNL     1       1.491   9.126  19.032  0.00  0.00    +0.000 A 
ENDROOT
BRANCH   6  10
ATOM     10  C   UNL     1       3.169   5.873  19.323  0.00  0.00    +0.000 C 
ATOM     11  C   UNL     1       2.116   4.754  19.200  0.00  0.00    +0.000 C 
ATOM     12  C   UNL     1       1.791   4.252  17.793  0.00  0.00    +0.000 C 
ATOM     13  C   UNL     1       2.752   3.203  17.243  0.00  0.00    +0.000 C 
ATOM     14  C   UNL     1       4.200   3.637  17.064  0.00  0.00    +0.000 C 
ATOM     15  C   UNL     1       4.872   4.172  18.324  0.00  0.00    +0.000 C 
ATOM     16  C   UNL     1       4.510   5.629  18.607  0.00  0.00    +0.000 C 
ENDBRANCH   6  10
BRANCH   1  17
ATOM     17  C   UNL     1       0.359  11.451  18.930  0.00  0.00    +0.000 C 
BRANCH  17  19
ATOM     18  O   UNL     1       1.050  12.429  21.262  0.00  0.00    +0.000 OA
ATOM     19  S   UNL     1       0.247  12.793  20.111  0.00  0.00    +0.000 S 
ATOM     20  O   UNL     1       0.609  14.026  19.436  0.00  0.00    +0.000 OA
BRANCH  19  21
ATOM     21  C   UNL     1      -1.457  12.850  20.609  0.00  0.00    +0.000 A 
ATOM     22  C   UNL     1      -2.467  12.441  19.722  0.00  0.00    +0.000 A 
ATOM     23 CL   UNL     1      -2.223  11.993  18.066  0.00  0.00    +0.000 Cl
ATOM     24  C   UNL     1      -3.812  12.434  20.128  0.00  0.00    +0.000 A 
ATOM     25  C   UNL     1      -4.169  12.862  21.399  0.00  0.00    +0.000 A 
ATOM     26  C   UNL     1      -3.180  13.298  22.272  0.00  0.00    +0.000 A 
ATOM     27  C   UNL     1      -1.829  13.285  21.896  0.00  0.00    +0.000 A 
ATOM     28 CL   UNL     1      -0.757  13.910  23.104  0.00  0.00    +0.000 Cl
ENDBRANCH  19  21
ENDBRANCH  17  19
ENDBRANCH   1  17
TORSDOF 4
ENDMDL
MODEL 8
REMARK VINA RESULT:      -7.4      1.035      1.938
REMARK  Name = 
REMARK  4 active torsions:
REMARK  status: ('A' for Active; 'I' for Inactive)
REMARK    1  A    between atoms: S_2  and  C_4
REMARK    2  A    between atoms: S_2  and  C_21
REMARK    3  A    between atoms: C_4  and  C_5
REMARK    4  A    between atoms: C_10  and  C_11
REMARK                            x       y       z     vdW  Elec       q    Type
REMARK                         _______ _______ _______ _____ _____    ______ ____
ROOT
ATOM      1  C   UNL     1       0.570  10.319  19.795  0.00  0.00    +0.000 A 
ATOM      2  C   UNL     1       0.093  10.012  21.027  0.00  0.00    +0.000 A 
ATOM      3  C   UNL     1       0.370   8.745  21.683  0.00  0.00    +0.000 A 
ATOM      4  C   UNL     1       1.140   7.838  21.060  0.00  0.00    +0.000 A 
ATOM      5  N   UNL     1       1.658   8.140  19.806  0.00  0.00    +0.000 N 
ATOM      6  C   UNL     1       2.511   7.450  18.963  0.00  0.00    +0.000 A 
ATOM      7  N   UNL     1       2.723   8.179  17.881  0.00  0.00    +0.000 NA
ATOM      8  N   UNL     1       2.004   9.346  17.984  0.00  0.00    +0.000 NA
ATOM      9  C   UNL     1       1.381   9.333  19.142  0.00  0.00    +0.000 A 
ENDROOT
BRANCH   6  10
ATOM     10  C   UNL     1       3.100   6.090  19.266  0.00  0.00    +0.000 C 
ATOM     11  C   UNL     1       2.046   4.970  19.170  0.00  0.00    +0.000 C 
ATOM     12  C   UNL     1       1.648   4.503  17.770  0.00  0.00    +0.000 C 
ATOM     13  C   UNL     1       2.582   3.473  17.142  0.00  0.00    +0.000 C 
ATOM     14  C   UNL     1       4.016   3.919  16.897  0.00  0.00    +0.000 C 
ATOM     15  C   UNL     1       4.753   4.424  18.134  0.00  0.00    +0.000 C 
ATOM     16  C   UNL     1       4.401   5.871  18.474  0.00  0.00    +0.000 C 
ENDBRANCH   6  10
BRANCH   1  17
ATOM     17  C   UNL     1       0.224  11.647  19.157  0.00  0.00    +0.000 C 
BRANCH  17  19
ATOM     18  O   UNL     1      -1.017  13.206  20.862  0.00  0.00    +0.000 OA
ATOM     19  S   UNL     1       0.322  12.976  20.355  0.00  0.00    +0.000 S 
ATOM     20  O   UNL     1       1.333  12.631  21.337  0.00  0.00    +0.000 OA
BRANCH  19  21
ATOM     21  C   UNL     1       0.830  14.410  19.438  0.00  0.00    +0.000 A 
ATOM     22  C   UNL     1       0.042  15.574  19.450  0.00  0.00    +0.000 A 
ATOM     23 CL   UNL     1      -1.516  15.718  20.193  0.00  0.00    +0.000 Cl
ATOM     24  C   UNL     1       0.465  16.727  18.769  0.00  0.00    +0.000 A 
ATOM     25  C   UNL     1       1.650  16.727  18.046  0.00  0.00    +0.000 A 
ATOM     26  C   UNL     1       2.419  15.571  18.002  0.00  0.00    +0.000 A 
ATOM     27  C   UNL     1       2.029  14.418  18.700  0.00  0.00    +0.000 A 
ATOM     28 CL   UNL     1       3.094  13.070  18.481  0.00  0.00    +0.000 Cl
ENDBRANCH  19  21
ENDBRANCH  17  19
ENDBRANCH   1  17
TORSDOF 4
ENDMDL
MODEL 9
REMARK VINA RESULT:      -7.3      1.239      1.592
REMARK  Name = 
REMARK  4 active torsions:
REMARK  status: ('A' for Active; 'I' for Inactive)
REMARK    1  A    between atoms: S_2  and  C_4
REMARK    2  A    between atoms: S_2  and  C_21
REMARK    3  A    between atoms: C_4  and  C_5
REMARK    4  A    between atoms: C_10  and  C_11
REMARK                            x       y       z     vdW  Elec       q    Type
REMARK                         _______ _______ _______ _____ _____    ______ ____
ROOT
ATOM      1  C   UNL     1       0.774  10.355  19.752  0.00  0.00    +0.000 A 
ATOM      2  C   UNL     1       0.266  10.118  20.987  0.00  0.00    +0.000 A 
ATOM      3  C   UNL     1       0.447   8.854  21.681  0.00  0.00    +0.000 A 
ATOM      4  C   UNL     1       1.156   7.878  21.092  0.00  0.00    +0.000 A 
ATOM      5  N   UNL     1       1.704   8.106  19.835  0.00  0.00    +0.000 N 
ATOM      6  C   UNL     1       2.514   7.334  19.021  0.00  0.00    +0.000 A 
ATOM      7  N   UNL     1       2.786   8.014  17.922  0.00  0.00    +0.000 NA
ATOM      8  N   UNL     1       2.150   9.232  17.984  0.00  0.00    +0.000 NA
ATOM      9  C   UNL     1       1.519   9.296  19.135  0.00  0.00    +0.000 A 
ENDROOT
BRANCH   6  10
ATOM     10  C   UNL     1       3.002   5.945  19.368  0.00  0.00    +0.000 C 
ATOM     11  C   UNL     1       1.909   4.879  19.158  0.00  0.00    +0.000 C 
ATOM     12  C   UNL     1       1.630   4.439  17.720  0.00  0.00    +0.000 C 
ATOM     13  C   UNL     1       2.569   3.366  17.179  0.00  0.00    +0.000 C 
ATOM     14  C   UNL     1       4.041   3.741  17.082  0.00  0.00    +0.000 C 
ATOM     15  C   UNL     1       4.675   4.203  18.390  0.00  0.00    +0.000 C 
ATOM     16  C   UNL     1       4.363   5.665  18.706  0.00  0.00    +0.000 C 
ENDBRANCH   6  10
BRANCH   1  17
ATOM     17  C   UNL     1       0.529  11.686  19.074  0.00  0.00    +0.000 C 
BRANCH  17  19
ATOM     18  O   UNL     1      -0.675  13.423  20.625  0.00  0.00    +0.000 OA
ATOM     19  S   UNL     1       0.669  13.035  20.244  0.00  0.00    +0.000 S 
ATOM     20  O   UNL     1       1.549  12.616  21.320  0.00  0.00    +0.000 OA
BRANCH  19  21
ATOM     21  C   UNL     1       1.407  14.375  19.342  0.00  0.00    +0.000 A 
ATOM     22  C   UNL     1       2.400  14.118  18.380  0.00  0.00    +0.000 A 
ATOM     23 CL   UNL     1       3.108  12.569  18.063  0.00  0.00    +0.000 Cl
ATOM     24  C   UNL     1       2.949  15.168  17.626  0.00  0.00    +0.000 A 
ATOM     25  C   UNL     1       2.548  16.479  17.842  0.00  0.00    +0.000 A 
ATOM     26  C   UNL     1       1.591  16.746  18.813  0.00  0.00    +0.000 A 
ATOM     27  C   UNL     1       1.008  15.708  19.555  0.00  0.00    +0.000 A 
ATOM     28 CL   UNL     1      -0.126  16.248  20.748  0.00  0.00    +0.000 Cl
ENDBRANCH  19  21
ENDBRANCH  17  19
ENDBRANCH   1  17
TORSDOF 4
ENDMDL
