MODEL 1
REMARK VINA RESULT:      -7.0      0.000      0.000
REMARK  Name = 
REMARK  10 active torsions:
REMARK  status: ('A' for Active; 'I' for Inactive)
REMARK    1  A    between atoms: N_8  and  C_9
REMARK    2  A    between atoms: C_9  and  C_10
REMARK    3  A    between atoms: C_10  and  C_11
REMARK    4  A    between atoms: C_10  and  O_13
REMARK    5  A    between atoms: C_11  and  O_12
REMARK    6  A    between atoms: O_13  and  C_14
REMARK    7  A    between atoms: C_14  and  C_15
REMARK    8  A    between atoms: C_15  and  P_16
REMARK    9  A    between atoms: P_16  and  O_18
REMARK   10  A    between atoms: P_16  and  O_19
REMARK                            x       y       z     vdW  Elec       q    Type
REMARK                         _______ _______ _______ _____ _____    ______ ____
ROOT
ATOM      1  N   UNL     1       8.418   5.250  20.449  0.00  0.00    +0.000 N 
ATOM      2  C   UNL     1       7.857   5.586  19.268  0.00  0.00    +0.000 A 
ATOM      3  N   UNL     1       7.129   4.718  18.603  0.00  0.00    +0.000 NA
ATOM      4  C   UNL     1       6.579   5.237  17.484  0.00  0.00    +0.000 A 
ATOM      5  C   UNL     1       6.703   6.509  16.976  0.00  0.00    +0.000 A 
ATOM      6  N   UNL     1       5.924   6.689  15.855  0.00  0.00    +0.000 NA
ATOM      7  C   UNL     1       5.331   5.524  15.687  0.00  0.00    +0.000 A 
ATOM      8  N   UNL     1       5.749   4.595  16.607  0.00  0.00    +0.000 N 
ATOM      9  C   UNL     1       7.556   7.435  17.683  0.00  0.00    +0.000 A 
ATOM     10  O   UNL     1       7.800   8.594  17.345  0.00  0.00    +0.000 OA
ATOM     11  N   UNL     1       8.089   6.877  18.832  0.00  0.00    +0.000 N 
ATOM     12  H   UNL     1       8.405   4.260  20.663  0.00  0.00    +0.000 HD
ATOM     13  H   UNL     1       9.226   5.751  20.786  0.00  0.00    +0.000 HD
ATOM     14  H   UNL     1       8.649   7.500  19.382  0.00  0.00    +0.000 HD
ENDROOT
BRANCH   8  15
ATOM     15  C   UNL     1       5.332   3.215  16.648  0.00  0.00    +0.000 C 
BRANCH  15  16
ATOM     16  C   UNL     1       3.943   2.998  17.277  0.00  0.00    +0.000 C 
BRANCH  16  17
ATOM     17  C   UNL     1       4.075   2.248  18.620  0.00  0.00    +0.000 C 
BRANCH  17  18
ATOM     18  O   UNL     1       4.993   2.902  19.496  0.00  0.00    +0.000 OA
ATOM     19  H   UNL     1       5.883   2.617  19.220  0.00  0.00    +0.000 HD
ENDBRANCH  17  18
ENDBRANCH  16  17
BRANCH  16  20
ATOM     20  O   UNL     1       3.287   4.262  17.539  0.00  0.00    +0.000 OA
BRANCH  20  21
ATOM     21  C   UNL     1       1.875   4.161  17.787  0.00  0.00    +0.000 C 
BRANCH  21  22
ATOM     22  C   UNL     1       1.575   4.838  19.110  0.00  0.00    +0.000 C 
BRANCH  22  23
ATOM     23  P   UNL     1       2.633   6.185  19.547  0.00  0.00    +0.000 P 
ATOM     24  O   UNL     1       2.674   7.356  18.623  0.00  0.00    +0.000 OA
BRANCH  23  25
ATOM     25  O   UNL     1       2.118   6.642  20.996  0.00  0.00    +0.000 OA
ATOM     26  H   UNL     1       1.707   5.893  21.475  0.00  0.00    +0.000 HD
ENDBRANCH  23  25
BRANCH  23  27
ATOM     27  O   UNL     1       4.099   5.641  19.880  0.00  0.00    +0.000 OA
ATOM     28  H   UNL     1       4.298   5.700  20.839  0.00  0.00    +0.000 HD
ENDBRANCH  23  27
ENDBRANCH  22  23
ENDBRANCH  21  22
ENDBRANCH  20  21
ENDBRANCH  16  20
ENDBRANCH  15  16
ENDBRANCH   8  15
TORSDOF 10
ENDMDL
MODEL 2
REMARK VINA RESULT:      -7.0      1.812      2.248
REMARK  Name = 
REMARK  10 active torsions:
REMARK  status: ('A' for Active; 'I' for Inactive)
REMARK    1  A    between atoms: N_8  and  C_9
REMARK    2  A    between atoms: C_9  and  C_10
REMARK    3  A    between atoms: C_10  and  C_11
REMARK    4  A    between atoms: C_10  and  O_13
REMARK    5  A    between atoms: C_11  and  O_12
REMARK    6  A    between atoms: O_13  and  C_14
REMARK    7  A    between atoms: C_14  and  C_15
REMARK    8  A    between atoms: C_15  and  P_16
REMARK    9  A    between atoms: P_16  and  O_18
REMARK   10  A    between atoms: P_16  and  O_19
REMARK                            x       y       z     vdW  Elec       q    Type
REMARK                         _______ _______ _______ _____ _____    ______ ____
ROOT
ATOM      1  N   UNL     1       8.561   5.202  20.450  0.00  0.00    +0.000 N 
ATOM      2  C   UNL     1       7.950   5.665  19.339  0.00  0.00    +0.000 A 
ATOM      3  N   UNL     1       7.091   4.914  18.688  0.00  0.00    +0.000 NA
ATOM      4  C   UNL     1       6.512   5.554  17.648  0.00  0.00    +0.000 A 
ATOM      5  C   UNL     1       6.725   6.837  17.203  0.00  0.00    +0.000 A 
ATOM      6  N   UNL     1       5.885   7.162  16.161  0.00  0.00    +0.000 NA
ATOM      7  C   UNL     1       5.168   6.073  15.977  0.00  0.00    +0.000 A 
ATOM      8  N   UNL     1       5.558   5.051  16.806  0.00  0.00    +0.000 N 
ATOM      9  C   UNL     1       7.717   7.632  17.890  0.00  0.00    +0.000 A 
ATOM     10  O   UNL     1       8.050   8.780  17.598  0.00  0.00    +0.000 OA
ATOM     11  N   UNL     1       8.276   6.953  18.958  0.00  0.00    +0.000 N 
ATOM     12  H   UNL     1       8.466   4.206  20.609  0.00  0.00    +0.000 HD
ATOM     13  H   UNL     1       9.439   5.601  20.748  0.00  0.00    +0.000 HD
ATOM     14  H   UNL     1       8.936   7.483  19.496  0.00  0.00    +0.000 HD
ENDROOT
BRANCH   8  15
ATOM     15  C   UNL     1       5.010   3.717  16.804  0.00  0.00    +0.000 C 
BRANCH  15  16
ATOM     16  C   UNL     1       3.664   3.592  17.543  0.00  0.00    +0.000 C 
BRANCH  16  17
ATOM     17  C   UNL     1       3.282   2.105  17.709  0.00  0.00    +0.000 C 
BRANCH  17  18
ATOM     18  O   UNL     1       1.867   1.921  17.663  0.00  0.00    +0.000 OA
ATOM     19  H   UNL     1       1.501   2.441  18.401  0.00  0.00    +0.000 HD
ENDBRANCH  17  18
ENDBRANCH  16  17
BRANCH  16  20
ATOM     20  O   UNL     1       3.739   4.180  18.864  0.00  0.00    +0.000 OA
BRANCH  20  21
ATOM     21  C   UNL     1       2.577   4.935  19.248  0.00  0.00    +0.000 C 
BRANCH  21  22
ATOM     22  C   UNL     1       2.308   4.679  20.718  0.00  0.00    +0.000 C 
BRANCH  22  23
ATOM     23  P   UNL     1       1.715   3.065  21.126  0.00  0.00    +0.000 P 
ATOM     24  O   UNL     1       1.299   2.822  22.538  0.00  0.00    +0.000 OA
BRANCH  23  25
ATOM     25  O   UNL     1       0.475   2.835  20.135  0.00  0.00    +0.000 OA
ATOM     26  H   UNL     1       0.497   1.937  19.748  0.00  0.00    +0.000 HD
ENDBRANCH  23  25
BRANCH  23  27
ATOM     27  O   UNL     1       2.750   1.959  20.615  0.00  0.00    +0.000 OA
ATOM     28  H   UNL     1       3.256   2.270  19.833  0.00  0.00    +0.000 HD
ENDBRANCH  23  27
ENDBRANCH  22  23
ENDBRANCH  21  22
ENDBRANCH  20  21
ENDBRANCH  16  20
ENDBRANCH  15  16
ENDBRANCH   8  15
TORSDOF 10
ENDMDL
MODEL 3
REMARK VINA RESULT:      -6.8      1.775      2.449
REMARK  Name = 
REMARK  10 active torsions:
REMARK  status: ('A' for Active; 'I' for Inactive)
REMARK    1  A    between atoms: N_8  and  C_9
REMARK    2  A    between atoms: C_9  and  C_10
REMARK    3  A    between atoms: C_10  and  C_11
REMARK    4  A    between atoms: C_10  and  O_13
REMARK    5  A    between atoms: C_11  and  O_12
REMARK    6  A    between atoms: O_13  and  C_14
REMARK    7  A    between atoms: C_14  and  C_15
REMARK    8  A    between atoms: C_15  and  P_16
REMARK    9  A    between atoms: P_16  and  O_18
REMARK   10  A    between atoms: P_16  and  O_19
REMARK                            x       y       z     vdW  Elec       q    Type
REMARK                         _______ _______ _______ _____ _____    ______ ____
ROOT
ATOM      1  N   UNL     1       8.519   5.165  20.385  0.00  0.00    +0.000 N 
ATOM      2  C   UNL     1       7.908   5.657  19.287  0.00  0.00    +0.000 A 
ATOM      3  N   UNL     1       7.042   4.928  18.621  0.00  0.00    +0.000 NA
ATOM      4  C   UNL     1       6.465   5.595  17.597  0.00  0.00    +0.000 A 
ATOM      5  C   UNL     1       6.686   6.886  17.182  0.00  0.00    +0.000 A 
ATOM      6  N   UNL     1       5.846   7.241  16.149  0.00  0.00    +0.000 NA
ATOM      7  C   UNL     1       5.120   6.161  15.943  0.00  0.00    +0.000 A 
ATOM      8  N   UNL     1       5.505   5.118  16.748  0.00  0.00    +0.000 N 
ATOM      9  C   UNL     1       7.685   7.658  17.883  0.00  0.00    +0.000 A 
ATOM     10  O   UNL     1       8.026   8.810  17.617  0.00  0.00    +0.000 OA
ATOM     11  N   UNL     1       8.243   6.951  18.935  0.00  0.00    +0.000 N 
ATOM     12  H   UNL     1       8.417   4.166  20.522  0.00  0.00    +0.000 HD
ATOM     13  H   UNL     1       9.401   5.551  20.689  0.00  0.00    +0.000 HD
ATOM     14  H   UNL     1       8.907   7.464  19.482  0.00  0.00    +0.000 HD
ENDROOT
BRANCH   8  15
ATOM     15  C   UNL     1       4.947   3.788  16.717  0.00  0.00    +0.000 C 
BRANCH  15  16
ATOM     16  C   UNL     1       3.845   3.547  17.766  0.00  0.00    +0.000 C 
BRANCH  16  17
ATOM     17  C   UNL     1       2.555   3.047  17.081  0.00  0.00    +0.000 C 
BRANCH  17  18
ATOM     18  O   UNL     1       1.450   3.908  17.355  0.00  0.00    +0.000 OA
ATOM     19  H   UNL     1       1.193   4.300  16.502  0.00  0.00    +0.000 HD
ENDBRANCH  17  18
ENDBRANCH  16  17
BRANCH  16  20
ATOM     20  O   UNL     1       4.253   2.544  18.728  0.00  0.00    +0.000 OA
BRANCH  20  21
ATOM     21  C   UNL     1       4.304   3.009  20.088  0.00  0.00    +0.000 C 
BRANCH  21  22
ATOM     22  C   UNL     1       3.286   2.227  20.895  0.00  0.00    +0.000 C 
BRANCH  22  23
ATOM     23  P   UNL     1       1.827   3.108  21.362  0.00  0.00    +0.000 P 
ATOM     24  O   UNL     1       1.129   2.674  22.607  0.00  0.00    +0.000 OA
BRANCH  23  25
ATOM     25  O   UNL     1       2.310   4.632  21.501  0.00  0.00    +0.000 OA
ATOM     26  H   UNL     1       3.268   4.680  21.695  0.00  0.00    +0.000 HD
ENDBRANCH  23  25
BRANCH  23  27
ATOM     27  O   UNL     1       0.823   3.198  20.120  0.00  0.00    +0.000 OA
ATOM     28  H   UNL     1       1.204   3.724  19.384  0.00  0.00    +0.000 HD
ENDBRANCH  23  27
ENDBRANCH  22  23
ENDBRANCH  21  22
ENDBRANCH  20  21
ENDBRANCH  16  20
ENDBRANCH  15  16
ENDBRANCH   8  15
TORSDOF 10
ENDMDL
MODEL 4
REMARK VINA RESULT:      -6.6      1.792      2.433
REMARK  Name = 
REMARK  10 active torsions:
REMARK  status: ('A' for Active; 'I' for Inactive)
REMARK    1  A    between atoms: N_8  and  C_9
REMARK    2  A    between atoms: C_9  and  C_10
REMARK    3  A    between atoms: C_10  and  C_11
REMARK    4  A    between atoms: C_10  and  O_13
REMARK    5  A    between atoms: C_11  and  O_12
REMARK    6  A    between atoms: O_13  and  C_14
REMARK    7  A    between atoms: C_14  and  C_15
REMARK    8  A    between atoms: C_15  and  P_16
REMARK    9  A    between atoms: P_16  and  O_18
REMARK   10  A    between atoms: P_16  and  O_19
REMARK                            x       y       z     vdW  Elec       q    Type
REMARK                         _______ _______ _______ _____ _____    ______ ____
ROOT
ATOM      1  N   UNL     1       8.338   5.253  20.585  0.00  0.00    +0.000 N 
ATOM      2  C   UNL     1       7.792   5.700  19.435  0.00  0.00    +0.000 A 
ATOM      3  N   UNL     1       6.883   4.990  18.807  0.00  0.00    +0.000 NA
ATOM      4  C   UNL     1       6.383   5.614  17.717  0.00  0.00    +0.000 A 
ATOM      5  C   UNL     1       6.717   6.845  17.206  0.00  0.00    +0.000 A 
ATOM      6  N   UNL     1       5.929   7.180  16.126  0.00  0.00    +0.000 NA
ATOM      7  C   UNL     1       5.123   6.147  15.987  0.00  0.00    +0.000 A 
ATOM      8  N   UNL     1       5.405   5.146  16.883  0.00  0.00    +0.000 N 
ATOM      9  C   UNL     1       7.761   7.590  17.869  0.00  0.00    +0.000 A 
ATOM     10  O   UNL     1       8.199   8.686  17.521  0.00  0.00    +0.000 OA
ATOM     11  N   UNL     1       8.237   6.930  18.989  0.00  0.00    +0.000 N 
ATOM     12  H   UNL     1       8.152   4.280  20.799  0.00  0.00    +0.000 HD
ATOM     13  H   UNL     1       9.242   5.592  20.881  0.00  0.00    +0.000 HD
ATOM     14  H   UNL     1       8.930   7.433  19.511  0.00  0.00    +0.000 HD
ENDROOT
BRANCH   8  15
ATOM     15  C   UNL     1       4.742   3.867  16.944  0.00  0.00    +0.000 C 
BRANCH  15  16
ATOM     16  C   UNL     1       3.594   3.805  17.970  0.00  0.00    +0.000 C 
BRANCH  16  17
ATOM     17  C   UNL     1       2.727   5.079  17.879  0.00  0.00    +0.000 C 
BRANCH  17  18
ATOM     18  O   UNL     1       2.854   5.884  19.051  0.00  0.00    +0.000 OA
ATOM     19  H   UNL     1       2.191   6.592  18.968  0.00  0.00    +0.000 HD
ENDBRANCH  17  18
ENDBRANCH  16  17
BRANCH  16  20
ATOM     20  O   UNL     1       2.737   2.665  17.723  0.00  0.00    +0.000 OA
BRANCH  20  21
ATOM     21  C   UNL     1       2.579   1.783  18.847  0.00  0.00    +0.000 C 
BRANCH  21  22
ATOM     22  C   UNL     1       1.504   2.354  19.752  0.00  0.00    +0.000 C 
BRANCH  22  23
ATOM     23  P   UNL     1       2.017   2.780  21.389  0.00  0.00    +0.000 P 
ATOM     24  O   UNL     1       3.312   2.217  21.872  0.00  0.00    +0.000 OA
BRANCH  23  25
ATOM     25  O   UNL     1       2.078   4.383  21.382  0.00  0.00    +0.000 OA
ATOM     26  H   UNL     1       1.674   4.746  20.568  0.00  0.00    +0.000 HD
ENDBRANCH  23  25
BRANCH  23  27
ATOM     27  O   UNL     1       0.829   2.504  22.422  0.00  0.00    +0.000 OA
ATOM     28  H   UNL     1       0.738   3.233  23.073  0.00  0.00    +0.000 HD
ENDBRANCH  23  27
ENDBRANCH  22  23
ENDBRANCH  21  22
ENDBRANCH  20  21
ENDBRANCH  16  20
ENDBRANCH  15  16
ENDBRANCH   8  15
TORSDOF 10
ENDMDL
MODEL 5
REMARK VINA RESULT:      -6.6      1.696      2.327
REMARK  Name = 
REMARK  10 active torsions:
REMARK  status: ('A' for Active; 'I' for Inactive)
REMARK    1  A    between atoms: N_8  and  C_9
REMARK    2  A    between atoms: C_9  and  C_10
REMARK    3  A    between atoms: C_10  and  C_11
REMARK    4  A    between atoms: C_10  and  O_13
REMARK    5  A    between atoms: C_11  and  O_12
REMARK    6  A    between atoms: O_13  and  C_14
REMARK    7  A    between atoms: C_14  and  C_15
REMARK    8  A    between atoms: C_15  and  P_16
REMARK    9  A    between atoms: P_16  and  O_18
REMARK   10  A    between atoms: P_16  and  O_19
REMARK                            x       y       z     vdW  Elec       q    Type
REMARK                         _______ _______ _______ _____ _____    ______ ____
ROOT
ATOM      1  N   UNL     1       8.532   5.221  20.356  0.00  0.00    +0.000 N 
ATOM      2  C   UNL     1       7.920   5.718  19.261  0.00  0.00    +0.000 A 
ATOM      3  N   UNL     1       7.070   4.984  18.580  0.00  0.00    +0.000 NA
ATOM      4  C   UNL     1       6.488   5.655  17.562  0.00  0.00    +0.000 A 
ATOM      5  C   UNL     1       6.689   6.956  17.165  0.00  0.00    +0.000 A 
ATOM      6  N   UNL     1       5.849   7.310  16.133  0.00  0.00    +0.000 NA
ATOM      7  C   UNL     1       5.143   6.221  15.907  0.00  0.00    +0.000 A 
ATOM      8  N   UNL     1       5.541   5.173  16.700  0.00  0.00    +0.000 N 
ATOM      9  C   UNL     1       7.671   7.734  17.883  0.00  0.00    +0.000 A 
ATOM     10  O   UNL     1       7.994   8.896  17.635  0.00  0.00    +0.000 OA
ATOM     11  N   UNL     1       8.234   7.022  18.928  0.00  0.00    +0.000 N 
ATOM     12  H   UNL     1       8.446   4.219  20.478  0.00  0.00    +0.000 HD
ATOM     13  H   UNL     1       9.406   5.618  20.671  0.00  0.00    +0.000 HD
ATOM     14  H   UNL     1       8.887   7.539  19.487  0.00  0.00    +0.000 HD
ENDROOT
BRANCH   8  15
ATOM     15  C   UNL     1       5.006   3.836  16.648  0.00  0.00    +0.000 C 
BRANCH  15  16
ATOM     16  C   UNL     1       3.959   3.536  17.738  0.00  0.00    +0.000 C 
BRANCH  16  17
ATOM     17  C   UNL     1       2.642   3.051  17.095  0.00  0.00    +0.000 C 
BRANCH  17  18
ATOM     18  O   UNL     1       1.593   4.003  17.271  0.00  0.00    +0.000 OA
ATOM     19  H   UNL     1       0.896   3.549  17.778  0.00  0.00    +0.000 HD
ENDBRANCH  17  18
ENDBRANCH  16  17
BRANCH  16  20
ATOM     20  O   UNL     1       4.424   2.498  18.634  0.00  0.00    +0.000 OA
BRANCH  20  21
ATOM     21  C   UNL     1       3.395   1.904  19.443  0.00  0.00    +0.000 C 
BRANCH  21  22
ATOM     22  C   UNL     1       3.207   2.764  20.679  0.00  0.00    +0.000 C 
BRANCH  22  23
ATOM     23  P   UNL     1       1.572   3.373  20.956  0.00  0.00    +0.000 P 
ATOM     24  O   UNL     1       1.390   4.853  21.021  0.00  0.00    +0.000 OA
BRANCH  23  25
ATOM     25  O   UNL     1       0.710   2.762  19.748  0.00  0.00    +0.000 OA
ATOM     26  H   UNL     1       1.207   2.061  19.281  0.00  0.00    +0.000 HD
ENDBRANCH  23  25
BRANCH  23  27
ATOM     27  O   UNL     1       0.924   2.641  22.220  0.00  0.00    +0.000 OA
ATOM     28  H   UNL     1       1.224   1.710  22.293  0.00  0.00    +0.000 HD
ENDBRANCH  23  27
ENDBRANCH  22  23
ENDBRANCH  21  22
ENDBRANCH  20  21
ENDBRANCH  16  20
ENDBRANCH  15  16
ENDBRANCH   8  15
TORSDOF 10
ENDMDL
MODEL 6
REMARK VINA RESULT:      -6.5      2.788      4.284
REMARK  Name = 
REMARK  10 active torsions:
REMARK  status: ('A' for Active; 'I' for Inactive)
REMARK    1  A    between atoms: N_8  and  C_9
REMARK    2  A    between atoms: C_9  and  C_10
REMARK    3  A    between atoms: C_10  and  C_11
REMARK    4  A    between atoms: C_10  and  O_13
REMARK    5  A    between atoms: C_11  and  O_12
REMARK    6  A    between atoms: O_13  and  C_14
REMARK    7  A    between atoms: C_14  and  C_15
REMARK    8  A    between atoms: C_15  and  P_16
REMARK    9  A    between atoms: P_16  and  O_18
REMARK   10  A    between atoms: P_16  and  O_19
REMARK                            x       y       z     vdW  Elec       q    Type
REMARK                         _______ _______ _______ _____ _____    ______ ____
ROOT
ATOM      1  N   UNL     1       5.515   2.786  12.100  0.00  0.00    +0.000 N 
ATOM      2  C   UNL     1       5.968   3.665  13.018  0.00  0.00    +0.000 A 
ATOM      3  N   UNL     1       5.341   3.818  14.162  0.00  0.00    +0.000 NA
ATOM      4  C   UNL     1       5.966   4.676  14.998  0.00  0.00    +0.000 A 
ATOM      5  C   UNL     1       7.122   5.389  14.788  0.00  0.00    +0.000 A 
ATOM      6  N   UNL     1       7.495   6.099  15.909  0.00  0.00    +0.000 NA
ATOM      7  C   UNL     1       6.560   5.814  16.792  0.00  0.00    +0.000 A 
ATOM      8  N   UNL     1       5.578   5.012  16.266  0.00  0.00    +0.000 N 
ATOM      9  C   UNL     1       7.769   5.260  13.503  0.00  0.00    +0.000 A 
ATOM     10  O   UNL     1       8.786   5.853  13.144  0.00  0.00    +0.000 OA
ATOM     11  N   UNL     1       7.112   4.362  12.680  0.00  0.00    +0.000 N 
ATOM     12  H   UNL     1       4.583   2.428  12.271  0.00  0.00    +0.000 HD
ATOM     13  H   UNL     1       5.758   2.902  11.127  0.00  0.00    +0.000 HD
ATOM     14  H   UNL     1       7.553   4.203  11.794  0.00  0.00    +0.000 HD
ENDROOT
BRANCH   8  15
ATOM     15  C   UNL     1       4.392   4.578  16.962  0.00  0.00    +0.000 C 
BRANCH  15  16
ATOM     16  C   UNL     1       4.059   5.413  18.213  0.00  0.00    +0.000 C 
BRANCH  16  17
ATOM     17  C   UNL     1       2.627   5.982  18.109  0.00  0.00    +0.000 C 
BRANCH  17  18
ATOM     18  O   UNL     1       2.155   6.446  19.374  0.00  0.00    +0.000 OA
ATOM     19  H   UNL     1       2.927   6.446  19.968  0.00  0.00    +0.000 HD
ENDBRANCH  17  18
ENDBRANCH  16  17
BRANCH  16  20
ATOM     20  O   UNL     1       4.128   4.605  19.411  0.00  0.00    +0.000 OA
BRANCH  20  21
ATOM     21  C   UNL     1       4.095   3.186  19.176  0.00  0.00    +0.000 C 
BRANCH  21  22
ATOM     22  C   UNL     1       3.544   2.512  20.418  0.00  0.00    +0.000 C 
BRANCH  22  23
ATOM     23  P   UNL     1       2.088   3.235  21.110  0.00  0.00    +0.000 P 
ATOM     24  O   UNL     1       1.431   2.515  22.240  0.00  0.00    +0.000 OA
BRANCH  23  25
ATOM     25  O   UNL     1       2.555   4.696  21.581  0.00  0.00    +0.000 OA
ATOM     26  H   UNL     1       2.207   4.905  22.472  0.00  0.00    +0.000 HD
ENDBRANCH  23  25
BRANCH  23  27
ATOM     27  O   UNL     1       1.048   3.586  19.947  0.00  0.00    +0.000 OA
ATOM     28  H   UNL     1       1.372   3.289  19.070  0.00  0.00    +0.000 HD
ENDBRANCH  23  27
ENDBRANCH  22  23
ENDBRANCH  21  22
ENDBRANCH  20  21
ENDBRANCH  16  20
ENDBRANCH  15  16
ENDBRANCH   8  15
TORSDOF 10
ENDMDL
MODEL 7
REMARK VINA RESULT:      -6.4      2.108      2.759
REMARK  Name = 
REMARK  10 active torsions:
REMARK  status: ('A' for Active; 'I' for Inactive)
REMARK    1  A    between atoms: N_8  and  C_9
REMARK    2  A    between atoms: C_9  and  C_10
REMARK    3  A    between atoms: C_10  and  C_11
REMARK    4  A    between atoms: C_10  and  O_13
REMARK    5  A    between atoms: C_11  and  O_12
REMARK    6  A    between atoms: O_13  and  C_14
REMARK    7  A    between atoms: C_14  and  C_15
REMARK    8  A    between atoms: C_15  and  P_16
REMARK    9  A    between atoms: P_16  and  O_18
REMARK   10  A    between atoms: P_16  and  O_19
REMARK                            x       y       z     vdW  Elec       q    Type
REMARK                         _______ _______ _______ _____ _____    ______ ____
ROOT
ATOM      1  N   UNL     1       8.215   5.659  20.045  0.00  0.00    +0.000 N 
ATOM      2  C   UNL     1       7.393   5.245  19.059  0.00  0.00    +0.000 A 
ATOM      3  N   UNL     1       6.310   4.555  19.337  0.00  0.00    +0.000 NA
ATOM      4  C   UNL     1       5.559   4.287  18.246  0.00  0.00    +0.000 A 
ATOM      5  C   UNL     1       5.798   4.624  16.935  0.00  0.00    +0.000 A 
ATOM      6  N   UNL     1       4.758   4.247  16.114  0.00  0.00    +0.000 NA
ATOM      7  C   UNL     1       3.894   3.681  16.932  0.00  0.00    +0.000 A 
ATOM      8  N   UNL     1       4.365   3.621  18.220  0.00  0.00    +0.000 N 
ATOM      9  C   UNL     1       7.022   5.328  16.634  0.00  0.00    +0.000 A 
ATOM     10  O   UNL     1       7.400   5.671  15.514  0.00  0.00    +0.000 OA
ATOM     11  N   UNL     1       7.758   5.601  17.774  0.00  0.00    +0.000 N 
ATOM     12  H   UNL     1       8.048   5.235  20.950  0.00  0.00    +0.000 HD
ATOM     13  H   UNL     1       9.182   5.870  19.843  0.00  0.00    +0.000 HD
ATOM     14  H   UNL     1       8.594   6.133  17.619  0.00  0.00    +0.000 HD
ENDROOT
BRANCH   8  15
ATOM     15  C   UNL     1       3.681   3.006  19.331  0.00  0.00    +0.000 C 
BRANCH  15  16
ATOM     16  C   UNL     1       2.523   3.850  19.898  0.00  0.00    +0.000 C 
BRANCH  16  17
ATOM     17  C   UNL     1       1.755   3.050  20.972  0.00  0.00    +0.000 C 
BRANCH  17  18
ATOM     18  O   UNL     1       2.468   3.018  22.209  0.00  0.00    +0.000 OA
ATOM     19  H   UNL     1       2.742   3.935  22.388  0.00  0.00    +0.000 HD
ENDBRANCH  17  18
ENDBRANCH  16  17
BRANCH  16  20
ATOM     20  O   UNL     1       3.017   5.062  20.516  0.00  0.00    +0.000 OA
BRANCH  20  21
ATOM     21  C   UNL     1       2.500   6.276  19.945  0.00  0.00    +0.000 C 
BRANCH  21  22
ATOM     22  C   UNL     1       1.248   6.665  20.706  0.00  0.00    +0.000 C 
BRANCH  22  23
ATOM     23  P   UNL     1       1.049   8.389  21.039  0.00  0.00    +0.000 P 
ATOM     24  O   UNL     1       1.184   9.332  19.890  0.00  0.00    +0.000 OA
BRANCH  23  25
ATOM     25  O   UNL     1      -0.417   8.504  21.679  0.00  0.00    +0.000 OA
ATOM     26  H   UNL     1      -1.109   8.391  20.996  0.00  0.00    +0.000 HD
ENDBRANCH  23  25
BRANCH  23  27
ATOM     27  O   UNL     1       1.976   8.818  22.269  0.00  0.00    +0.000 OA
ATOM     28  H   UNL     1       2.868   9.096  21.970  0.00  0.00    +0.000 HD
ENDBRANCH  23  27
ENDBRANCH  22  23
ENDBRANCH  21  22
ENDBRANCH  20  21
ENDBRANCH  16  20
ENDBRANCH  15  16
ENDBRANCH   8  15
TORSDOF 10
ENDMDL
MODEL 8
REMARK VINA RESULT:      -6.3      0.965      1.443
REMARK  Name = 
REMARK  10 active torsions:
REMARK  status: ('A' for Active; 'I' for Inactive)
REMARK    1  A    between atoms: N_8  and  C_9
REMARK    2  A    between atoms: C_9  and  C_10
REMARK    3  A    between atoms: C_10  and  C_11
REMARK    4  A    between atoms: C_10  and  O_13
REMARK    5  A    between atoms: C_11  and  O_12
REMARK    6  A    between atoms: O_13  and  C_14
REMARK    7  A    between atoms: C_14  and  C_15
REMARK    8  A    between atoms: C_15  and  P_16
REMARK    9  A    between atoms: P_16  and  O_18
REMARK   10  A    between atoms: P_16  and  O_19
REMARK                            x       y       z     vdW  Elec       q    Type
REMARK                         _______ _______ _______ _____ _____    ______ ____
ROOT
ATOM      1  N   UNL     1       8.531   5.253  20.398  0.00  0.00    +0.000 N 
ATOM      2  C   UNL     1       7.925   5.587  19.239  0.00  0.00    +0.000 A 
ATOM      3  N   UNL     1       7.162   4.722  18.611  0.00  0.00    +0.000 NA
ATOM      4  C   UNL     1       6.569   5.239  17.512  0.00  0.00    +0.000 A 
ATOM      5  C   UNL     1       6.684   6.506  16.991  0.00  0.00    +0.000 A 
ATOM      6  N   UNL     1       5.860   6.686  15.902  0.00  0.00    +0.000 NA
ATOM      7  C   UNL     1       5.251   5.526  15.767  0.00  0.00    +0.000 A 
ATOM      8  N   UNL     1       5.698   4.598  16.675  0.00  0.00    +0.000 N 
ATOM      9  C   UNL     1       7.574   7.429  17.655  0.00  0.00    +0.000 A 
ATOM     10  O   UNL     1       7.814   8.583  17.300  0.00  0.00    +0.000 OA
ATOM     11  N   UNL     1       8.149   6.873  18.785  0.00  0.00    +0.000 N 
ATOM     12  H   UNL     1       8.519   4.264  20.619  0.00  0.00    +0.000 HD
ATOM     13  H   UNL     1       9.358   5.749  20.697  0.00  0.00    +0.000 HD
ATOM     14  H   UNL     1       8.737   7.495  19.307  0.00  0.00    +0.000 HD
ENDROOT
BRANCH   8  15
ATOM     15  C   UNL     1       5.271   3.223  16.742  0.00  0.00    +0.000 C 
BRANCH  15  16
ATOM     16  C   UNL     1       3.825   3.039  17.241  0.00  0.00    +0.000 C 
BRANCH  16  17
ATOM     17  C   UNL     1       3.677   1.682  17.961  0.00  0.00    +0.000 C 
BRANCH  17  18
ATOM     18  O   UNL     1       2.348   1.490  18.447  0.00  0.00    +0.000 OA
ATOM     19  H   UNL     1       2.003   2.377  18.652  0.00  0.00    +0.000 HD
ENDBRANCH  17  18
ENDBRANCH  16  17
BRANCH  16  20
ATOM     20  O   UNL     1       3.462   4.081  18.179  0.00  0.00    +0.000 OA
BRANCH  20  21
ATOM     21  C   UNL     1       2.296   4.836  17.808  0.00  0.00    +0.000 C 
BRANCH  21  22
ATOM     22  C   UNL     1       1.385   4.928  19.018  0.00  0.00    +0.000 C 
BRANCH  22  23
ATOM     23  P   UNL     1       2.173   5.314  20.552  0.00  0.00    +0.000 P 
ATOM     24  O   UNL     1       2.294   4.219  21.558  0.00  0.00    +0.000 OA
BRANCH  23  25
ATOM     25  O   UNL     1       3.628   5.841  20.129  0.00  0.00    +0.000 OA
ATOM     26  H   UNL     1       4.259   5.098  20.040  0.00  0.00    +0.000 HD
ENDBRANCH  23  25
BRANCH  23  27
ATOM     27  O   UNL     1       1.521   6.630  21.183  0.00  0.00    +0.000 OA
ATOM     28  H   UNL     1       1.116   7.199  20.495  0.00  0.00    +0.000 HD
ENDBRANCH  23  27
ENDBRANCH  22  23
ENDBRANCH  21  22
ENDBRANCH  20  21
ENDBRANCH  16  20
ENDBRANCH  15  16
ENDBRANCH   8  15
TORSDOF 10
ENDMDL
MODEL 9
REMARK VINA RESULT:      -6.3      3.288      5.908
REMARK  Name = 
REMARK  10 active torsions:
REMARK  status: ('A' for Active; 'I' for Inactive)
REMARK    1  A    between atoms: N_8  and  C_9
REMARK    2  A    between atoms: C_9  and  C_10
REMARK    3  A    between atoms: C_10  and  C_11
REMARK    4  A    between atoms: C_10  and  O_13
REMARK    5  A    between atoms: C_11  and  O_12
REMARK    6  A    between atoms: O_13  and  C_14
REMARK    7  A    between atoms: C_14  and  C_15
REMARK    8  A    between atoms: C_15  and  P_16
REMARK    9  A    between atoms: P_16  and  O_18
REMARK   10  A    between atoms: P_16  and  O_19
REMARK                            x       y       z     vdW  Elec       q    Type
REMARK                         _______ _______ _______ _____ _____    ______ ____
ROOT
ATOM      1  N   UNL     1       4.156   0.690  17.993  0.00  0.00    +0.000 N 
ATOM      2  C   UNL     1       3.576   1.798  18.500  0.00  0.00    +0.000 A 
ATOM      3  N   UNL     1       4.289   2.875  18.739  0.00  0.00    +0.000 NA
ATOM      4  C   UNL     1       3.544   3.918  19.170  0.00  0.00    +0.000 A 
ATOM      5  C   UNL     1       2.189   3.970  19.393  0.00  0.00    +0.000 A 
ATOM      6  N   UNL     1       1.779   5.235  19.751  0.00  0.00    +0.000 NA
ATOM      7  C   UNL     1       2.890   5.944  19.745  0.00  0.00    +0.000 A 
ATOM      8  N   UNL     1       3.992   5.175  19.467  0.00  0.00    +0.000 N 
ATOM      9  C   UNL     1       1.426   2.762  19.185  0.00  0.00    +0.000 A 
ATOM     10  O   UNL     1       0.216   2.631  19.372  0.00  0.00    +0.000 OA
ATOM     11  N   UNL     1       2.216   1.721  18.729  0.00  0.00    +0.000 N 
ATOM     12  H   UNL     1       5.170   0.690  18.011  0.00  0.00    +0.000 HD
ATOM     13  H   UNL     1       3.725  -0.213  18.127  0.00  0.00    +0.000 HD
ATOM     14  H   UNL     1       1.719   0.874  18.524  0.00  0.00    +0.000 HD
ENDROOT
BRANCH   8  15
ATOM     15  C   UNL     1       5.355   5.645  19.448  0.00  0.00    +0.000 C 
BRANCH  15  16
ATOM     16  C   UNL     1       5.760   6.342  18.135  0.00  0.00    +0.000 C 
BRANCH  16  17
ATOM     17  C   UNL     1       7.297   6.421  18.024  0.00  0.00    +0.000 C 
BRANCH  17  18
ATOM     18  O   UNL     1       7.709   7.557  17.263  0.00  0.00    +0.000 OA
ATOM     19  H   UNL     1       8.608   7.776  17.567  0.00  0.00    +0.000 HD
ENDBRANCH  17  18
ENDBRANCH  16  17
BRANCH  16  20
ATOM     20  O   UNL     1       5.269   5.610  16.986  0.00  0.00    +0.000 OA
BRANCH  20  21
ATOM     21  C   UNL     1       5.075   6.411  15.807  0.00  0.00    +0.000 C 
BRANCH  21  22
ATOM     22  C   UNL     1       5.276   5.526  14.593  0.00  0.00    +0.000 C 
BRANCH  22  23
ATOM     23  P   UNL     1       6.482   4.245  14.760  0.00  0.00    +0.000 P 
ATOM     24  O   UNL     1       7.860   4.646  15.169  0.00  0.00    +0.000 OA
BRANCH  23  25
ATOM     25  O   UNL     1       5.852   3.245  15.844  0.00  0.00    +0.000 OA
ATOM     26  H   UNL     1       4.874   3.293  15.840  0.00  0.00    +0.000 HD
ENDBRANCH  23  25
BRANCH  23  27
ATOM     27  O   UNL     1       6.495   3.334  13.446  0.00  0.00    +0.000 OA
ATOM     28  H   UNL     1       7.062   2.542  13.561  0.00  0.00    +0.000 HD
ENDBRANCH  23  27
ENDBRANCH  22  23
ENDBRANCH  21  22
ENDBRANCH  20  21
ENDBRANCH  16  20
ENDBRANCH  15  16
ENDBRANCH   8  15
TORSDOF 10
ENDMDL
