MODEL 1
REMARK VINA RESULT:      -6.2      0.000      0.000
REMARK  Name = 
REMARK  2 active torsions:
REMARK  status: ('A' for Active; 'I' for Inactive)
REMARK    1  A    between atoms: C_1  and  S_2
REMARK    2  A    between atoms: S_2  and  N_5
REMARK                            x       y       z     vdW  Elec       q    Type
REMARK                         _______ _______ _______ _____ _____    ______ ____
ROOT
ATOM      1  N   UNL     1       3.190   3.906  19.157  0.00  0.00    +0.000 NA
ATOM      2  C   UNL     1       2.559   5.254  19.101  0.00  0.00    +0.000 C 
ATOM      3  C   UNL     1       3.165   6.114  17.989  0.00  0.00    +0.000 C 
ATOM      4  O   UNL     1       4.591   6.215  18.089  0.00  0.00    +0.000 OA
ATOM      5  C   UNL     1       5.271   4.943  18.126  0.00  0.00    +0.000 C 
ATOM      6  C   UNL     1       6.760   5.274  18.406  0.00  0.00    +0.000 C 
ATOM      7  C   UNL     1       7.568   4.528  17.353  0.00  0.00    +0.000 C 
ATOM      8  C   UNL     1       6.658   4.535  16.145  0.00  0.00    +0.000 C 
ATOM      9  C   UNL     1       5.291   4.251  16.745  0.00  0.00    +0.000 C 
ATOM     10  C   UNL     1       4.682   4.054  19.253  0.00  0.00    +0.000 C 
ENDROOT
BRANCH   1  12
ATOM     11  C   UNL     1       1.091   2.197  18.846  0.00  0.00    +0.000 C 
ATOM     12  S   UNL     1       2.617   2.715  18.103  0.00  0.00    +0.000 S 
ATOM     13  O   UNL     1       3.531   1.595  18.159  0.00  0.00    +0.000 OA
ATOM     14  O   UNL     1       2.278   3.336  16.839  0.00  0.00    +0.000 OA
ENDBRANCH   1  12
TORSDOF 1
ENDMDL
MODEL 2
REMARK VINA RESULT:      -6.0      1.876      2.494
REMARK  Name = 
REMARK  2 active torsions:
REMARK  status: ('A' for Active; 'I' for Inactive)
REMARK    1  A    between atoms: C_1  and  S_2
REMARK    2  A    between atoms: S_2  and  N_5
REMARK                            x       y       z     vdW  Elec       q    Type
REMARK                         _______ _______ _______ _____ _____    ______ ____
ROOT
ATOM      1  N   UNL     1       3.294   3.230  18.583  0.00  0.00    +0.000 NA
ATOM      2  C   UNL     1       4.290   3.287  19.689  0.00  0.00    +0.000 C 
ATOM      3  C   UNL     1       5.327   4.389  19.458  0.00  0.00    +0.000 C 
ATOM      4  O   UNL     1       5.976   4.274  18.185  0.00  0.00    +0.000 OA
ATOM      5  C   UNL     1       5.069   4.235  17.063  0.00  0.00    +0.000 C 
ATOM      6  C   UNL     1       5.952   3.938  15.823  0.00  0.00    +0.000 C 
ATOM      7  C   UNL     1       5.589   4.986  14.779  0.00  0.00    +0.000 C 
ATOM      8  C   UNL     1       5.250   6.203  15.611  0.00  0.00    +0.000 C 
ATOM      9  C   UNL     1       4.451   5.619  16.764  0.00  0.00    +0.000 C 
ATOM     10  C   UNL     1       4.012   3.119  17.267  0.00  0.00    +0.000 C 
ENDROOT
BRANCH   1  12
ATOM     11  C   UNL     1       0.911   3.577  19.856  0.00  0.00    +0.000 C 
ATOM     12  S   UNL     1       1.983   4.296  18.638  0.00  0.00    +0.000 S 
ATOM     13  O   UNL     1       1.302   4.228  17.363  0.00  0.00    +0.000 OA
ATOM     14  O   UNL     1       2.436   5.563  19.173  0.00  0.00    +0.000 OA
ENDBRANCH   1  12
TORSDOF 1
ENDMDL
MODEL 3
REMARK VINA RESULT:      -6.0      1.481      1.557
REMARK  Name = 
REMARK  2 active torsions:
REMARK  status: ('A' for Active; 'I' for Inactive)
REMARK    1  A    between atoms: C_1  and  S_2
REMARK    2  A    between atoms: S_2  and  N_5
REMARK                            x       y       z     vdW  Elec       q    Type
REMARK                         _______ _______ _______ _____ _____    ______ ____
ROOT
ATOM      1  N   UNL     1       3.836   4.682  19.890  0.00  0.00    +0.000 NA
ATOM      2  C   UNL     1       2.753   5.632  19.509  0.00  0.00    +0.000 C 
ATOM      3  C   UNL     1       2.632   5.769  17.989  0.00  0.00    +0.000 C 
ATOM      4  O   UNL     1       3.873   6.128  17.370  0.00  0.00    +0.000 OA
ATOM      5  C   UNL     1       4.966   5.236  17.679  0.00  0.00    +0.000 C 
ATOM      6  C   UNL     1       6.228   5.893  17.061  0.00  0.00    +0.000 C 
ATOM      7  C   UNL     1       6.913   4.810  16.238  0.00  0.00    +0.000 C 
ATOM      8  C   UNL     1       5.758   3.976  15.730  0.00  0.00    +0.000 C 
ATOM      9  C   UNL     1       4.842   3.885  16.939  0.00  0.00    +0.000 C 
ATOM     10  C   UNL     1       5.117   5.086  19.215  0.00  0.00    +0.000 C 
ENDROOT
BRANCH   1  12
ATOM     11  C   UNL     1       2.603   2.800  21.426  0.00  0.00    +0.000 C 
ATOM     12  S   UNL     1       3.478   3.030  19.899  0.00  0.00    +0.000 S 
ATOM     13  O   UNL     1       4.727   2.306  20.000  0.00  0.00    +0.000 OA
ATOM     14  O   UNL     1       2.540   2.751  18.832  0.00  0.00    +0.000 OA
ENDBRANCH   1  12
TORSDOF 1
ENDMDL
MODEL 4
REMARK VINA RESULT:      -5.9      2.086      4.465
REMARK  Name = 
REMARK  2 active torsions:
REMARK  status: ('A' for Active; 'I' for Inactive)
REMARK    1  A    between atoms: C_1  and  S_2
REMARK    2  A    between atoms: S_2  and  N_5
REMARK                            x       y       z     vdW  Elec       q    Type
REMARK                         _______ _______ _______ _____ _____    ______ ____
ROOT
ATOM      1  N   UNL     1       4.770   4.948  17.441  0.00  0.00    +0.000 NA
ATOM      2  C   UNL     1       4.379   6.362  17.182  0.00  0.00    +0.000 C 
ATOM      3  C   UNL     1       3.263   6.819  18.125  0.00  0.00    +0.000 C 
ATOM      4  O   UNL     1       2.122   5.954  18.086  0.00  0.00    +0.000 OA
ATOM      5  C   UNL     1       2.425   4.567  18.351  0.00  0.00    +0.000 C 
ATOM      6  C   UNL     1       1.105   3.795  18.092  0.00  0.00    +0.000 C 
ATOM      7  C   UNL     1       0.872   2.925  19.321  0.00  0.00    +0.000 C 
ATOM      8  C   UNL     1       1.449   3.753  20.448  0.00  0.00    +0.000 C 
ATOM      9  C   UNL     1       2.727   4.311  19.844  0.00  0.00    +0.000 C 
ATOM     10  C   UNL     1       3.548   4.074  17.401  0.00  0.00    +0.000 C 
ENDROOT
BRANCH   1  12
ATOM     11  C   UNL     1       7.441   4.610  17.854  0.00  0.00    +0.000 C 
ATOM     12  S   UNL     1       5.873   4.643  18.685  0.00  0.00    +0.000 S 
ATOM     13  O   UNL     1       5.618   3.310  19.187  0.00  0.00    +0.000 OA
ATOM     14  O   UNL     1       5.895   5.783  19.577  0.00  0.00    +0.000 OA
ENDBRANCH   1  12
TORSDOF 1
ENDMDL
MODEL 5
REMARK VINA RESULT:      -5.9      2.956      4.479
REMARK  Name = 
REMARK  2 active torsions:
REMARK  status: ('A' for Active; 'I' for Inactive)
REMARK    1  A    between atoms: C_1  and  S_2
REMARK    2  A    between atoms: S_2  and  N_5
REMARK                            x       y       z     vdW  Elec       q    Type
REMARK                         _______ _______ _______ _____ _____    ______ ____
ROOT
ATOM      1  N   UNL     1       6.374   6.250  16.275  0.00  0.00    +0.000 NA
ATOM      2  C   UNL     1       7.014   6.640  17.563  0.00  0.00    +0.000 C 
ATOM      3  C   UNL     1       6.593   5.714  18.705  0.00  0.00    +0.000 C 
ATOM      4  O   UNL     1       5.170   5.624  18.844  0.00  0.00    +0.000 OA
ATOM      5  C   UNL     1       4.484   5.228  17.637  0.00  0.00    +0.000 C 
ATOM      6  C   UNL     1       2.971   5.361  17.954  0.00  0.00    +0.000 C 
ATOM      7  C   UNL     1       2.331   4.043  17.541  0.00  0.00    +0.000 C 
ATOM      8  C   UNL     1       3.418   3.027  17.815  0.00  0.00    +0.000 C 
ATOM      9  C   UNL     1       4.674   3.727  17.324  0.00  0.00    +0.000 C 
ATOM     10  C   UNL     1       4.886   6.159  16.463  0.00  0.00    +0.000 C 
ENDROOT
BRANCH   1  12
ATOM     11  C   UNL     1       5.730   4.275  14.512  0.00  0.00    +0.000 C 
ATOM     12  S   UNL     1       7.095   5.018  15.370  0.00  0.00    +0.000 S 
ATOM     13  O   UNL     1       7.617   4.035  16.294  0.00  0.00    +0.000 OA
ATOM     14  O   UNL     1       7.946   5.618  14.363  0.00  0.00    +0.000 OA
ENDBRANCH   1  12
TORSDOF 1
ENDMDL
MODEL 6
REMARK VINA RESULT:      -5.9      2.533      4.400
REMARK  Name = 
REMARK  2 active torsions:
REMARK  status: ('A' for Active; 'I' for Inactive)
REMARK    1  A    between atoms: C_1  and  S_2
REMARK    2  A    between atoms: S_2  and  N_5
REMARK                            x       y       z     vdW  Elec       q    Type
REMARK                         _______ _______ _______ _____ _____    ______ ____
ROOT
ATOM      1  N   UNL     1       5.682   5.567  17.225  0.00  0.00    +0.000 NA
ATOM      2  C   UNL     1       4.669   6.650  17.364  0.00  0.00    +0.000 C 
ATOM      3  C   UNL     1       3.581   6.278  18.374  0.00  0.00    +0.000 C 
ATOM      4  O   UNL     1       2.956   5.024  18.072  0.00  0.00    +0.000 OA
ATOM      5  C   UNL     1       3.879   3.922  17.944  0.00  0.00    +0.000 C 
ATOM      6  C   UNL     1       3.029   2.721  17.453  0.00  0.00    +0.000 C 
ATOM      7  C   UNL     1       3.353   1.560  18.384  0.00  0.00    +0.000 C 
ATOM      8  C   UNL     1       3.618   2.239  19.709  0.00  0.00    +0.000 C 
ATOM      9  C   UNL     1       4.430   3.461  19.311  0.00  0.00    +0.000 C 
ATOM     10  C   UNL     1       4.989   4.269  16.917  0.00  0.00    +0.000 C 
ENDROOT
BRANCH   1  12
ATOM     11  C   UNL     1       7.832   7.006  18.075  0.00  0.00    +0.000 C 
ATOM     12  S   UNL     1       6.936   5.500  18.356  0.00  0.00    +0.000 S 
ATOM     13  O   UNL     1       7.805   4.402  17.992  0.00  0.00    +0.000 OA
ATOM     14  O   UNL     1       6.369   5.592  19.686  0.00  0.00    +0.000 OA
ENDBRANCH   1  12
TORSDOF 1
ENDMDL
MODEL 7
REMARK VINA RESULT:      -5.8      2.122      4.629
REMARK  Name = 
REMARK  2 active torsions:
REMARK  status: ('A' for Active; 'I' for Inactive)
REMARK    1  A    between atoms: C_1  and  S_2
REMARK    2  A    between atoms: S_2  and  N_5
REMARK                            x       y       z     vdW  Elec       q    Type
REMARK                         _______ _______ _______ _____ _____    ______ ____
ROOT
ATOM      1  N   UNL     1       5.274   3.756  18.143  0.00  0.00    +0.000 NA
ATOM      2  C   UNL     1       4.481   3.583  16.894  0.00  0.00    +0.000 C 
ATOM      3  C   UNL     1       3.030   4.034  17.081  0.00  0.00    +0.000 C 
ATOM      4  O   UNL     1       2.393   3.388  18.190  0.00  0.00    +0.000 OA
ATOM      5  C   UNL     1       3.098   3.533  19.441  0.00  0.00    +0.000 C 
ATOM      6  C   UNL     1       2.344   2.630  20.452  0.00  0.00    +0.000 C 
ATOM      7  C   UNL     1       2.067   3.496  21.674  0.00  0.00    +0.000 C 
ATOM      8  C   UNL     1       1.871   4.876  21.086  0.00  0.00    +0.000 C 
ATOM      9  C   UNL     1       2.958   4.956  20.027  0.00  0.00    +0.000 C 
ATOM     10  C   UNL     1       4.571   3.073  19.282  0.00  0.00    +0.000 C 
ENDROOT
BRANCH   1  12
ATOM     11  C   UNL     1       7.351   5.360  17.411  0.00  0.00    +0.000 C 
ATOM     12  S   UNL     1       5.926   5.281  18.467  0.00  0.00    +0.000 S 
ATOM     13  O   UNL     1       6.398   5.282  19.835  0.00  0.00    +0.000 OA
ATOM     14  O   UNL     1       5.001   6.292  17.998  0.00  0.00    +0.000 OA
ENDBRANCH   1  12
TORSDOF 1
ENDMDL
MODEL 8
REMARK VINA RESULT:      -5.7      3.095      4.282
REMARK  Name = 
REMARK  2 active torsions:
REMARK  status: ('A' for Active; 'I' for Inactive)
REMARK    1  A    between atoms: C_1  and  S_2
REMARK    2  A    between atoms: S_2  and  N_5
REMARK                            x       y       z     vdW  Elec       q    Type
REMARK                         _______ _______ _______ _____ _____    ______ ____
ROOT
ATOM      1  N   UNL     1       6.422   4.111  16.012  0.00  0.00    +0.000 NA
ATOM      2  C   UNL     1       5.079   3.896  16.621  0.00  0.00    +0.000 C 
ATOM      3  C   UNL     1       4.599   5.136  17.379  0.00  0.00    +0.000 C 
ATOM      4  O   UNL     1       5.544   5.581  18.359  0.00  0.00    +0.000 OA
ATOM      5  C   UNL     1       6.865   5.831  17.833  0.00  0.00    +0.000 C 
ATOM      6  C   UNL     1       7.756   6.128  19.068  0.00  0.00    +0.000 C 
ATOM      7  C   UNL     1       8.493   7.424  18.760  0.00  0.00    +0.000 C 
ATOM      8  C   UNL     1       7.502   8.197  17.919  0.00  0.00    +0.000 C 
ATOM      9  C   UNL     1       6.925   7.131  17.002  0.00  0.00    +0.000 C 
ATOM     10  C   UNL     1       7.381   4.584  17.068  0.00  0.00    +0.000 C 
ENDROOT
BRANCH   1  12
ATOM     11  C   UNL     1       6.133   3.611  13.350  0.00  0.00    +0.000 C 
ATOM     12  S   UNL     1       6.500   4.896  14.517  0.00  0.00    +0.000 S 
ATOM     13  O   UNL     1       7.872   5.302  14.300  0.00  0.00    +0.000 OA
ATOM     14  O   UNL     1       5.419   5.856  14.438  0.00  0.00    +0.000 OA
ENDBRANCH   1  12
TORSDOF 1
ENDMDL
MODEL 9
REMARK VINA RESULT:      -5.7      3.172      4.432
REMARK  Name = 
REMARK  2 active torsions:
REMARK  status: ('A' for Active; 'I' for Inactive)
REMARK    1  A    between atoms: C_1  and  S_2
REMARK    2  A    between atoms: S_2  and  N_5
REMARK                            x       y       z     vdW  Elec       q    Type
REMARK                         _______ _______ _______ _____ _____    ______ ____
ROOT
ATOM      1  N   UNL     1       6.657   6.314  16.788  0.00  0.00    +0.000 NA
ATOM      2  C   UNL     1       7.667   6.717  17.805  0.00  0.00    +0.000 C 
ATOM      3  C   UNL     1       7.617   5.812  19.038  0.00  0.00    +0.000 C 
ATOM      4  O   UNL     1       6.307   5.738  19.614  0.00  0.00    +0.000 OA
ATOM      5  C   UNL     1       5.279   5.330  18.686  0.00  0.00    +0.000 C 
ATOM      6  C   UNL     1       3.940   5.481  19.454  0.00  0.00    +0.000 C 
ATOM      7  C   UNL     1       3.198   4.163  19.283  0.00  0.00    +0.000 C 
ATOM      8  C   UNL     1       4.312   3.141  19.224  0.00  0.00    +0.000 C 
ATOM      9  C   UNL     1       5.356   3.823  18.355  0.00  0.00    +0.000 C 
ATOM     10  C   UNL     1       5.300   6.239  17.429  0.00  0.00    +0.000 C 
ENDROOT
BRANCH   1  12
ATOM     11  C   UNL     1       5.479   4.447  15.191  0.00  0.00    +0.000 C 
ATOM     12  S   UNL     1       7.056   5.062  15.724  0.00  0.00    +0.000 S 
ATOM     13  O   UNL     1       7.695   4.015  16.491  0.00  0.00    +0.000 OA
ATOM     14  O   UNL     1       7.700   5.630  14.558  0.00  0.00    +0.000 OA
ENDBRANCH   1  12
TORSDOF 1
ENDMDL
