MODEL 1
REMARK VINA RESULT:      -8.9      0.000      0.000
REMARK  Name = 
REMARK  7 active torsions:
REMARK  status: ('A' for Active; 'I' for Inactive)
REMARK    1  A    between atoms: C_1  and  C_2
REMARK    2  A    between atoms: C_2  and  C_3
REMARK    3  A    between atoms: C_2  and  C_4
REMARK    4  A    between atoms: C_2  and  N_19
REMARK    5  A    between atoms: N_6  and  C_7
REMARK    6  A    between atoms: C_14  and  C_15
REMARK    7  A    between atoms: C_26  and  C_27
REMARK                            x       y       z     vdW  Elec       q    Type
REMARK                         _______ _______ _______ _____ _____    ______ ____
ROOT
ATOM      1  C   UNL     1       1.339   2.670  19.148  0.00  0.00    +0.000 C 
ATOM      2  C   UNL     1       2.866   2.912  19.135  0.00  0.00    +0.000 C 
ATOM      3  C   UNL     1       3.536   1.529  19.248  0.00  0.00    +0.000 C 
ENDROOT
BRANCH   2   4
ATOM      4  N   UNL     1       3.227   3.911  20.189  0.00  0.00    +0.000 NA
ATOM      5  C   UNL     1       3.901   5.146  19.695  0.00  0.00    +0.000 C 
ATOM      6  C   UNL     1       2.988   6.302  19.208  0.00  0.00    +0.000 C 
ATOM      7  N   UNL     1       2.051   6.605  20.284  0.00  0.00    +0.000 N 
ATOM      8  C   UNL     1       1.505   7.873  20.322  0.00  0.00    +0.000 A 
ATOM      9  C   UNL     1       1.065   8.366  21.554  0.00  0.00    +0.000 A 
ATOM     10  C   UNL     1       0.639   9.681  21.669  0.00  0.00    +0.000 A 
ATOM     11  C   UNL     1       0.643  10.500  20.545  0.00  0.00    +0.000 A 
ATOM     12  C   UNL     1       1.074   9.938  19.354  0.00  0.00    +0.000 A 
ATOM     13  N   UNL     1       1.512   8.661  19.228  0.00  0.00    +0.000 NA
ATOM     14  C   UNL     1       1.210   5.477  20.689  0.00  0.00    +0.000 C 
ATOM     15  C   UNL     1       2.129   4.309  21.116  0.00  0.00    +0.000 C 
BRANCH  11  16
ATOM     16  C   UNL     1       0.232  11.935  20.605  0.00  0.00    +0.000 C 
ATOM     17  F   UNL     1       1.287  12.798  20.659  0.00  0.00    +0.000 F 
ATOM     18  F   UNL     1      -0.499  12.314  19.520  0.00  0.00    +0.000 F 
ATOM     19  F   UNL     1      -0.535  12.218  21.692  0.00  0.00    +0.000 F 
ENDBRANCH  11  16
ENDBRANCH   2   4
BRANCH   2  20
ATOM     20  C   UNL     1       3.244   3.492  17.733  0.00  0.00    +0.000 C 
ATOM     21  O   UNL     1       2.401   3.660  16.849  0.00  0.00    +0.000 OA
ATOM     22  N   UNL     1       4.596   3.712  17.491  0.00  0.00    +0.000 N 
ATOM     23  H   UNL     1       5.237   3.748  18.276  0.00  0.00    +0.000 HD
BRANCH  22  24
ATOM     24  C   UNL     1       5.017   4.225  16.196  0.00  0.00    +0.000 C 
ATOM     25  C   UNL     1       4.967   5.745  16.081  0.00  0.00    +0.000 C 
ATOM     26  C   UNL     1       5.142   6.153  14.607  0.00  0.00    +0.000 C 
ATOM     27  C   UNL     1       6.160   5.367  13.777  0.00  0.00    +0.000 C 
ATOM     28  C   UNL     1       6.631   4.014  14.308  0.00  0.00    +0.000 C 
ATOM     29  C   UNL     1       6.423   3.764  15.808  0.00  0.00    +0.000 C 
ATOM     30  C   UNL     1       7.539   4.381  16.667  0.00  0.00    +0.000 C 
ATOM     31  C   UNL     1       7.287   5.752  17.312  0.00  0.00    +0.000 C 
ATOM     32  C   UNL     1       5.961   6.460  17.003  0.00  0.00    +0.000 C 
BRANCH  31  33
ATOM     33  C   UNL     1       7.490   5.700  18.829  0.00  0.00    +0.000 C 
ATOM     34  N   UNL     1       8.345   6.615  19.366  0.00  0.00    +0.000 N 
ATOM     35  O   UNL     1       6.973   4.849  19.544  0.00  0.00    +0.000 OA
ATOM     36  H   UNL     1       8.545   7.497  18.901  0.00  0.00    +0.000 HD
ATOM     37  H   UNL     1       8.423   6.619  20.375  0.00  0.00    +0.000 HD
ENDBRANCH  31  33
ENDBRANCH  22  24
ENDBRANCH   2  20
TORSDOF 5
ENDMDL
MODEL 2
REMARK VINA RESULT:      -8.3      5.545     11.331
REMARK  Name = 
REMARK  7 active torsions:
REMARK  status: ('A' for Active; 'I' for Inactive)
REMARK    1  A    between atoms: C_1  and  C_2
REMARK    2  A    between atoms: C_2  and  C_3
REMARK    3  A    between atoms: C_2  and  C_4
REMARK    4  A    between atoms: C_2  and  N_19
REMARK    5  A    between atoms: N_6  and  C_7
REMARK    6  A    between atoms: C_14  and  C_15
REMARK    7  A    between atoms: C_26  and  C_27
REMARK                            x       y       z     vdW  Elec       q    Type
REMARK                         _______ _______ _______ _____ _____    ______ ____
ROOT
ATOM      1  C   UNL     1      -0.108  13.455  19.112  0.00  0.00    +0.000 C 
ATOM      2  C   UNL     1       0.263  12.740  20.432  0.00  0.00    +0.000 C 
ATOM      3  C   UNL     1       1.801  12.737  20.519  0.00  0.00    +0.000 C 
ENDROOT
BRANCH   2   4
ATOM      4  N   UNL     1      -0.406  11.403  20.487  0.00  0.00    +0.000 NA
ATOM      5  C   UNL     1      -0.359  10.613  19.223  0.00  0.00    +0.000 C 
ATOM      6  C   UNL     1       0.901   9.741  18.980  0.00  0.00    +0.000 C 
ATOM      7  N   UNL     1       1.072   8.882  20.147  0.00  0.00    +0.000 N 
ATOM      8  C   UNL     1       1.766   7.700  19.978  0.00  0.00    +0.000 A 
ATOM      9  C   UNL     1       1.502   6.647  20.859  0.00  0.00    +0.000 A 
ATOM     10  C   UNL     1       2.068   5.399  20.647  0.00  0.00    +0.000 A 
ATOM     11  C   UNL     1       2.908   5.208  19.555  0.00  0.00    +0.000 A 
ATOM     12  C   UNL     1       3.139   6.300  18.736  0.00  0.00    +0.000 A 
ATOM     13  N   UNL     1       2.579   7.522  18.918  0.00  0.00    +0.000 NA
ATOM     14  C   UNL     1       1.233   9.604  21.411  0.00  0.00    +0.000 C 
ATOM     15  C   UNL     1      -0.000  10.515  21.615  0.00  0.00    +0.000 C 
BRANCH  11  16
ATOM     16  C   UNL     1       3.522   3.881  19.247  0.00  0.00    +0.000 C 
ATOM     17  F   UNL     1       4.858   3.828  19.517  0.00  0.00    +0.000 F 
ATOM     18  F   UNL     1       2.960   2.867  19.962  0.00  0.00    +0.000 F 
ATOM     19  F   UNL     1       3.394   3.533  17.938  0.00  0.00    +0.000 F 
ENDBRANCH  11  16
ENDBRANCH   2   4
BRANCH   2  20
ATOM     20  C   UNL     1      -0.262  13.620  21.614  0.00  0.00    +0.000 C 
ATOM     21  O   UNL     1       0.490  14.039  22.497  0.00  0.00    +0.000 OA
ATOM     22  N   UNL     1      -1.637  13.820  21.681  0.00  0.00    +0.000 N 
ATOM     23  H   UNL     1      -2.202  13.634  20.861  0.00  0.00    +0.000 HD
BRANCH  22  24
ATOM     24  C   UNL     1      -2.192  14.607  22.772  0.00  0.00    +0.000 C 
ATOM     25  C   UNL     1      -3.189  15.673  22.329  0.00  0.00    +0.000 C 
ATOM     26  C   UNL     1      -3.480  16.622  23.505  0.00  0.00    +0.000 C 
ATOM     27  C   UNL     1      -3.613  15.998  24.896  0.00  0.00    +0.000 C 
ATOM     28  C   UNL     1      -3.068  14.586  25.106  0.00  0.00    +0.000 C 
ATOM     29  C   UNL     1      -2.864  13.742  23.841  0.00  0.00    +0.000 C 
ATOM     30  C   UNL     1      -4.161  13.067  23.368  0.00  0.00    +0.000 C 
ATOM     31  C   UNL     1      -4.969  13.744  22.251  0.00  0.00    +0.000 C 
ATOM     32  C   UNL     1      -4.470  15.094  21.719  0.00  0.00    +0.000 C 
BRANCH  31  33
ATOM     33  C   UNL     1      -5.199  12.792  21.074  0.00  0.00    +0.000 C 
ATOM     34  N   UNL     1      -4.581  13.106  19.900  0.00  0.00    +0.000 N 
ATOM     35  O   UNL     1      -5.948  11.823  21.134  0.00  0.00    +0.000 OA
ATOM     36  H   UNL     1      -3.743  13.681  19.874  0.00  0.00    +0.000 HD
ATOM     37  H   UNL     1      -4.683  12.438  19.146  0.00  0.00    +0.000 HD
ENDBRANCH  31  33
ENDBRANCH  22  24
ENDBRANCH   2  20
TORSDOF 5
ENDMDL
MODEL 3
REMARK VINA RESULT:      -8.3      5.446     10.080
REMARK  Name = 
REMARK  7 active torsions:
REMARK  status: ('A' for Active; 'I' for Inactive)
REMARK    1  A    between atoms: C_1  and  C_2
REMARK    2  A    between atoms: C_2  and  C_3
REMARK    3  A    between atoms: C_2  and  C_4
REMARK    4  A    between atoms: C_2  and  N_19
REMARK    5  A    between atoms: N_6  and  C_7
REMARK    6  A    between atoms: C_14  and  C_15
REMARK    7  A    between atoms: C_26  and  C_27
REMARK                            x       y       z     vdW  Elec       q    Type
REMARK                         _______ _______ _______ _____ _____    ______ ____
ROOT
ATOM      1  C   UNL     1      -0.975  11.849  21.112  0.00  0.00    +0.000 C 
ATOM      2  C   UNL     1      -0.333  11.549  19.738  0.00  0.00    +0.000 C 
ATOM      3  C   UNL     1      -1.291  10.596  18.999  0.00  0.00    +0.000 C 
ENDROOT
BRANCH   2   4
ATOM      4  N   UNL     1       1.067  11.060  19.932  0.00  0.00    +0.000 NA
ATOM      5  C   UNL     1       1.292  10.231  21.150  0.00  0.00    +0.000 C 
ATOM      6  C   UNL     1       0.999   8.711  21.036  0.00  0.00    +0.000 C 
ATOM      7  N   UNL     1       1.761   8.201  19.902  0.00  0.00    +0.000 N 
ATOM      8  C   UNL     1       2.084   6.859  19.896  0.00  0.00    +0.000 A 
ATOM      9  C   UNL     1       3.208   6.452  19.171  0.00  0.00    +0.000 A 
ATOM     10  C   UNL     1       3.653   5.140  19.247  0.00  0.00    +0.000 A 
ATOM     11  C   UNL     1       2.964   4.232  20.044  0.00  0.00    +0.000 A 
ATOM     12  C   UNL     1       1.849   4.701  20.719  0.00  0.00    +0.000 A 
ATOM     13  N   UNL     1       1.412   5.984  20.671  0.00  0.00    +0.000 NA
ATOM     14  C   UNL     1       1.445   8.842  18.623  0.00  0.00    +0.000 C 
ATOM     15  C   UNL     1       1.684  10.363  18.766  0.00  0.00    +0.000 C 
BRANCH  11  16
ATOM     16  C   UNL     1       3.409   2.814  20.200  0.00  0.00    +0.000 C 
ATOM     17  F   UNL     1       4.679   2.595  19.758  0.00  0.00    +0.000 F 
ATOM     18  F   UNL     1       3.393   2.403  21.499  0.00  0.00    +0.000 F 
ATOM     19  F   UNL     1       2.622   1.937  19.520  0.00  0.00    +0.000 F 
ENDBRANCH  11  16
ENDBRANCH   2   4
BRANCH   2  20
ATOM     20  C   UNL     1      -0.298  12.886  18.928  0.00  0.00    +0.000 C 
ATOM     21  O   UNL     1      -0.721  12.957  17.772  0.00  0.00    +0.000 OA
ATOM     22  N   UNL     1       0.333  13.967  19.533  0.00  0.00    +0.000 N 
ATOM     23  H   UNL     1       0.500  13.943  20.533  0.00  0.00    +0.000 HD
BRANCH  22  24
ATOM     24  C   UNL     1       0.424  15.233  18.820  0.00  0.00    +0.000 C 
ATOM     25  C   UNL     1      -0.693  16.217  19.150  0.00  0.00    +0.000 C 
ATOM     26  C   UNL     1      -0.667  17.378  18.140  0.00  0.00    +0.000 C 
ATOM     27  C   UNL     1       0.704  17.910  17.715  0.00  0.00    +0.000 C 
ATOM     28  C   UNL     1       1.928  17.035  17.981  0.00  0.00    +0.000 C 
ATOM     29  C   UNL     1       1.763  15.940  19.043  0.00  0.00    +0.000 C 
ATOM     30  C   UNL     1       1.953  16.473  20.472  0.00  0.00    +0.000 C 
ATOM     31  C   UNL     1       0.702  16.835  21.287  0.00  0.00    +0.000 C 
ATOM     32  C   UNL     1      -0.664  16.709  20.601  0.00  0.00    +0.000 C 
BRANCH  31  33
ATOM     33  C   UNL     1       0.669  16.082  22.620  0.00  0.00    +0.000 C 
ATOM     34  N   UNL     1       0.858  16.823  23.749  0.00  0.00    +0.000 N 
ATOM     35  O   UNL     1       0.546  14.865  22.699  0.00  0.00    +0.000 OA
ATOM     36  H   UNL     1       0.658  17.820  23.773  0.00  0.00    +0.000 HD
ATOM     37  H   UNL     1       0.768  16.332  24.629  0.00  0.00    +0.000 HD
ENDBRANCH  31  33
ENDBRANCH  22  24
ENDBRANCH   2  20
TORSDOF 5
ENDMDL
MODEL 4
REMARK VINA RESULT:      -8.3      5.497     11.117
REMARK  Name = 
REMARK  7 active torsions:
REMARK  status: ('A' for Active; 'I' for Inactive)
REMARK    1  A    between atoms: C_1  and  C_2
REMARK    2  A    between atoms: C_2  and  C_3
REMARK    3  A    between atoms: C_2  and  C_4
REMARK    4  A    between atoms: C_2  and  N_19
REMARK    5  A    between atoms: N_6  and  C_7
REMARK    6  A    between atoms: C_14  and  C_15
REMARK    7  A    between atoms: C_26  and  C_27
REMARK                            x       y       z     vdW  Elec       q    Type
REMARK                         _______ _______ _______ _____ _____    ______ ____
ROOT
ATOM      1  C   UNL     1      -0.745  12.932  18.516  0.00  0.00    +0.000 C 
ATOM      2  C   UNL     1      -0.026  12.115  19.615  0.00  0.00    +0.000 C 
ATOM      3  C   UNL     1       1.480  12.408  19.472  0.00  0.00    +0.000 C 
ENDROOT
BRANCH   2   4
ATOM      4  N   UNL     1      -0.432  10.678  19.522  0.00  0.00    +0.000 NA
ATOM      5  C   UNL     1      -0.179  10.026  18.205  0.00  0.00    +0.000 C 
ATOM      6  C   UNL     1       1.233   9.426  17.974  0.00  0.00    +0.000 C 
ATOM      7  N   UNL     1       1.509   8.512  19.078  0.00  0.00    +0.000 N 
ATOM      8  C   UNL     1       2.420   7.498  18.860  0.00  0.00    +0.000 A 
ATOM      9  C   UNL     1       2.318   6.341  19.638  0.00  0.00    +0.000 A 
ATOM     10  C   UNL     1       3.119   5.241  19.364  0.00  0.00    +0.000 A 
ATOM     11  C   UNL     1       4.030   5.306  18.315  0.00  0.00    +0.000 A 
ATOM     12  C   UNL     1       4.088   6.491  17.600  0.00  0.00    +0.000 A 
ATOM     13  N   UNL     1       3.301   7.568  17.842  0.00  0.00    +0.000 NA
ATOM     14  C   UNL     1       1.471   9.136  20.402  0.00  0.00    +0.000 C 
ATOM     15  C   UNL     1       0.080   9.783  20.600  0.00  0.00    +0.000 C 
BRANCH  11  16
ATOM     16  C   UNL     1       4.897   4.148  17.942  0.00  0.00    +0.000 C 
ATOM     17  F   UNL     1       4.878   3.866  16.608  0.00  0.00    +0.000 F 
ATOM     18  F   UNL     1       6.206   4.353  18.258  0.00  0.00    +0.000 F 
ATOM     19  F   UNL     1       4.536   2.996  18.570  0.00  0.00    +0.000 F 
ENDBRANCH  11  16
ENDBRANCH   2   4
BRANCH   2  20
ATOM     20  C   UNL     1      -0.476  12.683  21.000  0.00  0.00    +0.000 C 
ATOM     21  O   UNL     1       0.327  12.874  21.917  0.00  0.00    +0.000 OA
ATOM     22  N   UNL     1      -1.842  12.863  21.189  0.00  0.00    +0.000 N 
ATOM     23  H   UNL     1      -2.452  12.882  20.379  0.00  0.00    +0.000 HD
BRANCH  22  24
ATOM     24  C   UNL     1      -2.328  13.363  22.466  0.00  0.00    +0.000 C 
ATOM     25  C   UNL     1      -2.725  14.835  22.450  0.00  0.00    +0.000 C 
ATOM     26  C   UNL     1      -2.936  15.324  23.894  0.00  0.00    +0.000 C 
ATOM     27  C   UNL     1      -3.632  14.367  24.866  0.00  0.00    +0.000 C 
ATOM     28  C   UNL     1      -3.708  12.888  24.488  0.00  0.00    +0.000 C 
ATOM     29  C   UNL     1      -3.513  12.557  23.002  0.00  0.00    +0.000 C 
ATOM     30  C   UNL     1      -4.804  12.732  22.186  0.00  0.00    +0.000 C 
ATOM     31  C   UNL     1      -5.003  14.044  21.412  0.00  0.00    +0.000 C 
ATOM     32  C   UNL     1      -3.932  15.133  21.554  0.00  0.00    +0.000 C 
BRANCH  31  33
ATOM     33  C   UNL     1      -5.260  13.780  19.925  0.00  0.00    +0.000 C 
ATOM     34  N   UNL     1      -5.761  14.816  19.195  0.00  0.00    +0.000 N 
ATOM     35  O   UNL     1      -5.094  12.683  19.402  0.00  0.00    +0.000 OA
ATOM     36  H   UNL     1      -5.628  15.783  19.478  0.00  0.00    +0.000 HD
ATOM     37  H   UNL     1      -5.866  14.655  18.201  0.00  0.00    +0.000 HD
ENDBRANCH  31  33
ENDBRANCH  22  24
ENDBRANCH   2  20
TORSDOF 5
ENDMDL
MODEL 5
REMARK VINA RESULT:      -8.2      6.568     12.402
REMARK  Name = 
REMARK  7 active torsions:
REMARK  status: ('A' for Active; 'I' for Inactive)
REMARK    1  A    between atoms: C_1  and  C_2
REMARK    2  A    between atoms: C_2  and  C_3
REMARK    3  A    between atoms: C_2  and  C_4
REMARK    4  A    between atoms: C_2  and  N_19
REMARK    5  A    between atoms: N_6  and  C_7
REMARK    6  A    between atoms: C_14  and  C_15
REMARK    7  A    between atoms: C_26  and  C_27
REMARK                            x       y       z     vdW  Elec       q    Type
REMARK                         _______ _______ _______ _____ _____    ______ ____
ROOT
ATOM      1  C   UNL     1      -1.217  13.660  23.146  0.00  0.00    +0.000 C 
ATOM      2  C   UNL     1      -1.842  13.233  21.798  0.00  0.00    +0.000 C 
ATOM      3  C   UNL     1      -2.592  11.911  22.055  0.00  0.00    +0.000 C 
ENDROOT
BRANCH   2   4
ATOM      4  N   UNL     1      -0.784  13.197  20.741  0.00  0.00    +0.000 NA
ATOM      5  C   UNL     1       0.547  12.690  21.185  0.00  0.00    +0.000 C 
ATOM      6  C   UNL     1       0.763  11.154  21.159  0.00  0.00    +0.000 C 
ATOM      7  N   UNL     1       0.442  10.688  19.814  0.00  0.00    +0.000 N 
ATOM      8  C   UNL     1       1.023   9.511  19.387  0.00  0.00    +0.000 A 
ATOM      9  C   UNL     1       1.186   9.315  18.012  0.00  0.00    +0.000 A 
ATOM     10  C   UNL     1       1.887   8.216  17.540  0.00  0.00    +0.000 A 
ATOM     11  C   UNL     1       2.417   7.304  18.447  0.00  0.00    +0.000 A 
ATOM     12  C   UNL     1       2.201   7.552  19.793  0.00  0.00    +0.000 A 
ATOM     13  N   UNL     1       1.534   8.632  20.272  0.00  0.00    +0.000 NA
ATOM     14  C   UNL     1      -0.927  10.981  19.384  0.00  0.00    +0.000 C 
ATOM     15  C   UNL     1      -1.152  12.509  19.470  0.00  0.00    +0.000 C 
BRANCH  11  16
ATOM     16  C   UNL     1       3.213   6.119  18.010  0.00  0.00    +0.000 C 
ATOM     17  F   UNL     1       3.992   5.596  19.000  0.00  0.00    +0.000 F 
ATOM     18  F   UNL     1       2.428   5.093  17.577  0.00  0.00    +0.000 F 
ATOM     19  F   UNL     1       4.060   6.402  16.983  0.00  0.00    +0.000 F 
ENDBRANCH  11  16
ENDBRANCH   2   4
BRANCH   2  20
ATOM     20  C   UNL     1      -2.913  14.302  21.410  0.00  0.00    +0.000 C 
ATOM     21  O   UNL     1      -2.602  15.380  20.899  0.00  0.00    +0.000 OA
ATOM     22  N   UNL     1      -4.229  14.027  21.766  0.00  0.00    +0.000 N 
ATOM     23  H   UNL     1      -4.485  13.075  22.007  0.00  0.00    +0.000 HD
BRANCH  22  24
ATOM     24  C   UNL     1      -5.271  14.994  21.457  0.00  0.00    +0.000 C 
ATOM     25  C   UNL     1      -6.498  14.395  20.778  0.00  0.00    +0.000 C 
ATOM     26  C   UNL     1      -7.390  15.528  20.239  0.00  0.00    +0.000 C 
ATOM     27  C   UNL     1      -7.546  16.776  21.112  0.00  0.00    +0.000 C 
ATOM     28  C   UNL     1      -6.531  17.002  22.232  0.00  0.00    +0.000 C 
ATOM     29  C   UNL     1      -5.741  15.768  22.691  0.00  0.00    +0.000 C 
ATOM     30  C   UNL     1      -6.521  14.912  23.702  0.00  0.00    +0.000 C 
ATOM     31  C   UNL     1      -7.281  13.683  23.181  0.00  0.00    +0.000 C 
ATOM     32  C   UNL     1      -7.275  13.420  21.670  0.00  0.00    +0.000 C 
BRANCH  31  33
ATOM     33  C   UNL     1      -6.852  12.410  23.917  0.00  0.00    +0.000 C 
ATOM     34  N   UNL     1      -5.653  12.449  24.565  0.00  0.00    +0.000 N 
ATOM     35  O   UNL     1      -7.502  11.371  23.889  0.00  0.00    +0.000 OA
ATOM     36  H   UNL     1      -5.242  13.326  24.876  0.00  0.00    +0.000 HD
ATOM     37  H   UNL     1      -5.407  11.629  25.104  0.00  0.00    +0.000 HD
ENDBRANCH  31  33
ENDBRANCH  22  24
ENDBRANCH   2  20
TORSDOF 5
ENDMDL
MODEL 6
REMARK VINA RESULT:      -8.2      5.749     11.334
REMARK  Name = 
REMARK  7 active torsions:
REMARK  status: ('A' for Active; 'I' for Inactive)
REMARK    1  A    between atoms: C_1  and  C_2
REMARK    2  A    between atoms: C_2  and  C_3
REMARK    3  A    between atoms: C_2  and  C_4
REMARK    4  A    between atoms: C_2  and  N_19
REMARK    5  A    between atoms: N_6  and  C_7
REMARK    6  A    between atoms: C_14  and  C_15
REMARK    7  A    between atoms: C_26  and  C_27
REMARK                            x       y       z     vdW  Elec       q    Type
REMARK                         _______ _______ _______ _____ _____    ______ ____
ROOT
ATOM      1  C   UNL     1      -0.815  10.358  22.800  0.00  0.00    +0.000 C 
ATOM      2  C   UNL     1      -0.314  11.180  21.590  0.00  0.00    +0.000 C 
ATOM      3  C   UNL     1      -1.336  10.970  20.457  0.00  0.00    +0.000 C 
ENDROOT
BRANCH   2   4
ATOM      4  N   UNL     1       1.102  10.809  21.280  0.00  0.00    +0.000 NA
ATOM      5  C   UNL     1       1.602   9.577  21.955  0.00  0.00    +0.000 C 
ATOM      6  C   UNL     1       1.314   8.222  21.257  0.00  0.00    +0.000 C 
ATOM      7  N   UNL     1       1.815   8.316  19.890  0.00  0.00    +0.000 N 
ATOM      8  C   UNL     1       2.149   7.141  19.246  0.00  0.00    +0.000 A 
ATOM      9  C   UNL     1       3.091   7.198  18.215  0.00  0.00    +0.000 A 
ATOM     10  C   UNL     1       3.562   6.031  17.632  0.00  0.00    +0.000 A 
ATOM     11  C   UNL     1       3.079   4.804  18.077  0.00  0.00    +0.000 A 
ATOM     12  C   UNL     1       2.134   4.825  19.089  0.00  0.00    +0.000 A 
ATOM     13  N   UNL     1       1.677   5.956  19.682  0.00  0.00    +0.000 NA
ATOM     14  C   UNL     1       1.215   9.392  19.099  0.00  0.00    +0.000 C 
ATOM     15  C   UNL     1       1.456  10.732  19.833  0.00  0.00    +0.000 C 
BRANCH  11  16
ATOM     16  C   UNL     1       3.569   3.507  17.519  0.00  0.00    +0.000 C 
ATOM     17  F   UNL     1       2.574   2.732  17.002  0.00  0.00    +0.000 F 
ATOM     18  F   UNL     1       4.467   3.679  16.510  0.00  0.00    +0.000 F 
ATOM     19  F   UNL     1       4.194   2.736  18.450  0.00  0.00    +0.000 F 
ENDBRANCH  11  16
ENDBRANCH   2   4
BRANCH   2  20
ATOM     20  C   UNL     1      -0.369  12.691  21.986  0.00  0.00    +0.000 C 
ATOM     21  O   UNL     1       0.627  13.416  21.928  0.00  0.00    +0.000 OA
ATOM     22  N   UNL     1      -1.570  13.157  22.510  0.00  0.00    +0.000 N 
ATOM     23  H   UNL     1      -2.412  12.608  22.375  0.00  0.00    +0.000 HD
BRANCH  22  24
ATOM     24  C   UNL     1      -1.679  14.548  22.923  0.00  0.00    +0.000 C 
ATOM     25  C   UNL     1      -2.732  15.345  22.161  0.00  0.00    +0.000 C 
ATOM     26  C   UNL     1      -2.558  16.844  22.465  0.00  0.00    +0.000 C 
ATOM     27  C   UNL     1      -2.214  17.234  23.904  0.00  0.00    +0.000 C 
ATOM     28  C   UNL     1      -1.677  16.148  24.835  0.00  0.00    +0.000 C 
ATOM     29  C   UNL     1      -1.960  14.698  24.420  0.00  0.00    +0.000 C 
ATOM     30  C   UNL     1      -3.363  14.229  24.839  0.00  0.00    +0.000 C 
ATOM     31  C   UNL     1      -4.489  14.280  23.796  0.00  0.00    +0.000 C 
ATOM     32  C   UNL     1      -4.165  14.864  22.414  0.00  0.00    +0.000 C 
BRANCH  31  33
ATOM     33  C   UNL     1      -5.151  12.910  23.622  0.00  0.00    +0.000 C 
ATOM     34  N   UNL     1      -5.305  12.460  22.344  0.00  0.00    +0.000 N 
ATOM     35  O   UNL     1      -5.590  12.255  24.561  0.00  0.00    +0.000 OA
ATOM     36  H   UNL     1      -4.712  12.788  21.587  0.00  0.00    +0.000 HD
ATOM     37  H   UNL     1      -5.682  11.526  22.240  0.00  0.00    +0.000 HD
ENDBRANCH  31  33
ENDBRANCH  22  24
ENDBRANCH   2  20
TORSDOF 5
ENDMDL
MODEL 7
REMARK VINA RESULT:      -8.1      5.310     10.756
REMARK  Name = 
REMARK  7 active torsions:
REMARK  status: ('A' for Active; 'I' for Inactive)
REMARK    1  A    between atoms: C_1  and  C_2
REMARK    2  A    between atoms: C_2  and  C_3
REMARK    3  A    between atoms: C_2  and  C_4
REMARK    4  A    between atoms: C_2  and  N_19
REMARK    5  A    between atoms: N_6  and  C_7
REMARK    6  A    between atoms: C_14  and  C_15
REMARK    7  A    between atoms: C_26  and  C_27
REMARK                            x       y       z     vdW  Elec       q    Type
REMARK                         _______ _______ _______ _____ _____    ______ ____
ROOT
ATOM      1  C   UNL     1      -0.805   8.414  21.511  0.00  0.00    +0.000 C 
ATOM      2  C   UNL     1      -0.374   9.801  20.982  0.00  0.00    +0.000 C 
ATOM      3  C   UNL     1      -1.255  10.103  19.755  0.00  0.00    +0.000 C 
ENDROOT
BRANCH   2   4
ATOM      4  N   UNL     1       1.105   9.817  20.754  0.00  0.00    +0.000 NA
ATOM      5  C   UNL     1       1.837   8.608  21.229  0.00  0.00    +0.000 C 
ATOM      6  C   UNL     1       1.910   7.399  20.258  0.00  0.00    +0.000 C 
ATOM      7  N   UNL     1       2.453   7.883  18.994  0.00  0.00    +0.000 N 
ATOM      8  C   UNL     1       3.085   6.970  18.174  0.00  0.00    +0.000 A 
ATOM      9  C   UNL     1       4.046   7.442  17.275  0.00  0.00    +0.000 A 
ATOM     10  C   UNL     1       4.806   6.552  16.531  0.00  0.00    +0.000 A 
ATOM     11  C   UNL     1       4.595   5.185  16.681  0.00  0.00    +0.000 A 
ATOM     12  C   UNL     1       3.615   4.790  17.576  0.00  0.00    +0.000 A 
ATOM     13  N   UNL     1       2.876   5.646  18.325  0.00  0.00    +0.000 NA
ATOM     14  C   UNL     1       1.666   8.947  18.366  0.00  0.00    +0.000 C 
ATOM     15  C   UNL     1       1.549  10.123  19.363  0.00  0.00    +0.000 C 
BRANCH  11  16
ATOM     16  C   UNL     1       5.402   4.170  15.939  0.00  0.00    +0.000 C 
ATOM     17  F   UNL     1       6.745   4.295  16.141  0.00  0.00    +0.000 F 
ATOM     18  F   UNL     1       5.092   2.893  16.297  0.00  0.00    +0.000 F 
ATOM     19  F   UNL     1       5.222   4.236  14.592  0.00  0.00    +0.000 F 
ENDBRANCH  11  16
ENDBRANCH   2   4
BRANCH   2  20
ATOM     20  C   UNL     1      -0.731  10.860  22.076  0.00  0.00    +0.000 C 
ATOM     21  O   UNL     1      -0.352  10.743  23.244  0.00  0.00    +0.000 OA
ATOM     22  N   UNL     1      -1.588  11.887  21.695  0.00  0.00    +0.000 N 
ATOM     23  H   UNL     1      -1.731  12.069  20.708  0.00  0.00    +0.000 HD
BRANCH  22  24
ATOM     24  C   UNL     1      -1.981  12.890  22.674  0.00  0.00    +0.000 C 
ATOM     25  C   UNL     1      -1.985  14.318  22.138  0.00  0.00    +0.000 C 
ATOM     26  C   UNL     1      -2.123  15.305  23.311  0.00  0.00    +0.000 C 
ATOM     27  C   UNL     1      -3.080  14.922  24.442  0.00  0.00    +0.000 C 
ATOM     28  C   UNL     1      -3.518  13.463  24.551  0.00  0.00    +0.000 C 
ATOM     29  C   UNL     1      -3.355  12.609  23.287  0.00  0.00    +0.000 C 
ATOM     30  C   UNL     1      -4.523  12.785  22.302  0.00  0.00    +0.000 C 
ATOM     31  C   UNL     1      -4.345  13.762  21.131  0.00  0.00    +0.000 C 
ATOM     32  C   UNL     1      -3.037  14.559  21.049  0.00  0.00    +0.000 C 
BRANCH  31  33
ATOM     33  C   UNL     1      -4.600  13.072  19.787  0.00  0.00    +0.000 C 
ATOM     34  N   UNL     1      -5.659  13.522  19.056  0.00  0.00    +0.000 N 
ATOM     35  O   UNL     1      -3.940  12.118  19.389  0.00  0.00    +0.000 OA
ATOM     36  H   UNL     1      -6.028  14.462  19.173  0.00  0.00    +0.000 HD
ATOM     37  H   UNL     1      -5.782  13.108  18.141  0.00  0.00    +0.000 HD
ENDBRANCH  31  33
ENDBRANCH  22  24
ENDBRANCH   2  20
TORSDOF 5
ENDMDL
MODEL 8
REMARK VINA RESULT:      -8.0      5.561     10.272
REMARK  Name = 
REMARK  7 active torsions:
REMARK  status: ('A' for Active; 'I' for Inactive)
REMARK    1  A    between atoms: C_1  and  C_2
REMARK    2  A    between atoms: C_2  and  C_3
REMARK    3  A    between atoms: C_2  and  C_4
REMARK    4  A    between atoms: C_2  and  N_19
REMARK    5  A    between atoms: N_6  and  C_7
REMARK    6  A    between atoms: C_14  and  C_15
REMARK    7  A    between atoms: C_26  and  C_27
REMARK                            x       y       z     vdW  Elec       q    Type
REMARK                         _______ _______ _______ _____ _____    ______ ____
ROOT
ATOM      1  C   UNL     1       2.274  11.935  18.213  0.00  0.00    +0.000 C 
ATOM      2  C   UNL     1       1.098  11.954  19.216  0.00  0.00    +0.000 C 
ATOM      3  C   UNL     1       1.699  12.269  20.599  0.00  0.00    +0.000 C 
ENDROOT
BRANCH   2   4
ATOM      4  N   UNL     1       0.321  10.680  19.107  0.00  0.00    +0.000 NA
ATOM      5  C   UNL     1       0.774   9.745  18.037  0.00  0.00    +0.000 C 
ATOM      6  C   UNL     1       1.926   8.768  18.393  0.00  0.00    +0.000 C 
ATOM      7  N   UNL     1       1.532   8.043  19.596  0.00  0.00    +0.000 N 
ATOM      8  C   UNL     1       2.104   6.806  19.817  0.00  0.00    +0.000 A 
ATOM      9  C   UNL     1       1.404   5.885  20.601  0.00  0.00    +0.000 A 
ATOM     10  C   UNL     1       1.869   4.586  20.737  0.00  0.00    +0.000 A 
ATOM     11  C   UNL     1       3.045   4.212  20.094  0.00  0.00    +0.000 A 
ATOM     12  C   UNL     1       3.695   5.182  19.349  0.00  0.00    +0.000 A 
ATOM     13  N   UNL     1       3.244   6.451  19.191  0.00  0.00    +0.000 NA
ATOM     14  C   UNL     1       1.262   8.897  20.754  0.00  0.00    +0.000 C 
ATOM     15  C   UNL     1       0.153   9.906  20.371  0.00  0.00    +0.000 C 
BRANCH  11  16
ATOM     16  C   UNL     1       3.583   2.820  20.168  0.00  0.00    +0.000 C 
ATOM     17  F   UNL     1       4.882   2.721  19.765  0.00  0.00    +0.000 F 
ATOM     18  F   UNL     1       3.549   2.313  21.432  0.00  0.00    +0.000 F 
ATOM     19  F   UNL     1       2.887   1.944  19.393  0.00  0.00    +0.000 F 
ENDBRANCH  11  16
ENDBRANCH   2   4
BRANCH   2  20
ATOM     20  C   UNL     1       0.167  13.151  18.835  0.00  0.00    +0.000 C 
ATOM     21  O   UNL     1      -0.770  13.021  18.044  0.00  0.00    +0.000 OA
ATOM     22  N   UNL     1       0.511  14.397  19.347  0.00  0.00    +0.000 N 
ATOM     23  H   UNL     1       1.155  14.448  20.129  0.00  0.00    +0.000 HD
BRANCH  22  24
ATOM     24  C   UNL     1      -0.299  15.558  19.009  0.00  0.00    +0.000 C 
ATOM     25  C   UNL     1      -1.062  16.152  20.188  0.00  0.00    +0.000 C 
ATOM     26  C   UNL     1      -2.096  17.168  19.668  0.00  0.00    +0.000 C 
ATOM     27  C   UNL     1      -1.670  18.076  18.512  0.00  0.00    +0.000 C 
ATOM     28  C   UNL     1      -0.445  17.671  17.693  0.00  0.00    +0.000 C 
ATOM     29  C   UNL     1       0.517  16.677  18.358  0.00  0.00    +0.000 C 
ATOM     30  C   UNL     1       1.505  17.364  19.315  0.00  0.00    +0.000 C 
ATOM     31  C   UNL     1       1.178  17.369  20.816  0.00  0.00    +0.000 C 
ATOM     32  C   UNL     1      -0.152  16.750  21.266  0.00  0.00    +0.000 C 
BRANCH  31  33
ATOM     33  C   UNL     1       2.320  16.764  21.637  0.00  0.00    +0.000 C 
ATOM     34  N   UNL     1       3.259  17.629  22.116  0.00  0.00    +0.000 N 
ATOM     35  O   UNL     1       2.448  15.558  21.818  0.00  0.00    +0.000 OA
ATOM     36  H   UNL     1       3.051  18.614  22.264  0.00  0.00    +0.000 HD
ATOM     37  H   UNL     1       3.973  17.232  22.713  0.00  0.00    +0.000 HD
ENDBRANCH  31  33
ENDBRANCH  22  24
ENDBRANCH   2  20
TORSDOF 5
ENDMDL
MODEL 9
REMARK VINA RESULT:      -8.0      5.756     11.346
REMARK  Name = 
REMARK  7 active torsions:
REMARK  status: ('A' for Active; 'I' for Inactive)
REMARK    1  A    between atoms: C_1  and  C_2
REMARK    2  A    between atoms: C_2  and  C_3
REMARK    3  A    between atoms: C_2  and  C_4
REMARK    4  A    between atoms: C_2  and  N_19
REMARK    5  A    between atoms: N_6  and  C_7
REMARK    6  A    between atoms: C_14  and  C_15
REMARK    7  A    between atoms: C_26  and  C_27
REMARK                            x       y       z     vdW  Elec       q    Type
REMARK                         _______ _______ _______ _____ _____    ______ ____
ROOT
ATOM      1  C   UNL     1      -1.122  12.923  18.379  0.00  0.00    +0.000 C 
ATOM      2  C   UNL     1      -0.860  12.332  19.784  0.00  0.00    +0.000 C 
ATOM      3  C   UNL     1       0.542  12.808  20.210  0.00  0.00    +0.000 C 
ENDROOT
BRANCH   2   4
ATOM      4  N   UNL     1      -1.076  10.852  19.757  0.00  0.00    +0.000 NA
ATOM      5  C   UNL     1      -0.848  10.197  18.437  0.00  0.00    +0.000 C 
ATOM      6  C   UNL     1       0.607   9.780  18.097  0.00  0.00    +0.000 C 
ATOM      7  N   UNL     1       1.093   8.947  19.192  0.00  0.00    +0.000 N 
ATOM      8  C   UNL     1       2.110   8.055  18.917  0.00  0.00    +0.000 A 
ATOM      9  C   UNL     1       2.229   6.920  19.725  0.00  0.00    +0.000 A 
ATOM     10  C   UNL     1       3.144   5.927  19.406  0.00  0.00    +0.000 A 
ATOM     11  C   UNL     1       3.948   6.077  18.281  0.00  0.00    +0.000 A 
ATOM     12  C   UNL     1       3.788   7.235  17.538  0.00  0.00    +0.000 A 
ATOM     13  N   UNL     1       2.886   8.207  17.825  0.00  0.00    +0.000 NA
ATOM     14  C   UNL     1       1.083   9.603  20.501  0.00  0.00    +0.000 C 
ATOM     15  C   UNL     1      -0.361  10.068  20.805  0.00  0.00    +0.000 C 
BRANCH  11  16
ATOM     16  C   UNL     1       4.928   5.031  17.859  0.00  0.00    +0.000 C 
ATOM     17  F   UNL     1       4.413   4.136  16.968  0.00  0.00    +0.000 F 
ATOM     18  F   UNL     1       6.029   5.560  17.256  0.00  0.00    +0.000 F 
ATOM     19  F   UNL     1       5.391   4.291  18.902  0.00  0.00    +0.000 F 
ENDBRANCH  11  16
ENDBRANCH   2   4
BRANCH   2  20
ATOM     20  C   UNL     1      -1.885  12.979  20.771  0.00  0.00    +0.000 C 
ATOM     21  O   UNL     1      -1.647  13.091  21.976  0.00  0.00    +0.000 OA
ATOM     22  N   UNL     1      -3.125  13.327  20.246  0.00  0.00    +0.000 N 
ATOM     23  H   UNL     1      -3.230  13.402  19.240  0.00  0.00    +0.000 HD
BRANCH  22  24
ATOM     24  C   UNL     1      -4.134  13.908  21.119  0.00  0.00    +0.000 C 
ATOM     25  C   UNL     1      -5.082  14.875  20.419  0.00  0.00    +0.000 C 
ATOM     26  C   UNL     1      -5.901  15.642  21.473  0.00  0.00    +0.000 C 
ATOM     27  C   UNL     1      -6.391  14.856  22.691  0.00  0.00    +0.000 C 
ATOM     28  C   UNL     1      -5.727  13.513  22.995  0.00  0.00    +0.000 C 
ATOM     29  C   UNL     1      -4.977  12.849  21.833  0.00  0.00    +0.000 C 
ATOM     30  C   UNL     1      -5.912  12.065  20.898  0.00  0.00    +0.000 C 
ATOM     31  C   UNL     1      -6.396  12.750  19.612  0.00  0.00    +0.000 C 
ATOM     32  C   UNL     1      -5.973  14.205  19.368  0.00  0.00    +0.000 C 
BRANCH  31  33
ATOM     33  C   UNL     1      -6.060  11.913  18.375  0.00  0.00    +0.000 C 
ATOM     34  N   UNL     1      -6.962  10.955  18.017  0.00  0.00    +0.000 N 
ATOM     35  O   UNL     1      -5.010  12.029  17.753  0.00  0.00    +0.000 OA
ATOM     36  H   UNL     1      -7.942  11.018  18.283  0.00  0.00    +0.000 HD
ATOM     37  H   UNL     1      -6.767  10.451  17.161  0.00  0.00    +0.000 HD
ENDBRANCH  31  33
ENDBRANCH  22  24
ENDBRANCH   2  20
TORSDOF 5
ENDMDL
