MODEL 1
REMARK VINA RESULT:      -7.8      0.000      0.000
REMARK  Name = 
REMARK  9 active torsions:
REMARK  status: ('A' for Active; 'I' for Inactive)
REMARK    1  A    between atoms: C_2  and  O_3
REMARK    2  A    between atoms: C_2  and  C_4
REMARK    3  A    between atoms: C_4  and  C_5
REMARK    4  A    between atoms: C_5  and  C_6
REMARK    5  A    between atoms: C_9  and  O_10
REMARK    6  A    between atoms: O_10  and  C_11
REMARK    7  A    between atoms: C_11  and  C_12
REMARK    8  A    between atoms: C_17  and  O_18
REMARK    9  A    between atoms: O_18  and  C_19
REMARK                            x       y       z     vdW  Elec       q    Type
REMARK                         _______ _______ _______ _____ _____    ______ ____
ROOT
ATOM      1  C   UNL     1       5.248   4.653  19.327  0.00  0.00    +0.000 C 
ENDROOT
BRANCH   1   2
ATOM      2  C   UNL     1       3.903   4.047  19.000  0.00  0.00    +0.000 A 
ATOM      3  C   UNL     1       3.838   2.825  18.307  0.00  0.00    +0.000 A 
ATOM      4  C   UNL     1       2.611   2.241  17.991  0.00  0.00    +0.000 A 
ATOM      5  C   UNL     1       1.428   2.887  18.329  0.00  0.00    +0.000 A 
ATOM      6  C   UNL     1       1.470   4.093  19.022  0.00  0.00    +0.000 A 
ATOM      7  C   UNL     1       2.696   4.643  19.428  0.00  0.00    +0.000 A 
BRANCH   7   8
ATOM      8  O   UNL     1       2.755   5.775  20.226  0.00  0.00    +0.000 OA
BRANCH   8   9
ATOM      9  C   UNL     1       2.269   6.965  19.711  0.00  0.00    +0.000 A 
ATOM     10  C   UNL     1       2.490   7.369  18.388  0.00  0.00    +0.000 A 
ATOM     11  C   UNL     1       2.051   8.621  17.953  0.00  0.00    +0.000 A 
ATOM     12  C   UNL     1       1.334   9.448  18.815  0.00  0.00    +0.000 A 
ATOM     13  C   UNL     1       1.048   9.018  20.112  0.00  0.00    +0.000 A 
ATOM     14  C   UNL     1       1.515   7.777  20.561  0.00  0.00    +0.000 A 
ENDBRANCH   8   9
ENDBRANCH   7   8
ENDBRANCH   1   2
BRANCH   1  15
ATOM     15  O   UNL     1       5.477   5.858  18.565  0.00  0.00    +0.000 OA
BRANCH  15  19
ATOM     16  C   UNL     1       6.613   4.902  14.657  0.00  0.00    +0.000 A 
ATOM     17  C   UNL     1       5.481   5.696  14.877  0.00  0.00    +0.000 A 
ATOM     18  C   UNL     1       5.122   6.084  16.165  0.00  0.00    +0.000 A 
ATOM     19  C   UNL     1       5.851   5.639  17.264  0.00  0.00    +0.000 A 
ATOM     20  C   UNL     1       7.022   4.906  17.055  0.00  0.00    +0.000 A 
ATOM     21  C   UNL     1       7.399   4.534  15.757  0.00  0.00    +0.000 A 
BRANCH  16  22
ATOM     22  C   UNL     1       6.926   4.416  13.263  0.00  0.00    +0.000 C 
BRANCH  22  23
ATOM     23  C   UNL     1       5.839   3.492  12.715  0.00  0.00    +0.000 C 
BRANCH  23  25
ATOM     24  O   UNL     1       7.535   2.448  11.327  0.00  0.00    +0.000 OA
ATOM     25  C   UNL     1       6.413   2.439  11.804  0.00  0.00    +0.000 C 
BRANCH  25  26
ATOM     26  O   UNL     1       5.531   1.439  11.564  0.00  0.00    +0.000 OA
ATOM     27  H   UNL     1       5.541   0.735  12.240  0.00  0.00    +0.000 HD
ENDBRANCH  25  26
ENDBRANCH  23  25
ENDBRANCH  22  23
ENDBRANCH  16  22
ENDBRANCH  15  19
ENDBRANCH   1  15
TORSDOF 9
ENDMDL
MODEL 2
REMARK VINA RESULT:      -7.7      3.074      5.306
REMARK  Name = 
REMARK  9 active torsions:
REMARK  status: ('A' for Active; 'I' for Inactive)
REMARK    1  A    between atoms: C_2  and  O_3
REMARK    2  A    between atoms: C_2  and  C_4
REMARK    3  A    between atoms: C_4  and  C_5
REMARK    4  A    between atoms: C_5  and  C_6
REMARK    5  A    between atoms: C_9  and  O_10
REMARK    6  A    between atoms: O_10  and  C_11
REMARK    7  A    between atoms: C_11  and  C_12
REMARK    8  A    between atoms: C_17  and  O_18
REMARK    9  A    between atoms: O_18  and  C_19
REMARK                            x       y       z     vdW  Elec       q    Type
REMARK                         _______ _______ _______ _____ _____    ______ ____
ROOT
ATOM      1  C   UNL     1       3.981   4.828  17.459  0.00  0.00    +0.000 C 
ENDROOT
BRANCH   1   2
ATOM      2  C   UNL     1       2.903   4.300  18.377  0.00  0.00    +0.000 A 
ATOM      3  C   UNL     1       2.377   3.013  18.166  0.00  0.00    +0.000 A 
ATOM      4  C   UNL     1       1.380   2.498  18.997  0.00  0.00    +0.000 A 
ATOM      5  C   UNL     1       0.868   3.274  20.029  0.00  0.00    +0.000 A 
ATOM      6  C   UNL     1       1.382   4.547  20.259  0.00  0.00    +0.000 A 
ATOM      7  C   UNL     1       2.448   5.039  19.491  0.00  0.00    +0.000 A 
BRANCH   7   8
ATOM      8  O   UNL     1       3.056   6.250  19.784  0.00  0.00    +0.000 OA
BRANCH   8   9
ATOM      9  C   UNL     1       2.356   7.416  19.520  0.00  0.00    +0.000 A 
ATOM     10  C   UNL     1       1.625   8.102  20.499  0.00  0.00    +0.000 A 
ATOM     11  C   UNL     1       0.867   9.222  20.153  0.00  0.00    +0.000 A 
ATOM     12  C   UNL     1       0.885   9.700  18.844  0.00  0.00    +0.000 A 
ATOM     13  C   UNL     1       1.670   9.062  17.882  0.00  0.00    +0.000 A 
ATOM     14  C   UNL     1       2.406   7.920  18.219  0.00  0.00    +0.000 A 
ENDBRANCH   8   9
ENDBRANCH   7   8
ENDBRANCH   1   2
BRANCH   1  15
ATOM     15  O   UNL     1       5.295   4.610  18.015  0.00  0.00    +0.000 OA
BRANCH  15  19
ATOM     16  C   UNL     1       7.649   8.056  17.773  0.00  0.00    +0.000 A 
ATOM     17  C   UNL     1       8.092   6.964  18.527  0.00  0.00    +0.000 A 
ATOM     18  C   UNL     1       7.360   5.781  18.568  0.00  0.00    +0.000 A 
ATOM     19  C   UNL     1       6.140   5.684  17.904  0.00  0.00    +0.000 A 
ATOM     20  C   UNL     1       5.720   6.740  17.091  0.00  0.00    +0.000 A 
ATOM     21  C   UNL     1       6.469   7.924  17.029  0.00  0.00    +0.000 A 
BRANCH  16  22
ATOM     22  C   UNL     1       8.411   9.358  17.821  0.00  0.00    +0.000 C 
BRANCH  22  23
ATOM     23  C   UNL     1       9.062   9.595  19.183  0.00  0.00    +0.000 C 
BRANCH  23  25
ATOM     24  O   UNL     1       8.949  11.981  19.620  0.00  0.00    +0.000 OA
ATOM     25  C   UNL     1       9.598  10.997  19.305  0.00  0.00    +0.000 C 
BRANCH  25  26
ATOM     26  O   UNL     1      10.923  11.061  19.031  0.00  0.00    +0.000 OA
ATOM     27  H   UNL     1      11.166  10.675  18.168  0.00  0.00    +0.000 HD
ENDBRANCH  25  26
ENDBRANCH  23  25
ENDBRANCH  22  23
ENDBRANCH  16  22
ENDBRANCH  15  19
ENDBRANCH   1  15
TORSDOF 9
ENDMDL
MODEL 3
REMARK VINA RESULT:      -7.6      3.274      5.384
REMARK  Name = 
REMARK  9 active torsions:
REMARK  status: ('A' for Active; 'I' for Inactive)
REMARK    1  A    between atoms: C_2  and  O_3
REMARK    2  A    between atoms: C_2  and  C_4
REMARK    3  A    between atoms: C_4  and  C_5
REMARK    4  A    between atoms: C_5  and  C_6
REMARK    5  A    between atoms: C_9  and  O_10
REMARK    6  A    between atoms: O_10  and  C_11
REMARK    7  A    between atoms: C_11  and  C_12
REMARK    8  A    between atoms: C_17  and  O_18
REMARK    9  A    between atoms: O_18  and  C_19
REMARK                            x       y       z     vdW  Elec       q    Type
REMARK                         _______ _______ _______ _____ _____    ______ ____
ROOT
ATOM      1  C   UNL     1       5.244   4.214  16.890  0.00  0.00    +0.000 C 
ENDROOT
BRANCH   1   2
ATOM      2  C   UNL     1       3.868   3.887  17.422  0.00  0.00    +0.000 A 
ATOM      3  C   UNL     1       3.503   2.546  17.636  0.00  0.00    +0.000 A 
ATOM      4  C   UNL     1       2.239   2.214  18.126  0.00  0.00    +0.000 A 
ATOM      5  C   UNL     1       1.306   3.213  18.373  0.00  0.00    +0.000 A 
ATOM      6  C   UNL     1       1.650   4.547  18.174  0.00  0.00    +0.000 A 
ATOM      7  C   UNL     1       2.947   4.899  17.773  0.00  0.00    +0.000 A 
BRANCH   7   8
ATOM      8  O   UNL     1       3.347   6.225  17.690  0.00  0.00    +0.000 OA
BRANCH   8   9
ATOM      9  C   UNL     1       2.646   7.167  18.424  0.00  0.00    +0.000 A 
ATOM     10  C   UNL     1       2.419   7.046  19.800  0.00  0.00    +0.000 A 
ATOM     11  C   UNL     1       1.629   7.983  20.468  0.00  0.00    +0.000 A 
ATOM     12  C   UNL     1       1.116   9.081  19.779  0.00  0.00    +0.000 A 
ATOM     13  C   UNL     1       1.401   9.245  18.423  0.00  0.00    +0.000 A 
ATOM     14  C   UNL     1       2.167   8.289  17.744  0.00  0.00    +0.000 A 
ENDBRANCH   8   9
ENDBRANCH   7   8
ENDBRANCH   1   2
BRANCH   1  15
ATOM     15  O   UNL     1       6.197   4.366  17.964  0.00  0.00    +0.000 OA
BRANCH  15  19
ATOM     16  C   UNL     1       7.973   8.150  17.932  0.00  0.00    +0.000 A 
ATOM     17  C   UNL     1       8.252   7.261  18.975  0.00  0.00    +0.000 A 
ATOM     18  C   UNL     1       7.728   5.971  18.973  0.00  0.00    +0.000 A 
ATOM     19  C   UNL     1       6.866   5.563  17.959  0.00  0.00    +0.000 A 
ATOM     20  C   UNL     1       6.634   6.415  16.876  0.00  0.00    +0.000 A 
ATOM     21  C   UNL     1       7.181   7.705  16.864  0.00  0.00    +0.000 A 
BRANCH  16  22
ATOM     22  C   UNL     1       8.475   9.571  18.005  0.00  0.00    +0.000 C 
BRANCH  22  23
ATOM     23  C   UNL     1       9.171   9.870  19.332  0.00  0.00    +0.000 C 
BRANCH  23  25
ATOM     24  O   UNL     1      10.697  11.572  20.150  0.00  0.00    +0.000 OA
ATOM     25  C   UNL     1      10.054  11.086  19.234  0.00  0.00    +0.000 C 
BRANCH  25  26
ATOM     26  O   UNL     1      10.074  11.600  17.981  0.00  0.00    +0.000 OA
ATOM     27  H   UNL     1      10.205  10.931  17.282  0.00  0.00    +0.000 HD
ENDBRANCH  25  26
ENDBRANCH  23  25
ENDBRANCH  22  23
ENDBRANCH  16  22
ENDBRANCH  15  19
ENDBRANCH   1  15
TORSDOF 9
ENDMDL
MODEL 4
REMARK VINA RESULT:      -7.5      3.071      7.712
REMARK  Name = 
REMARK  9 active torsions:
REMARK  status: ('A' for Active; 'I' for Inactive)
REMARK    1  A    between atoms: C_2  and  O_3
REMARK    2  A    between atoms: C_2  and  C_4
REMARK    3  A    between atoms: C_4  and  C_5
REMARK    4  A    between atoms: C_5  and  C_6
REMARK    5  A    between atoms: C_9  and  O_10
REMARK    6  A    between atoms: O_10  and  C_11
REMARK    7  A    between atoms: C_11  and  C_12
REMARK    8  A    between atoms: C_17  and  O_18
REMARK    9  A    between atoms: O_18  and  C_19
REMARK                            x       y       z     vdW  Elec       q    Type
REMARK                         _______ _______ _______ _____ _____    ______ ____
ROOT
ATOM      1  C   UNL     1       2.243   6.117  20.609  0.00  0.00    +0.000 C 
ENDROOT
BRANCH   1   2
ATOM      2  C   UNL     1       2.234   4.726  20.020  0.00  0.00    +0.000 A 
ATOM      3  C   UNL     1       1.028   4.006  19.949  0.00  0.00    +0.000 A 
ATOM      4  C   UNL     1       0.988   2.719  19.411  0.00  0.00    +0.000 A 
ATOM      5  C   UNL     1       2.159   2.116  18.969  0.00  0.00    +0.000 A 
ATOM      6  C   UNL     1       3.361   2.814  19.024  0.00  0.00    +0.000 A 
ATOM      7  C   UNL     1       3.399   4.142  19.474  0.00  0.00    +0.000 A 
BRANCH   7   8
ATOM      8  O   UNL     1       4.561   4.896  19.419  0.00  0.00    +0.000 OA
BRANCH   8   9
ATOM      9  C   UNL     1       5.232   4.978  18.211  0.00  0.00    +0.000 A 
ATOM     10  C   UNL     1       6.527   4.477  18.023  0.00  0.00    +0.000 A 
ATOM     11  C   UNL     1       7.185   4.668  16.807  0.00  0.00    +0.000 A 
ATOM     12  C   UNL     1       6.532   5.303  15.752  0.00  0.00    +0.000 A 
ATOM     13  C   UNL     1       5.216   5.739  15.911  0.00  0.00    +0.000 A 
ATOM     14  C   UNL     1       4.564   5.576  17.140  0.00  0.00    +0.000 A 
ENDBRANCH   8   9
ENDBRANCH   7   8
ENDBRANCH   1   2
BRANCH   1  15
ATOM     15  O   UNL     1       2.660   7.096  19.633  0.00  0.00    +0.000 OA
BRANCH  15  19
ATOM     16  C   UNL     1      -0.114  10.160  19.003  0.00  0.00    +0.000 A 
ATOM     17  C   UNL     1       0.096   9.668  20.296  0.00  0.00    +0.000 A 
ATOM     18  C   UNL     1       1.062   8.696  20.542  0.00  0.00    +0.000 A 
ATOM     19  C   UNL     1       1.798   8.153  19.492  0.00  0.00    +0.000 A 
ATOM     20  C   UNL     1       1.650   8.684  18.209  0.00  0.00    +0.000 A 
ATOM     21  C   UNL     1       0.694   9.680  17.963  0.00  0.00    +0.000 A 
BRANCH  16  22
ATOM     22  C   UNL     1      -1.231  11.142  18.748  0.00  0.00    +0.000 C 
BRANCH  22  23
ATOM     23  C   UNL     1      -2.472  10.467  18.167  0.00  0.00    +0.000 C 
BRANCH  23  25
ATOM     24  O   UNL     1      -4.237  11.688  17.030  0.00  0.00    +0.000 OA
ATOM     25  C   UNL     1      -3.085  11.289  17.063  0.00  0.00    +0.000 C 
BRANCH  25  26
ATOM     26  O   UNL     1      -2.196  11.560  16.077  0.00  0.00    +0.000 OA
ATOM     27  H   UNL     1      -1.731  10.771  15.737  0.00  0.00    +0.000 HD
ENDBRANCH  25  26
ENDBRANCH  23  25
ENDBRANCH  22  23
ENDBRANCH  16  22
ENDBRANCH  15  19
ENDBRANCH   1  15
TORSDOF 9
ENDMDL
MODEL 5
REMARK VINA RESULT:      -7.5      2.938      7.682
REMARK  Name = 
REMARK  9 active torsions:
REMARK  status: ('A' for Active; 'I' for Inactive)
REMARK    1  A    between atoms: C_2  and  O_3
REMARK    2  A    between atoms: C_2  and  C_4
REMARK    3  A    between atoms: C_4  and  C_5
REMARK    4  A    between atoms: C_5  and  C_6
REMARK    5  A    between atoms: C_9  and  O_10
REMARK    6  A    between atoms: O_10  and  C_11
REMARK    7  A    between atoms: C_11  and  C_12
REMARK    8  A    between atoms: C_17  and  O_18
REMARK    9  A    between atoms: O_18  and  C_19
REMARK                            x       y       z     vdW  Elec       q    Type
REMARK                         _______ _______ _______ _____ _____    ______ ____
ROOT
ATOM      1  C   UNL     1       3.286   5.738  19.787  0.00  0.00    +0.000 C 
ENDROOT
BRANCH   1   2
ATOM      2  C   UNL     1       2.790   4.342  19.491  0.00  0.00    +0.000 A 
ATOM      3  C   UNL     1       1.407   4.088  19.449  0.00  0.00    +0.000 A 
ATOM      4  C   UNL     1       0.919   2.809  19.178  0.00  0.00    +0.000 A 
ATOM      5  C   UNL     1       1.803   1.756  18.982  0.00  0.00    +0.000 A 
ATOM      6  C   UNL     1       3.175   1.988  19.011  0.00  0.00    +0.000 A 
ATOM      7  C   UNL     1       3.678   3.286  19.188  0.00  0.00    +0.000 A 
BRANCH   7   8
ATOM      8  O   UNL     1       5.034   3.559  19.096  0.00  0.00    +0.000 OA
BRANCH   8   9
ATOM      9  C   UNL     1       5.512   4.114  17.921  0.00  0.00    +0.000 A 
ATOM     10  C   UNL     1       4.946   3.849  16.668  0.00  0.00    +0.000 A 
ATOM     11  C   UNL     1       5.527   4.367  15.510  0.00  0.00    +0.000 A 
ATOM     12  C   UNL     1       6.637   5.206  15.600  0.00  0.00    +0.000 A 
ATOM     13  C   UNL     1       7.160   5.532  16.852  0.00  0.00    +0.000 A 
ATOM     14  C   UNL     1       6.598   4.987  18.014  0.00  0.00    +0.000 A 
ENDBRANCH   8   9
ENDBRANCH   7   8
ENDBRANCH   1   2
BRANCH   1  15
ATOM     15  O   UNL     1       3.177   6.590  18.627  0.00  0.00    +0.000 OA
BRANCH  15  19
ATOM     16  C   UNL     1       0.874   9.996  19.380  0.00  0.00    +0.000 A 
ATOM     17  C   UNL     1       1.379   9.770  18.094  0.00  0.00    +0.000 A 
ATOM     18  C   UNL     1       2.091   8.609  17.802  0.00  0.00    +0.000 A 
ATOM     19  C   UNL     1       2.363   7.679  18.802  0.00  0.00    +0.000 A 
ATOM     20  C   UNL     1       1.806   7.858  20.070  0.00  0.00    +0.000 A 
ATOM     21  C   UNL     1       1.068   9.015  20.360  0.00  0.00    +0.000 A 
BRANCH  16  22
ATOM     22  C   UNL     1       0.189  11.304  19.694  0.00  0.00    +0.000 C 
BRANCH  22  23
ATOM     23  C   UNL     1       0.778  12.470  18.901  0.00  0.00    +0.000 C 
BRANCH  23  25
ATOM     24  O   UNL     1      -0.475  14.545  18.767  0.00  0.00    +0.000 OA
ATOM     25  C   UNL     1      -0.297  13.397  18.397  0.00  0.00    +0.000 C 
BRANCH  25  26
ATOM     26  O   UNL     1      -1.069  12.813  17.450  0.00  0.00    +0.000 OA
ATOM     27  H   UNL     1      -1.656  12.113  17.796  0.00  0.00    +0.000 HD
ENDBRANCH  25  26
ENDBRANCH  23  25
ENDBRANCH  22  23
ENDBRANCH  16  22
ENDBRANCH  15  19
ENDBRANCH   1  15
TORSDOF 9
ENDMDL
MODEL 6
REMARK VINA RESULT:      -7.5      3.022      5.730
REMARK  Name = 
REMARK  9 active torsions:
REMARK  status: ('A' for Active; 'I' for Inactive)
REMARK    1  A    between atoms: C_2  and  O_3
REMARK    2  A    between atoms: C_2  and  C_4
REMARK    3  A    between atoms: C_4  and  C_5
REMARK    4  A    between atoms: C_5  and  C_6
REMARK    5  A    between atoms: C_9  and  O_10
REMARK    6  A    between atoms: O_10  and  C_11
REMARK    7  A    between atoms: C_11  and  C_12
REMARK    8  A    between atoms: C_17  and  O_18
REMARK    9  A    between atoms: O_18  and  C_19
REMARK                            x       y       z     vdW  Elec       q    Type
REMARK                         _______ _______ _______ _____ _____    ______ ____
ROOT
ATOM      1  C   UNL     1       1.513   8.705  19.880  0.00  0.00    +0.000 C 
ENDROOT
BRANCH   1   2
ATOM      2  C   UNL     1       0.690   9.410  20.933  0.00  0.00    +0.000 A 
ATOM      3  C   UNL     1       0.754   8.982  22.270  0.00  0.00    +0.000 A 
ATOM      4  C   UNL     1       0.005   9.613  23.265  0.00  0.00    +0.000 A 
ATOM      5  C   UNL     1      -0.848  10.658  22.932  0.00  0.00    +0.000 A 
ATOM      6  C   UNL     1      -0.920  11.101  21.615  0.00  0.00    +0.000 A 
ATOM      7  C   UNL     1      -0.102  10.538  20.624  0.00  0.00    +0.000 A 
BRANCH   7   8
ATOM      8  O   UNL     1      -0.067  11.047  19.335  0.00  0.00    +0.000 OA
BRANCH   8   9
ATOM      9  C   UNL     1      -1.175  10.859  18.525  0.00  0.00    +0.000 A 
ATOM     10  C   UNL     1      -1.220   9.898  17.507  0.00  0.00    +0.000 A 
ATOM     11  C   UNL     1      -2.331   9.816  16.667  0.00  0.00    +0.000 A 
ATOM     12  C   UNL     1      -3.429  10.647  16.878  0.00  0.00    +0.000 A 
ATOM     13  C   UNL     1      -3.418  11.556  17.937  0.00  0.00    +0.000 A 
ATOM     14  C   UNL     1      -2.292  11.663  18.762  0.00  0.00    +0.000 A 
ENDBRANCH   8   9
ENDBRANCH   7   8
ENDBRANCH   1   2
BRANCH   1  15
ATOM     15  O   UNL     1       1.807   7.346  20.269  0.00  0.00    +0.000 OA
BRANCH  15  19
ATOM     16  C   UNL     1       3.898   5.176  17.372  0.00  0.00    +0.000 A 
ATOM     17  C   UNL     1       3.072   4.505  18.281  0.00  0.00    +0.000 A 
ATOM     18  C   UNL     1       2.313   5.210  19.210  0.00  0.00    +0.000 A 
ATOM     19  C   UNL     1       2.408   6.597  19.290  0.00  0.00    +0.000 A 
ATOM     20  C   UNL     1       3.173   7.284  18.345  0.00  0.00    +0.000 A 
ATOM     21  C   UNL     1       3.920   6.577  17.392  0.00  0.00    +0.000 A 
BRANCH  16  22
ATOM     22  C   UNL     1       4.782   4.385  16.439  0.00  0.00    +0.000 C 
BRANCH  22  23
ATOM     23  C   UNL     1       5.554   5.283  15.474  0.00  0.00    +0.000 C 
BRANCH  23  25
ATOM     24  O   UNL     1       7.624   4.581  16.532  0.00  0.00    +0.000 OA
ATOM     25  C   UNL     1       7.040   5.056  15.572  0.00  0.00    +0.000 C 
BRANCH  25  26
ATOM     26  O   UNL     1       7.688   5.435  14.444  0.00  0.00    +0.000 OA
ATOM     27  H   UNL     1       7.589   6.383  14.232  0.00  0.00    +0.000 HD
ENDBRANCH  25  26
ENDBRANCH  23  25
ENDBRANCH  22  23
ENDBRANCH  16  22
ENDBRANCH  15  19
ENDBRANCH   1  15
TORSDOF 9
ENDMDL
MODEL 7
REMARK VINA RESULT:      -7.4      2.834      7.631
REMARK  Name = 
REMARK  9 active torsions:
REMARK  status: ('A' for Active; 'I' for Inactive)
REMARK    1  A    between atoms: C_2  and  O_3
REMARK    2  A    between atoms: C_2  and  C_4
REMARK    3  A    between atoms: C_4  and  C_5
REMARK    4  A    between atoms: C_5  and  C_6
REMARK    5  A    between atoms: C_9  and  O_10
REMARK    6  A    between atoms: O_10  and  C_11
REMARK    7  A    between atoms: C_11  and  C_12
REMARK    8  A    between atoms: C_17  and  O_18
REMARK    9  A    between atoms: O_18  and  C_19
REMARK                            x       y       z     vdW  Elec       q    Type
REMARK                         _______ _______ _______ _____ _____    ______ ____
ROOT
ATOM      1  C   UNL     1       2.687   5.983  17.795  0.00  0.00    +0.000 C 
ENDROOT
BRANCH   1   2
ATOM      2  C   UNL     1       2.601   4.498  18.064  0.00  0.00    +0.000 A 
ATOM      3  C   UNL     1       1.500   3.979  18.766  0.00  0.00    +0.000 A 
ATOM      4  C   UNL     1       1.393   2.613  19.030  0.00  0.00    +0.000 A 
ATOM      5  C   UNL     1       2.404   1.748  18.629  0.00  0.00    +0.000 A 
ATOM      6  C   UNL     1       3.499   2.241  17.926  0.00  0.00    +0.000 A 
ATOM      7  C   UNL     1       3.571   3.597  17.572  0.00  0.00    +0.000 A 
BRANCH   7   8
ATOM      8  O   UNL     1       4.589   4.085  16.766  0.00  0.00    +0.000 OA
BRANCH   8   9
ATOM      9  C   UNL     1       5.609   4.806  17.363  0.00  0.00    +0.000 A 
ATOM     10  C   UNL     1       5.990   4.624  18.698  0.00  0.00    +0.000 A 
ATOM     11  C   UNL     1       6.965   5.444  19.269  0.00  0.00    +0.000 A 
ATOM     12  C   UNL     1       7.611   6.405  18.493  0.00  0.00    +0.000 A 
ATOM     13  C   UNL     1       7.286   6.540  17.142  0.00  0.00    +0.000 A 
ATOM     14  C   UNL     1       6.285   5.741  16.576  0.00  0.00    +0.000 A 
ENDBRANCH   8   9
ENDBRANCH   7   8
ENDBRANCH   1   2
BRANCH   1  15
ATOM     15  O   UNL     1       3.049   6.710  18.989  0.00  0.00    +0.000 OA
BRANCH  15  19
ATOM     16  C   UNL     1       0.317   9.796  19.688  0.00  0.00    +0.000 A 
ATOM     17  C   UNL     1       0.685   8.944  20.735  0.00  0.00    +0.000 A 
ATOM     18  C   UNL     1       1.644   7.953  20.545  0.00  0.00    +0.000 A 
ATOM     19  C   UNL     1       2.211   7.753  19.289  0.00  0.00    +0.000 A 
ATOM     20  C   UNL     1       1.906   8.640  18.253  0.00  0.00    +0.000 A 
ATOM     21  C   UNL     1       0.958   9.655  18.450  0.00  0.00    +0.000 A 
BRANCH  16  22
ATOM     22  C   UNL     1      -0.792  10.799  19.894  0.00  0.00    +0.000 C 
BRANCH  22  23
ATOM     23  C   UNL     1      -1.758  10.843  18.711  0.00  0.00    +0.000 C 
BRANCH  23  25
ATOM     24  O   UNL     1      -0.840  13.006  18.098  0.00  0.00    +0.000 OA
ATOM     25  C   UNL     1      -1.461  12.001  17.794  0.00  0.00    +0.000 C 
BRANCH  25  26
ATOM     26  O   UNL     1      -1.960  11.805  16.550  0.00  0.00    +0.000 OA
ATOM     27  H   UNL     1      -2.620  12.472  16.281  0.00  0.00    +0.000 HD
ENDBRANCH  25  26
ENDBRANCH  23  25
ENDBRANCH  22  23
ENDBRANCH  16  22
ENDBRANCH  15  19
ENDBRANCH   1  15
TORSDOF 9
ENDMDL
MODEL 8
REMARK VINA RESULT:      -7.4      1.266      1.844
REMARK  Name = 
REMARK  9 active torsions:
REMARK  status: ('A' for Active; 'I' for Inactive)
REMARK    1  A    between atoms: C_2  and  O_3
REMARK    2  A    between atoms: C_2  and  C_4
REMARK    3  A    between atoms: C_4  and  C_5
REMARK    4  A    between atoms: C_5  and  C_6
REMARK    5  A    between atoms: C_9  and  O_10
REMARK    6  A    between atoms: O_10  and  C_11
REMARK    7  A    between atoms: C_11  and  C_12
REMARK    8  A    between atoms: C_17  and  O_18
REMARK    9  A    between atoms: O_18  and  C_19
REMARK                            x       y       z     vdW  Elec       q    Type
REMARK                         _______ _______ _______ _____ _____    ______ ____
ROOT
ATOM      1  C   UNL     1       5.003   5.132  19.469  0.00  0.00    +0.000 C 
ENDROOT
BRANCH   1   2
ATOM      2  C   UNL     1       3.629   4.525  19.635  0.00  0.00    +0.000 A 
ATOM      3  C   UNL     1       3.445   3.447  20.518  0.00  0.00    +0.000 A 
ATOM      4  C   UNL     1       2.188   2.866  20.692  0.00  0.00    +0.000 A 
ATOM      5  C   UNL     1       1.103   3.328  19.959  0.00  0.00    +0.000 A 
ATOM      6  C   UNL     1       1.263   4.399  19.085  0.00  0.00    +0.000 A 
ATOM      7  C   UNL     1       2.499   5.053  18.972  0.00  0.00    +0.000 A 
BRANCH   7   8
ATOM      8  O   UNL     1       2.648   6.198  18.204  0.00  0.00    +0.000 OA
BRANCH   8   9
ATOM      9  C   UNL     1       2.159   7.392  18.707  0.00  0.00    +0.000 A 
ATOM     10  C   UNL     1       1.867   7.584  20.063  0.00  0.00    +0.000 A 
ATOM     11  C   UNL     1       1.292   8.781  20.495  0.00  0.00    +0.000 A 
ATOM     12  C   UNL     1       1.067   9.815  19.588  0.00  0.00    +0.000 A 
ATOM     13  C   UNL     1       1.424   9.654  18.249  0.00  0.00    +0.000 A 
ATOM     14  C   UNL     1       1.971   8.443  17.807  0.00  0.00    +0.000 A 
ENDBRANCH   8   9
ENDBRANCH   7   8
ENDBRANCH   1   2
BRANCH   1  15
ATOM     15  O   UNL     1       5.944   4.164  18.958  0.00  0.00    +0.000 OA
BRANCH  15  19
ATOM     16  C   UNL     1       6.310   4.546  14.811  0.00  0.00    +0.000 A 
ATOM     17  C   UNL     1       7.404   4.838  15.635  0.00  0.00    +0.000 A 
ATOM     18  C   UNL     1       7.328   4.653  17.013  0.00  0.00    +0.000 A 
ATOM     19  C   UNL     1       6.140   4.229  17.603  0.00  0.00    +0.000 A 
ATOM     20  C   UNL     1       5.065   3.867  16.788  0.00  0.00    +0.000 A 
ATOM     21  C   UNL     1       5.147   4.030  15.397  0.00  0.00    +0.000 A 
BRANCH  16  22
ATOM     22  C   UNL     1       6.386   4.845  13.334  0.00  0.00    +0.000 C 
BRANCH  22  23
ATOM     23  C   UNL     1       6.779   3.616  12.515  0.00  0.00    +0.000 C 
BRANCH  23  25
ATOM     24  O   UNL     1       4.472   3.413  11.787  0.00  0.00    +0.000 OA
ATOM     25  C   UNL     1       5.571   2.911  11.957  0.00  0.00    +0.000 C 
BRANCH  25  26
ATOM     26  O   UNL     1       5.836   1.621  11.641  0.00  0.00    +0.000 OA
ATOM     27  H   UNL     1       6.678   1.497  11.163  0.00  0.00    +0.000 HD
ENDBRANCH  25  26
ENDBRANCH  23  25
ENDBRANCH  22  23
ENDBRANCH  16  22
ENDBRANCH  15  19
ENDBRANCH   1  15
TORSDOF 9
ENDMDL
MODEL 9
REMARK VINA RESULT:      -7.4      2.931      7.845
REMARK  Name = 
REMARK  9 active torsions:
REMARK  status: ('A' for Active; 'I' for Inactive)
REMARK    1  A    between atoms: C_2  and  O_3
REMARK    2  A    between atoms: C_2  and  C_4
REMARK    3  A    between atoms: C_4  and  C_5
REMARK    4  A    between atoms: C_5  and  C_6
REMARK    5  A    between atoms: C_9  and  O_10
REMARK    6  A    between atoms: O_10  and  C_11
REMARK    7  A    between atoms: C_11  and  C_12
REMARK    8  A    between atoms: C_17  and  O_18
REMARK    9  A    between atoms: O_18  and  C_19
REMARK                            x       y       z     vdW  Elec       q    Type
REMARK                         _______ _______ _______ _____ _____    ______ ____
ROOT
ATOM      1  C   UNL     1       3.646   7.078  17.349  0.00  0.00    +0.000 C 
ENDROOT
BRANCH   1   2
ATOM      2  C   UNL     1       4.882   6.217  17.231  0.00  0.00    +0.000 A 
ATOM      3  C   UNL     1       6.151   6.785  17.440  0.00  0.00    +0.000 A 
ATOM      4  C   UNL     1       7.311   6.016  17.336  0.00  0.00    +0.000 A 
ATOM      5  C   UNL     1       7.224   4.674  16.986  0.00  0.00    +0.000 A 
ATOM      6  C   UNL     1       5.977   4.091  16.782  0.00  0.00    +0.000 A 
ATOM      7  C   UNL     1       4.800   4.830  16.976  0.00  0.00    +0.000 A 
BRANCH   7   8
ATOM      8  O   UNL     1       3.549   4.237  16.901  0.00  0.00    +0.000 OA
BRANCH   8   9
ATOM      9  C   UNL     1       2.991   3.735  18.065  0.00  0.00    +0.000 A 
ATOM     10  C   UNL     1       3.761   3.249  19.130  0.00  0.00    +0.000 A 
ATOM     11  C   UNL     1       3.141   2.673  20.239  0.00  0.00    +0.000 A 
ATOM     12  C   UNL     1       1.750   2.638  20.322  0.00  0.00    +0.000 A 
ATOM     13  C   UNL     1       0.979   3.187  19.297  0.00  0.00    +0.000 A 
ATOM     14  C   UNL     1       1.599   3.737  18.168  0.00  0.00    +0.000 A 
ENDBRANCH   8   9
ENDBRANCH   7   8
ENDBRANCH   1   2
BRANCH   1  15
ATOM     15  O   UNL     1       3.063   6.978  18.666  0.00  0.00    +0.000 OA
BRANCH  15  19
ATOM     16  C   UNL     1       0.208   9.941  19.400  0.00  0.00    +0.000 A 
ATOM     17  C   UNL     1       0.680   9.155  20.457  0.00  0.00    +0.000 A 
ATOM     18  C   UNL     1       1.679   8.209  20.250  0.00  0.00    +0.000 A 
ATOM     19  C   UNL     1       2.187   7.987  18.973  0.00  0.00    +0.000 A 
ATOM     20  C   UNL     1       1.776   8.812  17.923  0.00  0.00    +0.000 A 
ATOM     21  C   UNL     1       0.787   9.782  18.134  0.00  0.00    +0.000 A 
BRANCH  16  22
ATOM     22  C   UNL     1      -0.942  10.892  19.630  0.00  0.00    +0.000 C 
BRANCH  22  23
ATOM     23  C   UNL     1      -1.138  11.855  18.460  0.00  0.00    +0.000 C 
BRANCH  23  25
ATOM     24  O   UNL     1      -3.376  11.003  18.060  0.00  0.00    +0.000 OA
ATOM     25  C   UNL     1      -2.340  11.485  17.632  0.00  0.00    +0.000 C 
BRANCH  25  26
ATOM     26  O   UNL     1      -2.157  11.760  16.318  0.00  0.00    +0.000 OA
ATOM     27  H   UNL     1      -1.446  12.407  16.146  0.00  0.00    +0.000 HD
ENDBRANCH  25  26
ENDBRANCH  23  25
ENDBRANCH  22  23
ENDBRANCH  16  22
ENDBRANCH  15  19
ENDBRANCH   1  15
TORSDOF 9
ENDMDL
