MODEL 1
REMARK VINA RESULT:      -7.1      0.000      0.000
REMARK  Name = 
REMARK  4 active torsions:
REMARK  status: ('A' for Active; 'I' for Inactive)
REMARK    1  A    between atoms: C_1  and  C_2
REMARK    2  A    between atoms: C_2  and  C_3
REMARK    3  A    between atoms: C_2  and  N_4
REMARK    4  A    between atoms: C_12  and  C_13
REMARK                            x       y       z     vdW  Elec       q    Type
REMARK                         _______ _______ _______ _____ _____    ______ ____
ROOT
ATOM      1  N   UNL     1       5.013   4.987  17.407  0.00  0.00    +0.000 N 
ATOM      2  C   UNL     1       4.825   3.977  18.318  0.00  0.00    +0.000 A 
ATOM      3  N   UNL     1       4.001   4.012  19.318  0.00  0.00    +0.000 NA
ATOM      4  C   UNL     1       3.240   5.174  19.497  0.00  0.00    +0.000 A 
ATOM      5  C   UNL     1       2.379   5.257  20.592  0.00  0.00    +0.000 A 
ATOM      6  C   UNL     1       1.606   6.405  20.824  0.00  0.00    +0.000 A 
ATOM      7  C   UNL     1       1.674   7.499  19.932  0.00  0.00    +0.000 A 
ATOM      8  N   UNL     1       0.975   8.704  20.036  0.00  0.00    +0.000 NA
ATOM      9  C   UNL     1       1.290   9.475  19.010  0.00  0.00    +0.000 A 
ATOM     10  S   UNL     1       2.394   8.822  17.895  0.00  0.00    +0.000 S 
ATOM     11  C   UNL     1       2.527   7.393  18.829  0.00  0.00    +0.000 A 
ATOM     12  C   UNL     1       3.323   6.251  18.617  0.00  0.00    +0.000 A 
ATOM     13  C   UNL     1       4.281   6.162  17.500  0.00  0.00    +0.000 A 
ATOM     14  O   UNL     1       4.430   7.094  16.719  0.00  0.00    +0.000 OA
ENDROOT
BRANCH   9  15
ATOM     15  C   UNL     1       0.789  10.825  18.783  0.00  0.00    +0.000 C 
ATOM     16  N   UNL     1       1.577  11.855  19.011  0.00  0.00    +0.000 NA
ATOM     17  C   UNL     1       0.747  13.065  18.812  0.00  0.00    +0.000 C 
ATOM     18  C   UNL     1      -0.577  12.596  18.207  0.00  0.00    +0.000 C 
ATOM     19  N   UNL     1      -0.460  11.175  18.348  0.00  0.00    +0.000 N 
ATOM     20  H   UNL     1      -1.214  10.513  18.245  0.00  0.00    +0.000 HD
ENDBRANCH   9  15
BRANCH   1  22
ATOM     21  C   UNL     1       7.408   4.565  16.959  0.00  0.00    +0.000 C 
ATOM     22  C   UNL     1       6.046   4.914  16.362  0.00  0.00    +0.000 C 
ATOM     23  C   UNL     1       5.655   3.976  15.223  0.00  0.00    +0.000 C 
ENDBRANCH   1  22
TORSDOF 2
ENDMDL
MODEL 2
REMARK VINA RESULT:      -7.1      1.567      1.990
REMARK  Name = 
REMARK  4 active torsions:
REMARK  status: ('A' for Active; 'I' for Inactive)
REMARK    1  A    between atoms: C_1  and  C_2
REMARK    2  A    between atoms: C_2  and  C_3
REMARK    3  A    between atoms: C_2  and  N_4
REMARK    4  A    between atoms: C_12  and  C_13
REMARK                            x       y       z     vdW  Elec       q    Type
REMARK                         _______ _______ _______ _____ _____    ______ ____
ROOT
ATOM      1  N   UNL     1       4.770   4.872  16.743  0.00  0.00    +0.000 N 
ATOM      2  C   UNL     1       4.698   3.566  17.161  0.00  0.00    +0.000 A 
ATOM      3  N   UNL     1       4.013   3.142  18.177  0.00  0.00    +0.000 NA
ATOM      4  C   UNL     1       3.291   4.084  18.920  0.00  0.00    +0.000 A 
ATOM      5  C   UNL     1       2.583   3.661  20.045  0.00  0.00    +0.000 A 
ATOM      6  C   UNL     1       1.856   4.569  20.831  0.00  0.00    +0.000 A 
ATOM      7  C   UNL     1       1.813   5.936  20.479  0.00  0.00    +0.000 A 
ATOM      8  N   UNL     1       1.143   6.953  21.164  0.00  0.00    +0.000 NA
ATOM      9  C   UNL     1       1.324   8.095  20.525  0.00  0.00    +0.000 A 
ATOM     10  S   UNL     1       2.267   8.021  19.113  0.00  0.00    +0.000 S 
ATOM     11  C   UNL     1       2.512   6.342  19.336  0.00  0.00    +0.000 A 
ATOM     12  C   UNL     1       3.264   5.432  18.570  0.00  0.00    +0.000 A 
ATOM     13  C   UNL     1       4.066   5.864  17.410  0.00  0.00    +0.000 A 
ATOM     14  O   UNL     1       4.117   7.043  17.079  0.00  0.00    +0.000 OA
ENDROOT
BRANCH   9  15
ATOM     15  C   UNL     1       0.808   9.391  20.949  0.00  0.00    +0.000 C 
ATOM     16  N   UNL     1       0.238   9.507  22.131  0.00  0.00    +0.000 NA
ATOM     17  C   UNL     1      -0.285  10.890  22.207  0.00  0.00    +0.000 C 
ATOM     18  C   UNL     1       0.268  11.636  20.991  0.00  0.00    +0.000 C 
ATOM     19  N   UNL     1       0.835  10.558  20.236  0.00  0.00    +0.000 N 
ATOM     20  H   UNL     1       1.127  10.609  19.272  0.00  0.00    +0.000 HD
ENDBRANCH   9  15
BRANCH   1  22
ATOM     21  C   UNL     1       7.087   5.491  16.139  0.00  0.00    +0.000 C 
ATOM     22  C   UNL     1       5.655   5.292  15.645  0.00  0.00    +0.000 C 
ATOM     23  C   UNL     1       5.582   4.350  14.446  0.00  0.00    +0.000 C 
ENDBRANCH   1  22
TORSDOF 2
ENDMDL
MODEL 3
REMARK VINA RESULT:      -7.0      2.219      6.976
REMARK  Name = 
REMARK  4 active torsions:
REMARK  status: ('A' for Active; 'I' for Inactive)
REMARK    1  A    between atoms: C_1  and  C_2
REMARK    2  A    between atoms: C_2  and  C_3
REMARK    3  A    between atoms: C_2  and  N_4
REMARK    4  A    between atoms: C_12  and  C_13
REMARK                            x       y       z     vdW  Elec       q    Type
REMARK                         _______ _______ _______ _____ _____    ______ ____
ROOT
ATOM      1  N   UNL     1       2.051   7.798  19.455  0.00  0.00    +0.000 N 
ATOM      2  C   UNL     1       1.650   6.923  20.434  0.00  0.00    +0.000 A 
ATOM      3  N   UNL     1       1.982   5.672  20.503  0.00  0.00    +0.000 NA
ATOM      4  C   UNL     1       2.811   5.158  19.498  0.00  0.00    +0.000 A 
ATOM      5  C   UNL     1       3.145   3.804  19.523  0.00  0.00    +0.000 A 
ATOM      6  C   UNL     1       3.961   3.238  18.530  0.00  0.00    +0.000 A 
ATOM      7  C   UNL     1       4.476   4.044  17.490  0.00  0.00    +0.000 A 
ATOM      8  N   UNL     1       5.289   3.623  16.435  0.00  0.00    +0.000 NA
ATOM      9  C   UNL     1       5.578   4.663  15.672  0.00  0.00    +0.000 A 
ATOM     10  S   UNL     1       4.924   6.154  16.162  0.00  0.00    +0.000 S 
ATOM     11  C   UNL     1       4.148   5.404  17.491  0.00  0.00    +0.000 A 
ATOM     12  C   UNL     1       3.305   5.960  18.471  0.00  0.00    +0.000 A 
ATOM     13  C   UNL     1       2.892   7.375  18.435  0.00  0.00    +0.000 A 
ATOM     14  O   UNL     1       3.259   8.119  17.533  0.00  0.00    +0.000 OA
ENDROOT
BRANCH   9  15
ATOM     15  C   UNL     1       6.377   4.621  14.454  0.00  0.00    +0.000 C 
ATOM     16  N   UNL     1       7.454   5.373  14.359  0.00  0.00    +0.000 NA
ATOM     17  C   UNL     1       7.961   5.201  12.978  0.00  0.00    +0.000 C 
ATOM     18  C   UNL     1       7.156   4.060  12.354  0.00  0.00    +0.000 C 
ATOM     19  N   UNL     1       6.133   3.868  13.338  0.00  0.00    +0.000 N 
ATOM     20  H   UNL     1       5.287   3.335  13.206  0.00  0.00    +0.000 HD
ENDBRANCH   9  15
BRANCH   1  22
ATOM     21  C   UNL     1       0.703   9.391  18.129  0.00  0.00    +0.000 C 
ATOM     22  C   UNL     1       1.544   9.178  19.386  0.00  0.00    +0.000 C 
ATOM     23  C   UNL     1       0.805   9.590  20.655  0.00  0.00    +0.000 C 
ENDBRANCH   1  22
TORSDOF 2
ENDMDL
MODEL 4
REMARK VINA RESULT:      -7.0      1.691      6.857
REMARK  Name = 
REMARK  4 active torsions:
REMARK  status: ('A' for Active; 'I' for Inactive)
REMARK    1  A    between atoms: C_1  and  C_2
REMARK    2  A    between atoms: C_2  and  C_3
REMARK    3  A    between atoms: C_2  and  N_4
REMARK    4  A    between atoms: C_12  and  C_13
REMARK                            x       y       z     vdW  Elec       q    Type
REMARK                         _______ _______ _______ _____ _____    ______ ____
ROOT
ATOM      1  N   UNL     1       1.306   9.152  19.409  0.00  0.00    +0.000 N 
ATOM      2  C   UNL     1       0.916   8.548  20.578  0.00  0.00    +0.000 A 
ATOM      3  N   UNL     1       1.278   7.367  20.969  0.00  0.00    +0.000 NA
ATOM      4  C   UNL     1       2.132   6.635  20.135  0.00  0.00    +0.000 A 
ATOM      5  C   UNL     1       2.501   5.343  20.510  0.00  0.00    +0.000 A 
ATOM      6  C   UNL     1       3.343   4.563  19.701  0.00  0.00    +0.000 A 
ATOM      7  C   UNL     1       3.851   5.088  18.492  0.00  0.00    +0.000 A 
ATOM      8  N   UNL     1       4.688   4.433  17.585  0.00  0.00    +0.000 NA
ATOM      9  C   UNL     1       4.960   5.249  16.582  0.00  0.00    +0.000 A 
ATOM     10  S   UNL     1       4.262   6.797  16.667  0.00  0.00    +0.000 S 
ATOM     11  C   UNL     1       3.488   6.393  18.140  0.00  0.00    +0.000 A 
ATOM     12  C   UNL     1       2.620   7.159  18.939  0.00  0.00    +0.000 A 
ATOM     13  C   UNL     1       2.170   8.504  18.537  0.00  0.00    +0.000 A 
ATOM     14  O   UNL     1       2.530   9.001  17.476  0.00  0.00    +0.000 OA
ENDROOT
BRANCH   9  15
ATOM     15  C   UNL     1       5.775   4.917  15.420  0.00  0.00    +0.000 C 
ATOM     16  N   UNL     1       6.989   5.417  15.315  0.00  0.00    +0.000 NA
ATOM     17  C   UNL     1       7.497   5.002  13.988  0.00  0.00    +0.000 C 
ATOM     18  C   UNL     1       6.494   3.991  13.430  0.00  0.00    +0.000 C 
ATOM     19  N   UNL     1       5.419   4.117  14.369  0.00  0.00    +0.000 N 
ATOM     20  H   UNL     1       4.485   3.757  14.241  0.00  0.00    +0.000 HD
ENDBRANCH   9  15
BRANCH   1  22
ATOM     21  C   UNL     1      -0.668  10.313  18.477  0.00  0.00    +0.000 C 
ATOM     22  C   UNL     1       0.766  10.453  18.983  0.00  0.00    +0.000 C 
ATOM     23  C   UNL     1       0.897  11.520  20.067  0.00  0.00    +0.000 C 
ENDBRANCH   1  22
TORSDOF 2
ENDMDL
MODEL 5
REMARK VINA RESULT:      -6.9      2.672      3.744
REMARK  Name = 
REMARK  4 active torsions:
REMARK  status: ('A' for Active; 'I' for Inactive)
REMARK    1  A    between atoms: C_1  and  C_2
REMARK    2  A    between atoms: C_2  and  C_3
REMARK    3  A    between atoms: C_2  and  N_4
REMARK    4  A    between atoms: C_12  and  C_13
REMARK                            x       y       z     vdW  Elec       q    Type
REMARK                         _______ _______ _______ _____ _____    ______ ____
ROOT
ATOM      1  N   UNL     1       3.105   4.256  19.503  0.00  0.00    +0.000 N 
ATOM      2  C   UNL     1       3.704   4.358  18.271  0.00  0.00    +0.000 A 
ATOM      3  N   UNL     1       3.727   5.425  17.535  0.00  0.00    +0.000 NA
ATOM      4  C   UNL     1       3.087   6.571  18.023  0.00  0.00    +0.000 A 
ATOM      5  C   UNL     1       3.058   7.719  17.231  0.00  0.00    +0.000 A 
ATOM      6  C   UNL     1       2.416   8.888  17.669  0.00  0.00    +0.000 A 
ATOM      7  C   UNL     1       1.800   8.927  18.940  0.00  0.00    +0.000 A 
ATOM      8  N   UNL     1       1.121  10.009  19.504  0.00  0.00    +0.000 NA
ATOM      9  C   UNL     1       0.696   9.670  20.709  0.00  0.00    +0.000 A 
ATOM     10  S   UNL     1       1.078   8.095  21.221  0.00  0.00    +0.000 S 
ATOM     11  C   UNL     1       1.856   7.774  19.730  0.00  0.00    +0.000 A 
ATOM     12  C   UNL     1       2.474   6.595  19.274  0.00  0.00    +0.000 A 
ATOM     13  C   UNL     1       2.469   5.353  20.068  0.00  0.00    +0.000 A 
ATOM     14  O   UNL     1       1.909   5.299  21.157  0.00  0.00    +0.000 OA
ENDROOT
BRANCH   9  15
ATOM     15  C   UNL     1      -0.083  10.521  21.600  0.00  0.00    +0.000 C 
ATOM     16  N   UNL     1      -0.646   9.998  22.669  0.00  0.00    +0.000 NA
ATOM     17  C   UNL     1      -1.456  11.075  23.282  0.00  0.00    +0.000 C 
ATOM     18  C   UNL     1      -1.098  12.367  22.547  0.00  0.00    +0.000 C 
ATOM     19  N   UNL     1      -0.321  11.861  21.455  0.00  0.00    +0.000 N 
ATOM     20  H   UNL     1      -0.063  12.382  20.630  0.00  0.00    +0.000 HD
ENDBRANCH   9  15
BRANCH   1  22
ATOM     21  C   UNL     1       1.917   2.094  19.669  0.00  0.00    +0.000 C 
ATOM     22  C   UNL     1       3.028   2.979  20.230  0.00  0.00    +0.000 C 
ATOM     23  C   UNL     1       4.372   2.259  20.285  0.00  0.00    +0.000 C 
ENDBRANCH   1  22
TORSDOF 2
ENDMDL
MODEL 6
REMARK VINA RESULT:      -6.7      1.469      6.912
REMARK  Name = 
REMARK  4 active torsions:
REMARK  status: ('A' for Active; 'I' for Inactive)
REMARK    1  A    between atoms: C_1  and  C_2
REMARK    2  A    between atoms: C_2  and  C_3
REMARK    3  A    between atoms: C_2  and  N_4
REMARK    4  A    between atoms: C_12  and  C_13
REMARK                            x       y       z     vdW  Elec       q    Type
REMARK                         _______ _______ _______ _____ _____    ______ ____
ROOT
ATOM      1  N   UNL     1       0.849   9.991  19.424  0.00  0.00    +0.000 N 
ATOM      2  C   UNL     1       0.331   9.514  20.602  0.00  0.00    +0.000 A 
ATOM      3  N   UNL     1       0.585   8.352  21.116  0.00  0.00    +0.000 NA
ATOM      4  C   UNL     1       1.453   7.502  20.418  0.00  0.00    +0.000 A 
ATOM      5  C   UNL     1       1.707   6.228  20.925  0.00  0.00    +0.000 A 
ATOM      6  C   UNL     1       2.557   5.334  20.255  0.00  0.00    +0.000 A 
ATOM      7  C   UNL     1       3.190   5.723  19.053  0.00  0.00    +0.000 A 
ATOM      8  N   UNL     1       4.050   4.945  18.274  0.00  0.00    +0.000 NA
ATOM      9  C   UNL     1       4.451   5.654  17.234  0.00  0.00    +0.000 A 
ATOM     10  S   UNL     1       3.850   7.242  17.135  0.00  0.00    +0.000 S 
ATOM     11  C   UNL     1       2.940   7.011  18.567  0.00  0.00    +0.000 A 
ATOM     12  C   UNL     1       2.063   7.892  19.227  0.00  0.00    +0.000 A 
ATOM     13  C   UNL     1       1.735   9.222  18.682  0.00  0.00    +0.000 A 
ATOM     14  O   UNL     1       2.206   9.604  17.617  0.00  0.00    +0.000 OA
ENDROOT
BRANCH   9  15
ATOM     15  C   UNL     1       5.330   5.177  16.174  0.00  0.00    +0.000 C 
ATOM     16  N   UNL     1       5.106   4.001  15.626  0.00  0.00    +0.000 NA
ATOM     17  C   UNL     1       6.228   3.757  14.691  0.00  0.00    +0.000 C 
ATOM     18  C   UNL     1       7.016   5.064  14.600  0.00  0.00    +0.000 C 
ATOM     19  N   UNL     1       6.418   5.826  15.656  0.00  0.00    +0.000 N 
ATOM     20  H   UNL     1       6.792   6.677  16.048  0.00  0.00    +0.000 HD
ENDBRANCH   9  15
BRANCH   1  22
ATOM     21  C   UNL     1      -1.094  11.406  18.841  0.00  0.00    +0.000 C 
ATOM     22  C   UNL     1       0.428  11.280  18.851  0.00  0.00    +0.000 C 
ATOM     23  C   UNL     1       1.104  12.467  19.531  0.00  0.00    +0.000 C 
ENDBRANCH   1  22
TORSDOF 2
ENDMDL
MODEL 7
REMARK VINA RESULT:      -6.4      3.450      6.886
REMARK  Name = 
REMARK  4 active torsions:
REMARK  status: ('A' for Active; 'I' for Inactive)
REMARK    1  A    between atoms: C_1  and  C_2
REMARK    2  A    between atoms: C_2  and  C_3
REMARK    3  A    between atoms: C_2  and  N_4
REMARK    4  A    between atoms: C_12  and  C_13
REMARK                            x       y       z     vdW  Elec       q    Type
REMARK                         _______ _______ _______ _____ _____    ______ ____
ROOT
ATOM      1  N   UNL     1       2.388   3.784  20.200  0.00  0.00    +0.000 N 
ATOM      2  C   UNL     1       1.865   4.947  20.710  0.00  0.00    +0.000 A 
ATOM      3  N   UNL     1       2.031   6.129  20.205  0.00  0.00    +0.000 NA
ATOM      4  C   UNL     1       2.811   6.242  19.047  0.00  0.00    +0.000 A 
ATOM      5  C   UNL     1       3.044   7.507  18.508  0.00  0.00    +0.000 A 
ATOM      6  C   UNL     1       3.831   7.675  17.358  0.00  0.00    +0.000 A 
ATOM      7  C   UNL     1       4.390   6.550  16.711  0.00  0.00    +0.000 A 
ATOM      8  N   UNL     1       5.196   6.561  15.569  0.00  0.00    +0.000 NA
ATOM      9  C   UNL     1       5.514   5.317  15.255  0.00  0.00    +0.000 A 
ATOM     10  S   UNL     1       4.882   4.105  16.266  0.00  0.00    +0.000 S 
ATOM     11  C   UNL     1       4.131   5.286  17.252  0.00  0.00    +0.000 A 
ATOM     12  C   UNL     1       3.366   5.127  18.422  0.00  0.00    +0.000 A 
ATOM     13  C   UNL     1       3.153   3.806  19.043  0.00  0.00    +0.000 A 
ATOM     14  O   UNL     1       3.652   2.794  18.564  0.00  0.00    +0.000 OA
ENDROOT
BRANCH   9  15
ATOM     15  C   UNL     1       6.370   4.920  14.145  0.00  0.00    +0.000 C 
ATOM     16  N   UNL     1       7.546   5.492  13.995  0.00  0.00    +0.000 NA
ATOM     17  C   UNL     1       8.105   4.972  12.726  0.00  0.00    +0.000 C 
ATOM     18  C   UNL     1       7.186   3.835  12.276  0.00  0.00    +0.000 C 
ATOM     19  N   UNL     1       6.089   3.985  13.186  0.00  0.00    +0.000 N 
ATOM     20  H   UNL     1       5.186   3.546  13.090  0.00  0.00    +0.000 HD
ENDBRANCH   9  15
BRANCH   1  22
ATOM     21  C   UNL     1       3.591   2.003  21.423  0.00  0.00    +0.000 C 
ATOM     22  C   UNL     1       2.245   2.494  20.893  0.00  0.00    +0.000 C 
ATOM     23  C   UNL     1       1.173   2.532  21.978  0.00  0.00    +0.000 C 
ENDBRANCH   1  22
TORSDOF 2
ENDMDL
MODEL 8
REMARK VINA RESULT:      -6.3      0.623      1.196
REMARK  Name = 
REMARK  4 active torsions:
REMARK  status: ('A' for Active; 'I' for Inactive)
REMARK    1  A    between atoms: C_1  and  C_2
REMARK    2  A    between atoms: C_2  and  C_3
REMARK    3  A    between atoms: C_2  and  N_4
REMARK    4  A    between atoms: C_12  and  C_13
REMARK                            x       y       z     vdW  Elec       q    Type
REMARK                         _______ _______ _______ _____ _____    ______ ____
ROOT
ATOM      1  N   UNL     1       4.796   4.402  17.375  0.00  0.00    +0.000 N 
ATOM      2  C   UNL     1       4.471   3.420  18.278  0.00  0.00    +0.000 A 
ATOM      3  N   UNL     1       3.650   3.557  19.272  0.00  0.00    +0.000 NA
ATOM      4  C   UNL     1       3.045   4.807  19.453  0.00  0.00    +0.000 A 
ATOM      5  C   UNL     1       2.193   4.996  20.541  0.00  0.00    +0.000 A 
ATOM      6  C   UNL     1       1.574   6.234  20.775  0.00  0.00    +0.000 A 
ATOM      7  C   UNL     1       1.792   7.314  19.891  0.00  0.00    +0.000 A 
ATOM      8  N   UNL     1       1.255   8.600  19.998  0.00  0.00    +0.000 NA
ATOM      9  C   UNL     1       1.676   9.329  18.979  0.00  0.00    +0.000 A 
ATOM     10  S   UNL     1       2.696   8.543  17.868  0.00  0.00    +0.000 S 
ATOM     11  C   UNL     1       2.634   7.104  18.793  0.00  0.00    +0.000 A 
ATOM     12  C   UNL     1       3.275   5.869  18.581  0.00  0.00    +0.000 A 
ATOM     13  C   UNL     1       4.223   5.663  17.471  0.00  0.00    +0.000 A 
ATOM     14  O   UNL     1       4.499   6.572  16.696  0.00  0.00    +0.000 OA
ENDROOT
BRANCH   9  15
ATOM     15  C   UNL     1       1.358  10.733  18.757  0.00  0.00    +0.000 C 
ATOM     16  N   UNL     1       0.227  11.223  19.220  0.00  0.00    +0.000 NA
ATOM     17  C   UNL     1       0.144  12.617  18.727  0.00  0.00    +0.000 C 
ATOM     18  C   UNL     1       1.503  12.944  18.106  0.00  0.00    +0.000 C 
ATOM     19  N   UNL     1       2.122  11.652  18.090  0.00  0.00    +0.000 N 
ATOM     20  H   UNL     1       2.954  11.409  17.575  0.00  0.00    +0.000 HD
ENDBRANCH   9  15
BRANCH   1  22
ATOM     21  C   UNL     1       5.304   4.633  14.967  0.00  0.00    +0.000 C 
ATOM     22  C   UNL     1       5.820   4.201  16.338  0.00  0.00    +0.000 C 
ATOM     23  C   UNL     1       7.147   4.864  16.694  0.00  0.00    +0.000 C 
ENDBRANCH   1  22
TORSDOF 2
ENDMDL
