MODEL 1
REMARK VINA RESULT:      -8.0      0.000      0.000
REMARK  Name = 
REMARK  3 active torsions:
REMARK  status: ('A' for Active; 'I' for Inactive)
REMARK    1  A    between atoms: C_1  and  N_2
REMARK    2  A    between atoms: C_7  and  C_8
REMARK    3  A    between atoms: N_11  and  O_12
REMARK                            x       y       z     vdW  Elec       q    Type
REMARK                         _______ _______ _______ _____ _____    ______ ____
ROOT
ATOM      1  C   UNL     1       3.378   6.284  18.677  0.00  0.00    +0.000 A 
ATOM      2  C   UNL     1       3.958   5.527  19.624  0.00  0.00    +0.000 A 
ATOM      3  C   UNL     1       4.701   4.395  19.087  0.00  0.00    +0.000 A 
ATOM      4  N   UNL     1       4.471   3.145  19.317  0.00  0.00    +0.000 NA
ATOM      5  C   UNL     1       5.535   4.795  17.968  0.00  0.00    +0.000 A 
ATOM      6  C   UNL     1       6.871   4.470  17.806  0.00  0.00    +0.000 A 
ATOM      7  C   UNL     1       7.437   4.672  16.551  0.00  0.00    +0.000 A 
ATOM      8  C   UNL     1       6.631   5.084  15.478  0.00  0.00    +0.000 A 
ATOM      9  C   UNL     1       5.299   5.477  15.685  0.00  0.00    +0.000 A 
ATOM     10  C   UNL     1       4.788   5.438  16.973  0.00  0.00    +0.000 A 
ATOM     11  O   UNL     1       3.586   6.062  17.295  0.00  0.00    +0.000 OA
ENDROOT
BRANCH   1  18
ATOM     12  C   UNL     1      -0.211  11.732  19.546  0.00  0.00    +0.000 C 
ATOM     13  N   UNL     1       0.146  10.509  20.232  0.00  0.00    +0.000 N 
ATOM     14  C   UNL     1      -0.174  10.204  21.527  0.00  0.00    +0.000 A 
ATOM     15  C   UNL     1       0.385   8.979  21.819  0.00  0.00    +0.000 A 
ATOM     16  C   UNL     1       1.091   8.531  20.672  0.00  0.00    +0.000 A 
ATOM     17  C   UNL     1       1.867   7.399  20.378  0.00  0.00    +0.000 A 
ATOM     18  C   UNL     1       2.431   7.336  19.112  0.00  0.00    +0.000 A 
ATOM     19  N   UNL     1       2.187   8.278  18.156  0.00  0.00    +0.000 NA
ATOM     20  C   UNL     1       1.438   9.362  18.422  0.00  0.00    +0.000 A 
ATOM     21  C   UNL     1       0.896   9.500  19.683  0.00  0.00    +0.000 A 
ENDBRANCH   1  18
BRANCH   4  22
ATOM     22  O   UNL     1       3.330   2.998  20.126  0.00  0.00    +0.000 OA
ATOM     23  H   UNL     1       2.863   2.256  19.695  0.00  0.00    +0.000 HD
ENDBRANCH   4  22
TORSDOF 2
ENDMDL
MODEL 2
REMARK VINA RESULT:      -8.0      1.470      1.549
REMARK  Name = 
REMARK  3 active torsions:
REMARK  status: ('A' for Active; 'I' for Inactive)
REMARK    1  A    between atoms: C_1  and  N_2
REMARK    2  A    between atoms: C_7  and  C_8
REMARK    3  A    between atoms: N_11  and  O_12
REMARK                            x       y       z     vdW  Elec       q    Type
REMARK                         _______ _______ _______ _____ _____    ______ ____
ROOT
ATOM      1  C   UNL     1       2.710   6.962  18.778  0.00  0.00    +0.000 A 
ATOM      2  C   UNL     1       2.495   5.663  19.049  0.00  0.00    +0.000 A 
ATOM      3  C   UNL     1       3.231   4.759  18.175  0.00  0.00    +0.000 A 
ATOM      4  N   UNL     1       2.724   3.883  17.372  0.00  0.00    +0.000 NA
ATOM      5  C   UNL     1       4.613   5.177  18.028  0.00  0.00    +0.000 A 
ATOM      6  C   UNL     1       5.718   4.352  18.155  0.00  0.00    +0.000 A 
ATOM      7  C   UNL     1       6.940   4.832  17.694  0.00  0.00    +0.000 A 
ATOM      8  C   UNL     1       6.999   6.067  17.028  0.00  0.00    +0.000 A 
ATOM      9  C   UNL     1       5.881   6.914  16.979  0.00  0.00    +0.000 A 
ATOM     10  C   UNL     1       4.708   6.503  17.592  0.00  0.00    +0.000 A 
ATOM     11  O   UNL     1       3.660   7.390  17.821  0.00  0.00    +0.000 OA
ENDROOT
BRANCH   1  18
ATOM     12  C   UNL     1      -0.516  12.322  20.824  0.00  0.00    +0.000 C 
ATOM     13  N   UNL     1      -0.150  10.997  21.278  0.00  0.00    +0.000 N 
ATOM     14  C   UNL     1      -0.356  10.506  22.538  0.00  0.00    +0.000 A 
ATOM     15  C   UNL     1       0.172   9.235  22.584  0.00  0.00    +0.000 A 
ATOM     16  C   UNL     1       0.740   8.946  21.315  0.00  0.00    +0.000 A 
ATOM     17  C   UNL     1       1.428   7.849  20.776  0.00  0.00    +0.000 A 
ATOM     18  C   UNL     1       1.862   7.964  19.463  0.00  0.00    +0.000 A 
ATOM     19  N   UNL     1       1.569   9.049  18.689  0.00  0.00    +0.000 NA
ATOM     20  C   UNL     1       0.902  10.102  19.192  0.00  0.00    +0.000 A 
ATOM     21  C   UNL     1       0.494  10.061  20.509  0.00  0.00    +0.000 A 
ENDBRANCH   1  18
BRANCH   4  22
ATOM     22  O   UNL     1       1.319   3.955  17.393  0.00  0.00    +0.000 OA
ATOM     23  H   UNL     1       1.159   4.914  17.297  0.00  0.00    +0.000 HD
ENDBRANCH   4  22
TORSDOF 2
ENDMDL
MODEL 3
REMARK VINA RESULT:      -7.9      1.492      2.078
REMARK  Name = 
REMARK  3 active torsions:
REMARK  status: ('A' for Active; 'I' for Inactive)
REMARK    1  A    between atoms: C_1  and  N_2
REMARK    2  A    between atoms: C_7  and  C_8
REMARK    3  A    between atoms: N_11  and  O_12
REMARK                            x       y       z     vdW  Elec       q    Type
REMARK                         _______ _______ _______ _____ _____    ______ ____
ROOT
ATOM      1  C   UNL     1       2.741   6.931  18.534  0.00  0.00    +0.000 A 
ATOM      2  C   UNL     1       2.500   5.653  18.873  0.00  0.00    +0.000 A 
ATOM      3  C   UNL     1       3.116   4.688  17.973  0.00  0.00    +0.000 A 
ATOM      4  N   UNL     1       2.503   3.807  17.253  0.00  0.00    +0.000 NA
ATOM      5  C   UNL     1       4.495   5.040  17.686  0.00  0.00    +0.000 A 
ATOM      6  C   UNL     1       5.573   4.173  17.745  0.00  0.00    +0.000 A 
ATOM      7  C   UNL     1       6.765   4.584  17.157  0.00  0.00    +0.000 A 
ATOM      8  C   UNL     1       6.812   5.791  16.440  0.00  0.00    +0.000 A 
ATOM      9  C   UNL     1       5.729   6.684  16.459  0.00  0.00    +0.000 A 
ATOM     10  C   UNL     1       4.602   6.346  17.191  0.00  0.00    +0.000 A 
ATOM     11  O   UNL     1       3.615   7.284  17.479  0.00  0.00    +0.000 OA
ENDROOT
BRANCH   1  18
ATOM     12  C   UNL     1      -0.833  10.582  22.684  0.00  0.00    +0.000 C 
ATOM     13  N   UNL     1      -0.329  10.603  21.328  0.00  0.00    +0.000 N 
ATOM     14  C   UNL     1      -0.639  11.543  20.382  0.00  0.00    +0.000 A 
ATOM     15  C   UNL     1      -0.002  11.187  19.214  0.00  0.00    +0.000 A 
ATOM     16  C   UNL     1       0.703   9.977  19.446  0.00  0.00    +0.000 A 
ATOM     17  C   UNL     1       1.493   9.134  18.649  0.00  0.00    +0.000 A 
ATOM     18  C   UNL     1       1.999   7.992  19.253  0.00  0.00    +0.000 A 
ATOM     19  N   UNL     1       1.818   7.726  20.579  0.00  0.00    +0.000 NA
ATOM     20  C   UNL     1       1.072   8.530  21.355  0.00  0.00    +0.000 A 
ATOM     21  C   UNL     1       0.501   9.653  20.791  0.00  0.00    +0.000 A 
ENDBRANCH   1  18
BRANCH   4  22
ATOM     22  O   UNL     1       1.110   3.940  17.398  0.00  0.00    +0.000 OA
ATOM     23  H   UNL     1       0.880   4.536  16.659  0.00  0.00    +0.000 HD
ENDBRANCH   4  22
TORSDOF 2
ENDMDL
MODEL 4
REMARK VINA RESULT:      -7.8      2.041      2.952
REMARK  Name = 
REMARK  3 active torsions:
REMARK  status: ('A' for Active; 'I' for Inactive)
REMARK    1  A    between atoms: C_1  and  N_2
REMARK    2  A    between atoms: C_7  and  C_8
REMARK    3  A    between atoms: N_11  and  O_12
REMARK                            x       y       z     vdW  Elec       q    Type
REMARK                         _______ _______ _______ _____ _____    ______ ____
ROOT
ATOM      1  C   UNL     1       4.902   5.687  16.940  0.00  0.00    +0.000 A 
ATOM      2  C   UNL     1       6.189   6.002  17.162  0.00  0.00    +0.000 A 
ATOM      3  C   UNL     1       7.128   5.112  16.492  0.00  0.00    +0.000 A 
ATOM      4  N   UNL     1       8.014   4.360  17.058  0.00  0.00    +0.000 NA
ATOM      5  C   UNL     1       6.740   4.878  15.113  0.00  0.00    +0.000 A 
ATOM      6  C   UNL     1       7.582   4.965  14.017  0.00  0.00    +0.000 A 
ATOM      7  C   UNL     1       7.135   4.424  12.815  0.00  0.00    +0.000 A 
ATOM      8  C   UNL     1       5.918   3.725  12.772  0.00  0.00    +0.000 A 
ATOM      9  C   UNL     1       5.051   3.717  13.876  0.00  0.00    +0.000 A 
ATOM     10  C   UNL     1       5.426   4.404  15.020  0.00  0.00    +0.000 A 
ATOM     11  O   UNL     1       4.514   4.668  16.038  0.00  0.00    +0.000 OA
ENDROOT
BRANCH   1  18
ATOM     12  C   UNL     1       0.823  10.003  19.779  0.00  0.00    +0.000 C 
ATOM     13  N   UNL     1       1.314   8.652  19.949  0.00  0.00    +0.000 N 
ATOM     14  C   UNL     1       1.057   7.845  21.023  0.00  0.00    +0.000 A 
ATOM     15  C   UNL     1       1.740   6.663  20.832  0.00  0.00    +0.000 A 
ATOM     16  C   UNL     1       2.458   6.760  19.611  0.00  0.00    +0.000 A 
ATOM     17  C   UNL     1       3.332   5.910  18.917  0.00  0.00    +0.000 A 
ATOM     18  C   UNL     1       3.869   6.393  17.732  0.00  0.00    +0.000 A 
ATOM     19  N   UNL     1       3.510   7.600  17.206  0.00  0.00    +0.000 NA
ATOM     20  C   UNL     1       2.667   8.419  17.857  0.00  0.00    +0.000 A 
ATOM     21  C   UNL     1       2.145   8.010  19.066  0.00  0.00    +0.000 A 
ENDBRANCH   1  18
BRANCH   4  22
ATOM     22  O   UNL     1       7.915   4.458  18.457  0.00  0.00    +0.000 OA
ATOM     23  H   UNL     1       8.849   4.557  18.725  0.00  0.00    +0.000 HD
ENDBRANCH   4  22
TORSDOF 2
ENDMDL
MODEL 5
REMARK VINA RESULT:      -7.8      2.019      2.990
REMARK  Name = 
REMARK  3 active torsions:
REMARK  status: ('A' for Active; 'I' for Inactive)
REMARK    1  A    between atoms: C_1  and  N_2
REMARK    2  A    between atoms: C_7  and  C_8
REMARK    3  A    between atoms: N_11  and  O_12
REMARK                            x       y       z     vdW  Elec       q    Type
REMARK                         _______ _______ _______ _____ _____    ______ ____
ROOT
ATOM      1  C   UNL     1       2.530   6.726  19.281  0.00  0.00    +0.000 A 
ATOM      2  C   UNL     1       2.971   6.853  18.018  0.00  0.00    +0.000 A 
ATOM      3  C   UNL     1       3.907   5.810  17.623  0.00  0.00    +0.000 A 
ATOM      4  N   UNL     1       5.134   5.977  17.252  0.00  0.00    +0.000 NA
ATOM      5  C   UNL     1       3.433   4.497  18.022  0.00  0.00    +0.000 A 
ATOM      6  C   UNL     1       3.389   3.378  17.207  0.00  0.00    +0.000 A 
ATOM      7  C   UNL     1       3.196   2.142  17.817  0.00  0.00    +0.000 A 
ATOM      8  C   UNL     1       3.161   2.051  19.217  0.00  0.00    +0.000 A 
ATOM      9  C   UNL     1       3.133   3.206  20.015  0.00  0.00    +0.000 A 
ATOM     10  C   UNL     1       3.153   4.444  19.392  0.00  0.00    +0.000 A 
ATOM     11  O   UNL     1       2.855   5.611  20.089  0.00  0.00    +0.000 OA
ENDROOT
BRANCH   1  18
ATOM     12  C   UNL     1      -0.277  12.470  20.846  0.00  0.00    +0.000 C 
ATOM     13  N   UNL     1      -0.085  11.139  21.379  0.00  0.00    +0.000 N 
ATOM     14  C   UNL     1      -0.436  10.731  22.638  0.00  0.00    +0.000 A 
ATOM     15  C   UNL     1      -0.046   9.417  22.776  0.00  0.00    +0.000 A 
ATOM     16  C   UNL     1       0.584   9.014  21.570  0.00  0.00    +0.000 A 
ATOM     17  C   UNL     1       1.197   7.830  21.132  0.00  0.00    +0.000 A 
ATOM     18  C   UNL     1       1.739   7.838  19.855  0.00  0.00    +0.000 A 
ATOM     19  N   UNL     1       1.619   8.909  19.018  0.00  0.00    +0.000 NA
ATOM     20  C   UNL     1       1.026  10.046  19.422  0.00  0.00    +0.000 A 
ATOM     21  C   UNL     1       0.517  10.109  20.702  0.00  0.00    +0.000 A 
ENDBRANCH   1  18
BRANCH   4  22
ATOM     22  O   UNL     1       5.492   7.334  17.343  0.00  0.00    +0.000 OA
ATOM     23  H   UNL     1       5.590   7.459  18.307  0.00  0.00    +0.000 HD
ENDBRANCH   4  22
TORSDOF 2
ENDMDL
MODEL 6
REMARK VINA RESULT:      -7.8      3.331      7.322
REMARK  Name = 
REMARK  3 active torsions:
REMARK  status: ('A' for Active; 'I' for Inactive)
REMARK    1  A    between atoms: C_1  and  N_2
REMARK    2  A    between atoms: C_7  and  C_8
REMARK    3  A    between atoms: N_11  and  O_12
REMARK                            x       y       z     vdW  Elec       q    Type
REMARK                         _______ _______ _______ _____ _____    ______ ____
ROOT
ATOM      1  C   UNL     1       4.692   4.087  17.722  0.00  0.00    +0.000 A 
ATOM      2  C   UNL     1       4.295   2.860  18.099  0.00  0.00    +0.000 A 
ATOM      3  C   UNL     1       3.716   2.823  19.435  0.00  0.00    +0.000 A 
ATOM      4  N   UNL     1       4.159   2.151  20.447  0.00  0.00    +0.000 NA
ATOM      5  C   UNL     1       2.770   3.907  19.630  0.00  0.00    +0.000 A 
ATOM      6  C   UNL     1       1.498   3.774  20.159  0.00  0.00    +0.000 A 
ATOM      7  C   UNL     1       0.839   4.935  20.555  0.00  0.00    +0.000 A 
ATOM      8  C   UNL     1       1.508   6.168  20.512  0.00  0.00    +0.000 A 
ATOM      9  C   UNL     1       2.768   6.285  19.903  0.00  0.00    +0.000 A 
ATOM     10  C   UNL     1       3.347   5.152  19.354  0.00  0.00    +0.000 A 
ATOM     11  O   UNL     1       4.448   5.239  18.506  0.00  0.00    +0.000 OA
ENDROOT
BRANCH   1  18
ATOM     12  C   UNL     1       8.624   5.884  12.757  0.00  0.00    +0.000 C 
ATOM     13  N   UNL     1       7.546   4.964  13.052  0.00  0.00    +0.000 N 
ATOM     14  C   UNL     1       6.910   4.169  12.138  0.00  0.00    +0.000 A 
ATOM     15  C   UNL     1       5.917   3.480  12.800  0.00  0.00    +0.000 A 
ATOM     16  C   UNL     1       5.932   3.883  14.161  0.00  0.00    +0.000 A 
ATOM     17  C   UNL     1       5.161   3.561  15.287  0.00  0.00    +0.000 A 
ATOM     18  C   UNL     1       5.478   4.209  16.472  0.00  0.00    +0.000 A 
ATOM     19  N   UNL     1       6.539   5.060  16.577  0.00  0.00    +0.000 NA
ATOM     20  C   UNL     1       7.292   5.370  15.508  0.00  0.00    +0.000 A 
ATOM     21  C   UNL     1       6.986   4.793  14.293  0.00  0.00    +0.000 A 
ENDBRANCH   1  18
BRANCH   4  22
ATOM     22  O   UNL     1       5.351   1.486  20.108  0.00  0.00    +0.000 OA
ATOM     23  H   UNL     1       5.023   0.623  19.788  0.00  0.00    +0.000 HD
ENDBRANCH   4  22
TORSDOF 2
ENDMDL
MODEL 7
REMARK VINA RESULT:      -7.8      3.106      7.352
REMARK  Name = 
REMARK  3 active torsions:
REMARK  status: ('A' for Active; 'I' for Inactive)
REMARK    1  A    between atoms: C_1  and  N_2
REMARK    2  A    between atoms: C_7  and  C_8
REMARK    3  A    between atoms: N_11  and  O_12
REMARK                            x       y       z     vdW  Elec       q    Type
REMARK                         _______ _______ _______ _____ _____    ______ ____
ROOT
ATOM      1  C   UNL     1       3.942   4.947  17.435  0.00  0.00    +0.000 A 
ATOM      2  C   UNL     1       4.122   5.931  18.332  0.00  0.00    +0.000 A 
ATOM      3  C   UNL     1       3.005   6.087  19.254  0.00  0.00    +0.000 A 
ATOM      4  N   UNL     1       2.267   7.139  19.398  0.00  0.00    +0.000 NA
ATOM      5  C   UNL     1       2.564   4.804  19.771  0.00  0.00    +0.000 A 
ATOM      6  C   UNL     1       2.327   4.515  21.103  0.00  0.00    +0.000 A 
ATOM      7  C   UNL     1       1.629   3.347  21.397  0.00  0.00    +0.000 A 
ATOM      8  C   UNL     1       1.100   2.568  20.355  0.00  0.00    +0.000 A 
ATOM      9  C   UNL     1       1.417   2.844  19.016  0.00  0.00    +0.000 A 
ATOM     10  C   UNL     1       2.257   3.911  18.738  0.00  0.00    +0.000 A 
ATOM     11  O   UNL     1       2.828   4.075  17.479  0.00  0.00    +0.000 OA
ENDROOT
BRANCH   1  18
ATOM     12  C   UNL     1       8.699   5.752  12.958  0.00  0.00    +0.000 C 
ATOM     13  N   UNL     1       7.528   4.940  13.210  0.00  0.00    +0.000 N 
ATOM     14  C   UNL     1       6.985   4.039  12.335  0.00  0.00    +0.000 A 
ATOM     15  C   UNL     1       5.858   3.509  12.924  0.00  0.00    +0.000 A 
ATOM     16  C   UNL     1       5.693   4.123  14.193  0.00  0.00    +0.000 A 
ATOM     17  C   UNL     1       4.738   4.019  15.216  0.00  0.00    +0.000 A 
ATOM     18  C   UNL     1       4.915   4.833  16.326  0.00  0.00    +0.000 A 
ATOM     19  N   UNL     1       6.004   5.642  16.472  0.00  0.00    +0.000 NA
ATOM     20  C   UNL     1       6.930   5.743  15.503  0.00  0.00    +0.000 A 
ATOM     21  C   UNL     1       6.775   4.995  14.355  0.00  0.00    +0.000 A 
ENDBRANCH   1  18
BRANCH   4  22
ATOM     22  O   UNL     1       2.643   8.130  18.473  0.00  0.00    +0.000 OA
ATOM     23  H   UNL     1       3.525   8.395  18.800  0.00  0.00    +0.000 HD
ENDBRANCH   4  22
TORSDOF 2
ENDMDL
MODEL 8
REMARK VINA RESULT:      -7.7      2.512      3.990
REMARK  Name = 
REMARK  3 active torsions:
REMARK  status: ('A' for Active; 'I' for Inactive)
REMARK    1  A    between atoms: C_1  and  N_2
REMARK    2  A    between atoms: C_7  and  C_8
REMARK    3  A    between atoms: N_11  and  O_12
REMARK                            x       y       z     vdW  Elec       q    Type
REMARK                         _______ _______ _______ _____ _____    ______ ____
ROOT
ATOM      1  C   UNL     1       1.960   7.384  19.420  0.00  0.00    +0.000 A 
ATOM      2  C   UNL     1       2.429   7.176  18.177  0.00  0.00    +0.000 A 
ATOM      3  C   UNL     1       3.013   5.854  17.993  0.00  0.00    +0.000 A 
ATOM      4  N   UNL     1       4.236   5.592  17.669  0.00  0.00    +0.000 NA
ATOM      5  C   UNL     1       2.164   4.819  18.555  0.00  0.00    +0.000 A 
ATOM      6  C   UNL     1       1.794   3.649  17.913  0.00  0.00    +0.000 A 
ATOM      7  C   UNL     1       1.234   2.637  18.687  0.00  0.00    +0.000 A 
ATOM      8  C   UNL     1       1.163   2.782  20.081  0.00  0.00    +0.000 A 
ATOM      9  C   UNL     1       1.476   4.004  20.697  0.00  0.00    +0.000 A 
ATOM     10  C   UNL     1       1.870   5.067  19.901  0.00  0.00    +0.000 A 
ATOM     11  O   UNL     1       1.929   6.365  20.400  0.00  0.00    +0.000 OA
ENDROOT
BRANCH   1  18
ATOM     12  C   UNL     1      -0.525  12.822  22.173  0.00  0.00    +0.000 C 
ATOM     13  N   UNL     1      -0.006  12.347  20.908  0.00  0.00    +0.000 N 
ATOM     14  C   UNL     1      -0.016  13.050  19.734  0.00  0.00    +0.000 A 
ATOM     15  C   UNL     1       0.519  12.240  18.757  0.00  0.00    +0.000 A 
ATOM     16  C   UNL     1       0.848  10.992  19.348  0.00  0.00    +0.000 A 
ATOM     17  C   UNL     1       1.384   9.789  18.865  0.00  0.00    +0.000 A 
ATOM     18  C   UNL     1       1.533   8.756  19.779  0.00  0.00    +0.000 A 
ATOM     19  N   UNL     1       1.255   8.910  21.106  0.00  0.00    +0.000 NA
ATOM     20  C   UNL     1       0.750  10.060  21.583  0.00  0.00    +0.000 A 
ATOM     21  C   UNL     1       0.533  11.102  20.706  0.00  0.00    +0.000 A 
ENDBRANCH   1  18
BRANCH   4  22
ATOM     22  O   UNL     1       4.983   6.781  17.578  0.00  0.00    +0.000 OA
ATOM     23  H   UNL     1       5.859   6.455  17.296  0.00  0.00    +0.000 HD
ENDBRANCH   4  22
TORSDOF 2
ENDMDL
MODEL 9
REMARK VINA RESULT:      -7.7      2.173      3.491
REMARK  Name = 
REMARK  3 active torsions:
REMARK  status: ('A' for Active; 'I' for Inactive)
REMARK    1  A    between atoms: C_1  and  N_2
REMARK    2  A    between atoms: C_7  and  C_8
REMARK    3  A    between atoms: N_11  and  O_12
REMARK                            x       y       z     vdW  Elec       q    Type
REMARK                         _______ _______ _______ _____ _____    ______ ____
ROOT
ATOM      1  C   UNL     1       2.362   6.883  19.272  0.00  0.00    +0.000 A 
ATOM      2  C   UNL     1       2.861   6.938  18.025  0.00  0.00    +0.000 A 
ATOM      3  C   UNL     1       3.647   5.766  17.663  0.00  0.00    +0.000 A 
ATOM      4  N   UNL     1       4.898   5.748  17.337  0.00  0.00    +0.000 NA
ATOM      5  C   UNL     1       2.971   4.539  18.044  0.00  0.00    +0.000 A 
ATOM      6  C   UNL     1       2.791   3.436  17.227  0.00  0.00    +0.000 A 
ATOM      7  C   UNL     1       2.396   2.244  17.829  0.00  0.00    +0.000 A 
ATOM      8  C   UNL     1       2.298   2.166  19.227  0.00  0.00    +0.000 A 
ATOM      9  C   UNL     1       2.413   3.316  20.024  0.00  0.00    +0.000 A 
ATOM     10  C   UNL     1       2.637   4.534  19.403  0.00  0.00    +0.000 A 
ATOM     11  O   UNL     1       2.490   5.736  20.090  0.00  0.00    +0.000 OA
ENDROOT
BRANCH   1  18
ATOM     12  C   UNL     1      -0.911  11.405  22.758  0.00  0.00    +0.000 C 
ATOM     13  N   UNL     1      -0.358  11.198  21.437  0.00  0.00    +0.000 N 
ATOM     14  C   UNL     1      -0.519  12.040  20.370  0.00  0.00    +0.000 A 
ATOM     15  C   UNL     1       0.115  11.470  19.288  0.00  0.00    +0.000 A 
ATOM     16  C   UNL     1       0.663  10.228  19.701  0.00  0.00    +0.000 A 
ATOM     17  C   UNL     1       1.378   9.208  19.054  0.00  0.00    +0.000 A 
ATOM     18  C   UNL     1       1.724   8.102  19.818  0.00  0.00    +0.000 A 
ATOM     19  N   UNL     1       1.463   8.028  21.155  0.00  0.00    +0.000 NA
ATOM     20  C   UNL     1       0.788   9.002  21.788  0.00  0.00    +0.000 A 
ATOM     21  C   UNL     1       0.375  10.101  21.063  0.00  0.00    +0.000 A 
ENDBRANCH   1  18
BRANCH   4  22
ATOM     22  O   UNL     1       5.448   7.039  17.442  0.00  0.00    +0.000 OA
ATOM     23  H   UNL     1       6.245   6.971  16.881  0.00  0.00    +0.000 HD
ENDBRANCH   4  22
TORSDOF 2
ENDMDL
