MODEL 1
REMARK VINA RESULT:      -7.3      0.000      0.000
REMARK  Name = 
REMARK  6 active torsions:
REMARK  status: ('A' for Active; 'I' for Inactive)
REMARK    1  A    between atoms: C_1  and  N_2
REMARK    2  A    between atoms: N_2  and  C_3
REMARK    3  A    between atoms: N_2  and  C_4
REMARK    4  A    between atoms: C_4  and  C_5
REMARK    5  A    between atoms: C_5  and  N_6
REMARK    6  A    between atoms: C_7  and  C_9
REMARK                            x       y       z     vdW  Elec       q    Type
REMARK                         _______ _______ _______ _____ _____    ______ ____
ROOT
ATOM      1  C   UNL     1       5.579   5.203  16.133  0.00  0.00    +0.000 A 
ATOM      2  C   UNL     1       5.023   6.320  16.736  0.00  0.00    +0.000 A 
ATOM      3  C   UNL     1       3.985   5.982  17.658  0.00  0.00    +0.000 A 
ATOM      4  C   UNL     1       3.806   4.622  17.736  0.00  0.00    +0.000 A 
ATOM      5  S   UNL     1       4.861   3.765  16.728  0.00  0.00    +0.000 S 
ATOM      6  C   UNL     1       2.796   4.036  18.599  0.00  0.00    +0.000 A 
ATOM      7  C   UNL     1       2.564   2.657  18.702  0.00  0.00    +0.000 A 
ATOM      8  C   UNL     1       1.557   2.174  19.541  0.00  0.00    +0.000 A 
ATOM      9  C   UNL     1       0.781   3.061  20.282  0.00  0.00    +0.000 A 
ATOM     10  C   UNL     1       1.010   4.434  20.191  0.00  0.00    +0.000 A 
ATOM     11  C   UNL     1       2.014   4.928  19.353  0.00  0.00    +0.000 A 
ATOM     12  O   UNL     1       2.159   6.292  19.344  0.00  0.00    +0.000 OA
ATOM     13  C   UNL     1       3.134   6.905  18.465  0.00  0.00    +0.000 C 
ENDROOT
BRANCH   1  15
ATOM     14  N   UNL     1       6.384   4.401  14.018  0.00  0.00    +0.000 N 
ATOM     15  C   UNL     1       6.637   5.172  15.132  0.00  0.00    +0.000 C 
ATOM     16  O   UNL     1       7.688   5.799  15.254  0.00  0.00    +0.000 OA
ATOM     17  H   UNL     1       5.445   4.047  13.876  0.00  0.00    +0.000 HD
BRANCH  14  18
ATOM     18  C   UNL     1       7.307   4.328  12.906  0.00  0.00    +0.000 C 
BRANCH  18  19
ATOM     19  C   UNL     1       6.659   3.711  11.653  0.00  0.00    +0.000 C 
BRANCH  19  21
ATOM     20  C   UNL     1       4.297   3.141  11.454  0.00  0.00    +0.000 C 
ATOM     21  N   UNL     1       5.612   2.701  11.932  0.00  0.00    +0.000 NA
ATOM     22  C   UNL     1       5.962   1.434  11.277  0.00  0.00    +0.000 C 
ENDBRANCH  19  21
ENDBRANCH  18  19
ENDBRANCH  14  18
ENDBRANCH   1  15
TORSDOF 4
ENDMDL
MODEL 2
REMARK VINA RESULT:      -6.9      4.684      6.768
REMARK  Name = 
REMARK  6 active torsions:
REMARK  status: ('A' for Active; 'I' for Inactive)
REMARK    1  A    between atoms: C_1  and  N_2
REMARK    2  A    between atoms: N_2  and  C_3
REMARK    3  A    between atoms: N_2  and  C_4
REMARK    4  A    between atoms: C_4  and  C_5
REMARK    5  A    between atoms: C_5  and  N_6
REMARK    6  A    between atoms: C_7  and  C_9
REMARK                            x       y       z     vdW  Elec       q    Type
REMARK                         _______ _______ _______ _____ _____    ______ ____
ROOT
ATOM      1  C   UNL     1       2.653   6.950  18.890  0.00  0.00    +0.000 A 
ATOM      2  C   UNL     1       2.386   8.068  18.117  0.00  0.00    +0.000 A 
ATOM      3  C   UNL     1       1.617   9.046  18.821  0.00  0.00    +0.000 A 
ATOM      4  C   UNL     1       1.347   8.642  20.107  0.00  0.00    +0.000 A 
ATOM      5  S   UNL     1       2.003   7.125  20.466  0.00  0.00    +0.000 S 
ATOM      6  C   UNL     1       0.566   9.464  21.014  0.00  0.00    +0.000 A 
ATOM      7  C   UNL     1       0.251   9.091  22.328  0.00  0.00    +0.000 A 
ATOM      8  C   UNL     1      -0.524   9.930  23.132  0.00  0.00    +0.000 A 
ATOM      9  C   UNL     1      -0.985  11.145  22.630  0.00  0.00    +0.000 A 
ATOM     10  C   UNL     1      -0.669  11.528  21.327  0.00  0.00    +0.000 A 
ATOM     11  C   UNL     1       0.104  10.694  20.514  0.00  0.00    +0.000 A 
ATOM     12  O   UNL     1       0.360  11.169  19.253  0.00  0.00    +0.000 OA
ATOM     13  C   UNL     1       1.105  10.353  18.315  0.00  0.00    +0.000 C 
ENDROOT
BRANCH   1  15
ATOM     14  N   UNL     1       4.116   5.143  19.492  0.00  0.00    +0.000 N 
ATOM     15  C   UNL     1       3.388   5.756  18.494  0.00  0.00    +0.000 C 
ATOM     16  O   UNL     1       3.360   5.304  17.351  0.00  0.00    +0.000 OA
ATOM     17  H   UNL     1       3.973   5.442  20.450  0.00  0.00    +0.000 HD
BRANCH  14  18
ATOM     18  C   UNL     1       4.838   3.910  19.272  0.00  0.00    +0.000 C 
BRANCH  18  19
ATOM     19  C   UNL     1       4.057   2.681  19.771  0.00  0.00    +0.000 C 
BRANCH  19  21
ATOM     20  C   UNL     1       1.743   2.063  19.312  0.00  0.00    +0.000 C 
ATOM     21  N   UNL     1       2.632   2.940  20.083  0.00  0.00    +0.000 NA
ATOM     22  C   UNL     1       2.394   2.724  21.516  0.00  0.00    +0.000 C 
ENDBRANCH  19  21
ENDBRANCH  18  19
ENDBRANCH  14  18
ENDBRANCH   1  15
TORSDOF 4
ENDMDL
MODEL 3
REMARK VINA RESULT:      -6.8      4.248      6.154
REMARK  Name = 
REMARK  6 active torsions:
REMARK  status: ('A' for Active; 'I' for Inactive)
REMARK    1  A    between atoms: C_1  and  N_2
REMARK    2  A    between atoms: N_2  and  C_3
REMARK    3  A    between atoms: N_2  and  C_4
REMARK    4  A    between atoms: C_4  and  C_5
REMARK    5  A    between atoms: C_5  and  N_6
REMARK    6  A    between atoms: C_7  and  C_9
REMARK                            x       y       z     vdW  Elec       q    Type
REMARK                         _______ _______ _______ _____ _____    ______ ____
ROOT
ATOM      1  C   UNL     1       2.525   7.201  18.849  0.00  0.00    +0.000 A 
ATOM      2  C   UNL     1       2.217   8.332  18.112  0.00  0.00    +0.000 A 
ATOM      3  C   UNL     1       1.437   9.272  18.856  0.00  0.00    +0.000 A 
ATOM      4  C   UNL     1       1.201   8.826  20.134  0.00  0.00    +0.000 A 
ATOM      5  S   UNL     1       1.900   7.316  20.440  0.00  0.00    +0.000 S 
ATOM      6  C   UNL     1       0.417   9.603  21.077  0.00  0.00    +0.000 A 
ATOM      7  C   UNL     1       0.134   9.187  22.386  0.00  0.00    +0.000 A 
ATOM      8  C   UNL     1      -0.646   9.984  23.226  0.00  0.00    +0.000 A 
ATOM      9  C   UNL     1      -1.144  11.201  22.767  0.00  0.00    +0.000 A 
ATOM     10  C   UNL     1      -0.862  11.627  21.469  0.00  0.00    +0.000 A 
ATOM     11  C   UNL     1      -0.084  10.834  20.620  0.00  0.00    +0.000 A 
ATOM     12  O   UNL     1       0.138  11.351  19.368  0.00  0.00    +0.000 OA
ATOM     13  C   UNL     1       0.886  10.580  18.396  0.00  0.00    +0.000 C 
ENDROOT
BRANCH   1  15
ATOM     14  N   UNL     1       4.034   6.210  17.266  0.00  0.00    +0.000 N 
ATOM     15  C   UNL     1       3.281   6.036  18.407  0.00  0.00    +0.000 C 
ATOM     16  O   UNL     1       3.267   4.964  19.010  0.00  0.00    +0.000 OA
ATOM     17  H   UNL     1       4.157   7.149  16.903  0.00  0.00    +0.000 HD
BRANCH  14  18
ATOM     18  C   UNL     1       4.894   5.170  16.744  0.00  0.00    +0.000 C 
BRANCH  18  19
ATOM     19  C   UNL     1       6.085   5.742  15.954  0.00  0.00    +0.000 C 
BRANCH  19  21
ATOM     20  C   UNL     1       7.459   7.023  17.509  0.00  0.00    +0.000 C 
ATOM     21  N   UNL     1       7.359   5.797  16.709  0.00  0.00    +0.000 NA
ATOM     22  C   UNL     1       7.455   4.633  17.599  0.00  0.00    +0.000 C 
ENDBRANCH  19  21
ENDBRANCH  18  19
ENDBRANCH  14  18
ENDBRANCH   1  15
TORSDOF 4
ENDMDL
MODEL 4
REMARK VINA RESULT:      -6.8      4.627      6.771
REMARK  Name = 
REMARK  6 active torsions:
REMARK  status: ('A' for Active; 'I' for Inactive)
REMARK    1  A    between atoms: C_1  and  N_2
REMARK    2  A    between atoms: N_2  and  C_3
REMARK    3  A    between atoms: N_2  and  C_4
REMARK    4  A    between atoms: C_4  and  C_5
REMARK    5  A    between atoms: C_5  and  N_6
REMARK    6  A    between atoms: C_7  and  C_9
REMARK                            x       y       z     vdW  Elec       q    Type
REMARK                         _______ _______ _______ _____ _____    ______ ____
ROOT
ATOM      1  C   UNL     1       2.375   7.107  19.111  0.00  0.00    +0.000 A 
ATOM      2  C   UNL     1       2.217   8.249  18.343  0.00  0.00    +0.000 A 
ATOM      3  C   UNL     1       1.477   9.265  19.023  0.00  0.00    +0.000 A 
ATOM      4  C   UNL     1       1.119   8.864  20.288  0.00  0.00    +0.000 A 
ATOM      5  S   UNL     1       1.660   7.304  20.656  0.00  0.00    +0.000 S 
ATOM      6  C   UNL     1       0.347   9.723  21.168  0.00  0.00    +0.000 A 
ATOM      7  C   UNL     1      -0.056   9.354  22.460  0.00  0.00    +0.000 A 
ATOM      8  C   UNL     1      -0.815  10.231  23.237  0.00  0.00    +0.000 A 
ATOM      9  C   UNL     1      -1.173  11.479  22.733  0.00  0.00    +0.000 A 
ATOM     10  C   UNL     1      -0.770  11.857  21.452  0.00  0.00    +0.000 A 
ATOM     11  C   UNL     1      -0.011  10.985  20.666  0.00  0.00    +0.000 A 
ATOM     12  O   UNL     1       0.337  11.459  19.426  0.00  0.00    +0.000 OA
ATOM     13  C   UNL     1       1.075  10.609  18.513  0.00  0.00    +0.000 C 
ENDROOT
BRANCH   1  15
ATOM     14  N   UNL     1       3.529   5.110  19.776  0.00  0.00    +0.000 N 
ATOM     15  C   UNL     1       3.052   5.873  18.733  0.00  0.00    +0.000 C 
ATOM     16  O   UNL     1       3.184   5.517  17.564  0.00  0.00    +0.000 OA
ATOM     17  H   UNL     1       3.247   5.347  20.721  0.00  0.00    +0.000 HD
BRANCH  14  18
ATOM     18  C   UNL     1       4.159   3.825  19.565  0.00  0.00    +0.000 C 
BRANCH  18  19
ATOM     19  C   UNL     1       3.316   2.664  20.125  0.00  0.00    +0.000 C 
BRANCH  19  21
ATOM     20  C   UNL     1       1.185   2.478  18.955  0.00  0.00    +0.000 C 
ATOM     21  N   UNL     1       2.534   1.922  19.109  0.00  0.00    +0.000 NA
ATOM     22  C   UNL     1       3.227   1.978  17.816  0.00  0.00    +0.000 C 
ENDBRANCH  19  21
ENDBRANCH  18  19
ENDBRANCH  14  18
ENDBRANCH   1  15
TORSDOF 4
ENDMDL
MODEL 5
REMARK VINA RESULT:      -6.8      4.607      6.527
REMARK  Name = 
REMARK  6 active torsions:
REMARK  status: ('A' for Active; 'I' for Inactive)
REMARK    1  A    between atoms: C_1  and  N_2
REMARK    2  A    between atoms: N_2  and  C_3
REMARK    3  A    between atoms: N_2  and  C_4
REMARK    4  A    between atoms: C_4  and  C_5
REMARK    5  A    between atoms: C_5  and  N_6
REMARK    6  A    between atoms: C_7  and  C_9
REMARK                            x       y       z     vdW  Elec       q    Type
REMARK                         _______ _______ _______ _____ _____    ______ ____
ROOT
ATOM      1  C   UNL     1       2.435   7.871  18.522  0.00  0.00    +0.000 A 
ATOM      2  C   UNL     1       1.982   9.034  17.920  0.00  0.00    +0.000 A 
ATOM      3  C   UNL     1       1.167   9.818  18.793  0.00  0.00    +0.000 A 
ATOM      4  C   UNL     1       1.048   9.232  20.031  0.00  0.00    +0.000 A 
ATOM      5  S   UNL     1       1.898   7.773  20.147  0.00  0.00    +0.000 S 
ATOM      6  C   UNL     1       0.255   9.836  21.086  0.00  0.00    +0.000 A 
ATOM      7  C   UNL     1       0.090   9.271  22.358  0.00  0.00    +0.000 A 
ATOM      8  C   UNL     1      -0.708   9.905  23.313  0.00  0.00    +0.000 A 
ATOM      9  C   UNL     1      -1.341  11.107  23.004  0.00  0.00    +0.000 A 
ATOM     10  C   UNL     1      -1.176  11.681  21.744  0.00  0.00    +0.000 A 
ATOM     11  C   UNL     1      -0.381  11.052  20.781  0.00  0.00    +0.000 A 
ATOM     12  O   UNL     1      -0.282  11.705  19.578  0.00  0.00    +0.000 OA
ATOM     13  C   UNL     1       0.473  11.105  18.496  0.00  0.00    +0.000 C 
ENDROOT
BRANCH   1  15
ATOM     14  N   UNL     1       3.092   5.563  18.437  0.00  0.00    +0.000 N 
ATOM     15  C   UNL     1       3.265   6.832  17.928  0.00  0.00    +0.000 C 
ATOM     16  O   UNL     1       4.064   7.055  17.020  0.00  0.00    +0.000 OA
ATOM     17  H   UNL     1       2.306   5.391  19.055  0.00  0.00    +0.000 HD
BRANCH  14  18
ATOM     18  C   UNL     1       3.791   4.415  17.901  0.00  0.00    +0.000 C 
BRANCH  18  19
ATOM     19  C   UNL     1       4.867   3.887  18.867  0.00  0.00    +0.000 C 
BRANCH  19  21
ATOM     20  C   UNL     1       6.404   4.516  17.081  0.00  0.00    +0.000 C 
ATOM     21  N   UNL     1       6.253   4.279  18.522  0.00  0.00    +0.000 NA
ATOM     22  C   UNL     1       6.615   5.502  19.249  0.00  0.00    +0.000 C 
ENDBRANCH  19  21
ENDBRANCH  18  19
ENDBRANCH  14  18
ENDBRANCH   1  15
TORSDOF 4
ENDMDL
MODEL 6
REMARK VINA RESULT:      -6.8      3.683      5.657
REMARK  Name = 
REMARK  6 active torsions:
REMARK  status: ('A' for Active; 'I' for Inactive)
REMARK    1  A    between atoms: C_1  and  N_2
REMARK    2  A    between atoms: N_2  and  C_3
REMARK    3  A    between atoms: N_2  and  C_4
REMARK    4  A    between atoms: C_4  and  C_5
REMARK    5  A    between atoms: C_5  and  N_6
REMARK    6  A    between atoms: C_7  and  C_9
REMARK                            x       y       z     vdW  Elec       q    Type
REMARK                         _______ _______ _______ _____ _____    ______ ____
ROOT
ATOM      1  C   UNL     1       5.715   5.819  17.350  0.00  0.00    +0.000 A 
ATOM      2  C   UNL     1       4.921   5.061  16.504  0.00  0.00    +0.000 A 
ATOM      3  C   UNL     1       3.896   4.355  17.207  0.00  0.00    +0.000 A 
ATOM      4  C   UNL     1       3.938   4.619  18.555  0.00  0.00    +0.000 A 
ATOM      5  S   UNL     1       5.177   5.693  18.972  0.00  0.00    +0.000 S 
ATOM      6  C   UNL     1       3.003   4.004  19.480  0.00  0.00    +0.000 A 
ATOM      7  C   UNL     1       3.014   4.229  20.864  0.00  0.00    +0.000 A 
ATOM      8  C   UNL     1       2.092   3.582  21.689  0.00  0.00    +0.000 A 
ATOM      9  C   UNL     1       1.154   2.713  21.139  0.00  0.00    +0.000 A 
ATOM     10  C   UNL     1       1.130   2.490  19.763  0.00  0.00    +0.000 A 
ATOM     11  C   UNL     1       2.051   3.130  18.928  0.00  0.00    +0.000 A 
ATOM     12  O   UNL     1       1.935   2.845  17.591  0.00  0.00    +0.000 OA
ATOM     13  C   UNL     1       2.879   3.416  16.651  0.00  0.00    +0.000 C 
ENDROOT
BRANCH   1  15
ATOM     14  N   UNL     1       7.014   7.806  17.710  0.00  0.00    +0.000 N 
ATOM     15  C   UNL     1       6.860   6.644  16.985  0.00  0.00    +0.000 C 
ATOM     16  O   UNL     1       7.652   6.330  16.099  0.00  0.00    +0.000 OA
ATOM     17  H   UNL     1       6.448   7.938  18.541  0.00  0.00    +0.000 HD
BRANCH  14  18
ATOM     18  C   UNL     1       8.141   8.692  17.515  0.00  0.00    +0.000 C 
BRANCH  18  19
ATOM     19  C   UNL     1       8.765   9.141  18.849  0.00  0.00    +0.000 C 
BRANCH  19  21
ATOM     20  C   UNL     1       9.411  10.969  20.327  0.00  0.00    +0.000 C 
ATOM     21  N   UNL     1       8.953  10.604  18.982  0.00  0.00    +0.000 NA
ATOM     22  C   UNL     1       9.940  11.066  17.997  0.00  0.00    +0.000 C 
ENDBRANCH  19  21
ENDBRANCH  18  19
ENDBRANCH  14  18
ENDBRANCH   1  15
TORSDOF 4
ENDMDL
MODEL 7
REMARK VINA RESULT:      -6.8      4.535      6.337
REMARK  Name = 
REMARK  6 active torsions:
REMARK  status: ('A' for Active; 'I' for Inactive)
REMARK    1  A    between atoms: C_1  and  N_2
REMARK    2  A    between atoms: N_2  and  C_3
REMARK    3  A    between atoms: N_2  and  C_4
REMARK    4  A    between atoms: C_4  and  C_5
REMARK    5  A    between atoms: C_5  and  N_6
REMARK    6  A    between atoms: C_7  and  C_9
REMARK                            x       y       z     vdW  Elec       q    Type
REMARK                         _______ _______ _______ _____ _____    ______ ____
ROOT
ATOM      1  C   UNL     1       2.289   7.903  18.586  0.00  0.00    +0.000 A 
ATOM      2  C   UNL     1       1.922   9.102  17.997  0.00  0.00    +0.000 A 
ATOM      3  C   UNL     1       1.145   9.923  18.871  0.00  0.00    +0.000 A 
ATOM      4  C   UNL     1       0.968   9.326  20.096  0.00  0.00    +0.000 A 
ATOM      5  S   UNL     1       1.719   7.814  20.200  0.00  0.00    +0.000 S 
ATOM      6  C   UNL     1       0.198   9.963  21.149  0.00  0.00    +0.000 A 
ATOM      7  C   UNL     1      -0.024   9.389  22.409  0.00  0.00    +0.000 A 
ATOM      8  C   UNL     1      -0.795  10.058  23.362  0.00  0.00    +0.000 A 
ATOM      9  C   UNL     1      -1.344  11.304  23.065  0.00  0.00    +0.000 A 
ATOM     10  C   UNL     1      -1.121  11.886  21.817  0.00  0.00    +0.000 A 
ATOM     11  C   UNL     1      -0.353  11.222  20.856  0.00  0.00    +0.000 A 
ATOM     12  O   UNL     1      -0.191  11.887  19.666  0.00  0.00    +0.000 OA
ATOM     13  C   UNL     1       0.541  11.258  18.586  0.00  0.00    +0.000 C 
ENDROOT
BRANCH   1  15
ATOM     14  N   UNL     1       4.146   7.209  17.232  0.00  0.00    +0.000 N 
ATOM     15  C   UNL     1       3.060   6.822  17.986  0.00  0.00    +0.000 C 
ATOM     16  O   UNL     1       2.779   5.635  18.144  0.00  0.00    +0.000 OA
ATOM     17  H   UNL     1       4.444   8.178  17.272  0.00  0.00    +0.000 HD
BRANCH  14  18
ATOM     18  C   UNL     1       5.050   6.252  16.633  0.00  0.00    +0.000 C 
BRANCH  18  19
ATOM     19  C   UNL     1       6.521   6.543  16.981  0.00  0.00    +0.000 C 
BRANCH  19  21
ATOM     20  C   UNL     1       7.689   4.502  17.627  0.00  0.00    +0.000 C 
ATOM     21  N   UNL     1       7.476   5.491  16.563  0.00  0.00    +0.000 NA
ATOM     22  C   UNL     1       6.964   4.807  15.369  0.00  0.00    +0.000 C 
ENDBRANCH  19  21
ENDBRANCH  18  19
ENDBRANCH  14  18
ENDBRANCH   1  15
TORSDOF 4
ENDMDL
MODEL 8
REMARK VINA RESULT:      -6.8      4.430      6.518
REMARK  Name = 
REMARK  6 active torsions:
REMARK  status: ('A' for Active; 'I' for Inactive)
REMARK    1  A    between atoms: C_1  and  N_2
REMARK    2  A    between atoms: N_2  and  C_3
REMARK    3  A    between atoms: N_2  and  C_4
REMARK    4  A    between atoms: C_4  and  C_5
REMARK    5  A    between atoms: C_5  and  N_6
REMARK    6  A    between atoms: C_7  and  C_9
REMARK                            x       y       z     vdW  Elec       q    Type
REMARK                         _______ _______ _______ _____ _____    ______ ____
ROOT
ATOM      1  C   UNL     1       2.515   7.285  18.605  0.00  0.00    +0.000 A 
ATOM      2  C   UNL     1       2.137   8.434  17.930  0.00  0.00    +0.000 A 
ATOM      3  C   UNL     1       1.377   9.324  18.750  0.00  0.00    +0.000 A 
ATOM      4  C   UNL     1       1.224   8.826  20.022  0.00  0.00    +0.000 A 
ATOM      5  S   UNL     1       1.977   7.326  20.232  0.00  0.00    +0.000 S 
ATOM      6  C   UNL     1       0.474   9.546  21.036  0.00  0.00    +0.000 A 
ATOM      7  C   UNL     1       0.276   9.075  22.341  0.00  0.00    +0.000 A 
ATOM      8  C   UNL     1      -0.476   9.819  23.252  0.00  0.00    +0.000 A 
ATOM      9  C   UNL     1      -1.031  11.038  22.867  0.00  0.00    +0.000 A 
ATOM     10  C   UNL     1      -0.832  11.518  21.573  0.00  0.00    +0.000 A 
ATOM     11  C   UNL     1      -0.083  10.779  20.654  0.00  0.00    +0.000 A 
ATOM     12  O   UNL     1       0.056  11.347  19.412  0.00  0.00    +0.000 OA
ATOM     13  C   UNL     1       0.767  10.632  18.371  0.00  0.00    +0.000 C 
ENDROOT
BRANCH   1  15
ATOM     14  N   UNL     1       2.563   4.995  17.888  0.00  0.00    +0.000 N 
ATOM     15  C   UNL     1       3.275   6.159  18.079  0.00  0.00    +0.000 C 
ATOM     16  O   UNL     1       4.471   6.231  17.806  0.00  0.00    +0.000 OA
ATOM     17  H   UNL     1       1.551   5.027  17.957  0.00  0.00    +0.000 HD
BRANCH  14  18
ATOM     18  C   UNL     1       3.160   3.813  17.305  0.00  0.00    +0.000 C 
BRANCH  18  19
ATOM     19  C   UNL     1       2.409   2.528  17.698  0.00  0.00    +0.000 C 
BRANCH  19  21
ATOM     20  C   UNL     1       4.084   2.461  19.469  0.00  0.00    +0.000 C 
ATOM     21  N   UNL     1       2.767   1.985  19.029  0.00  0.00    +0.000 NA
ATOM     22  C   UNL     1       1.757   2.390  20.015  0.00  0.00    +0.000 C 
ENDBRANCH  19  21
ENDBRANCH  18  19
ENDBRANCH  14  18
ENDBRANCH   1  15
TORSDOF 4
ENDMDL
MODEL 9
REMARK VINA RESULT:      -6.7      1.317      2.314
REMARK  Name = 
REMARK  6 active torsions:
REMARK  status: ('A' for Active; 'I' for Inactive)
REMARK    1  A    between atoms: C_1  and  N_2
REMARK    2  A    between atoms: N_2  and  C_3
REMARK    3  A    between atoms: N_2  and  C_4
REMARK    4  A    between atoms: C_4  and  C_5
REMARK    5  A    between atoms: C_5  and  N_6
REMARK    6  A    between atoms: C_7  and  C_9
REMARK                            x       y       z     vdW  Elec       q    Type
REMARK                         _______ _______ _______ _____ _____    ______ ____
ROOT
ATOM      1  C   UNL     1       5.749   4.934  16.106  0.00  0.00    +0.000 A 
ATOM      2  C   UNL     1       5.325   3.780  16.746  0.00  0.00    +0.000 A 
ATOM      3  C   UNL     1       4.364   4.046  17.770  0.00  0.00    +0.000 A 
ATOM      4  C   UNL     1       4.080   5.388  17.854  0.00  0.00    +0.000 A 
ATOM      5  S   UNL     1       4.942   6.311  16.729  0.00  0.00    +0.000 S 
ATOM      6  C   UNL     1       3.140   5.906  18.832  0.00  0.00    +0.000 A 
ATOM      7  C   UNL     1       2.828   7.266  18.969  0.00  0.00    +0.000 A 
ATOM      8  C   UNL     1       1.928   7.687  19.950  0.00  0.00    +0.000 A 
ATOM      9  C   UNL     1       1.333   6.754  20.796  0.00  0.00    +0.000 A 
ATOM     10  C   UNL     1       1.631   5.398  20.662  0.00  0.00    +0.000 A 
ATOM     11  C   UNL     1       2.533   4.968  19.685  0.00  0.00    +0.000 A 
ATOM     12  O   UNL     1       2.750   3.614  19.635  0.00  0.00    +0.000 OA
ATOM     13  C   UNL     1       3.710   3.074  18.694  0.00  0.00    +0.000 C 
ENDROOT
BRANCH   1  15
ATOM     14  N   UNL     1       6.466   4.298  13.904  0.00  0.00    +0.000 N 
ATOM     15  C   UNL     1       6.731   5.041  15.034  0.00  0.00    +0.000 C 
ATOM     16  O   UNL     1       7.728   5.755  15.114  0.00  0.00    +0.000 OA
ATOM     17  H   UNL     1       5.553   3.866  13.810  0.00  0.00    +0.000 HD
BRANCH  14  18
ATOM     18  C   UNL     1       7.308   4.356  12.730  0.00  0.00    +0.000 C 
BRANCH  18  19
ATOM     19  C   UNL     1       6.675   3.639  11.524  0.00  0.00    +0.000 C 
BRANCH  19  21
ATOM     20  C   UNL     1       4.309   3.090  11.307  0.00  0.00    +0.000 C 
ATOM     21  N   UNL     1       5.600   2.680  11.870  0.00  0.00    +0.000 NA
ATOM     22  C   UNL     1       5.945   1.347  11.359  0.00  0.00    +0.000 C 
ENDBRANCH  19  21
ENDBRANCH  18  19
ENDBRANCH  14  18
ENDBRANCH   1  15
TORSDOF 4
ENDMDL
