MODEL 1
REMARK VINA RESULT:      -9.0      0.000      0.000
REMARK  Name = 
REMARK  6 active torsions:
REMARK  status: ('A' for Active; 'I' for Inactive)
REMARK    1  A    between atoms: C_1  and  O_2
REMARK    2  A    between atoms: O_2  and  C_3
REMARK    3  A    between atoms: C_6  and  C_7
REMARK    4  A    between atoms: C_19  and  N_20
REMARK    5  A    between atoms: N_20  and  S_21
REMARK    6  A    between atoms: S_21  and  C_24
REMARK                            x       y       z     vdW  Elec       q    Type
REMARK                         _______ _______ _______ _____ _____    ______ ____
ROOT
ATOM      1  C   UNL     1       3.712   3.572  19.267  0.00  0.00    +0.000 A 
ATOM      2  N   UNL     1       2.385   3.797  19.254  0.00  0.00    +0.000 NA
ATOM      3  C   UNL     1       1.994   5.088  19.103  0.00  0.00    +0.000 A 
ATOM      4  C   UNL     1       2.840   6.200  18.977  0.00  0.00    +0.000 A 
ATOM      5  C   UNL     1       4.208   5.896  18.929  0.00  0.00    +0.000 A 
ATOM      6  C   UNL     1       4.659   4.583  19.092  0.00  0.00    +0.000 A 
ENDROOT
BRANCH   4   7
ATOM      7  C   UNL     1       2.330   7.593  19.026  0.00  0.00    +0.000 A 
ATOM      8  C   UNL     1       2.296   8.390  17.872  0.00  0.00    +0.000 A 
ATOM      9  C   UNL     1       1.777   9.685  17.874  0.00  0.00    +0.000 A 
ATOM     10  C   UNL     1       1.048  10.145  18.944  0.00  0.00    +0.000 A 
ATOM     11  N   UNL     1       0.367  11.285  18.770  0.00  0.00    +0.000 NA
ATOM     12  C   UNL     1      -0.588  11.586  19.667  0.00  0.00    +0.000 A 
ATOM     13  C   UNL     1      -0.860  10.817  20.775  0.00  0.00    +0.000 A 
ATOM     14  C   UNL     1      -0.053   9.709  21.009  0.00  0.00    +0.000 A 
ATOM     15 CL   UNL     1      -0.462   8.712  22.366  0.00  0.00    +0.000 Cl
ATOM     16  C   UNL     1       0.941   9.333  20.084  0.00  0.00    +0.000 A 
ATOM     17  C   UNL     1       1.721   8.148  20.168  0.00  0.00    +0.000 A 
ENDBRANCH   4   7
BRANCH   1  19
ATOM     18  C   UNL     1       3.647   1.334  18.543  0.00  0.00    +0.000 C 
ATOM     19  O   UNL     1       4.175   2.287  19.457  0.00  0.00    +0.000 OA
ENDBRANCH   1  19
BRANCH   6  20
ATOM     20  N   UNL     1       6.061   4.330  19.147  0.00  0.00    +0.000 N 
ATOM     21  H   UNL     1       6.401   3.518  19.648  0.00  0.00    +0.000 HD
BRANCH  20  22
ATOM     22  S   UNL     1       6.975   4.685  17.768  0.00  0.00    +0.000 S 
ATOM     23  O   UNL     1       8.222   3.965  17.895  0.00  0.00    +0.000 OA
ATOM     24  O   UNL     1       6.129   4.485  16.607  0.00  0.00    +0.000 OA
BRANCH  22  25
ATOM     25  C   UNL     1       7.337   6.405  17.894  0.00  0.00    +0.000 A 
ATOM     26  C   UNL     1       8.325   6.855  18.781  0.00  0.00    +0.000 A 
ATOM     27  C   UNL     1       8.634   8.214  18.818  0.00  0.00    +0.000 A 
ATOM     28  C   UNL     1       7.972   9.097  17.973  0.00  0.00    +0.000 A 
ATOM     29  F   UNL     1       8.288  10.399  18.000  0.00  0.00    +0.000 F 
ATOM     30  C   UNL     1       6.982   8.654  17.104  0.00  0.00    +0.000 A 
ATOM     31  C   UNL     1       6.661   7.303  17.080  0.00  0.00    +0.000 A 
ATOM     32  F   UNL     1       5.724   6.886  16.219  0.00  0.00    +0.000 F 
ENDBRANCH  22  25
ENDBRANCH  20  22
ENDBRANCH   6  20
TORSDOF 5
ENDMDL
MODEL 2
REMARK VINA RESULT:      -8.9      3.215      5.294
REMARK  Name = 
REMARK  6 active torsions:
REMARK  status: ('A' for Active; 'I' for Inactive)
REMARK    1  A    between atoms: C_1  and  O_2
REMARK    2  A    between atoms: O_2  and  C_3
REMARK    3  A    between atoms: C_6  and  C_7
REMARK    4  A    between atoms: C_19  and  N_20
REMARK    5  A    between atoms: N_20  and  S_21
REMARK    6  A    between atoms: S_21  and  C_24
REMARK                            x       y       z     vdW  Elec       q    Type
REMARK                         _______ _______ _______ _____ _____    ______ ____
ROOT
ATOM      1  C   UNL     1       5.340   5.470  16.426  0.00  0.00    +0.000 A 
ATOM      2  N   UNL     1       5.166   6.771  16.126  0.00  0.00    +0.000 NA
ATOM      3  C   UNL     1       4.322   7.468  16.930  0.00  0.00    +0.000 A 
ATOM      4  C   UNL     1       3.610   6.956  18.025  0.00  0.00    +0.000 A 
ATOM      5  C   UNL     1       3.884   5.615  18.329  0.00  0.00    +0.000 A 
ATOM      6  C   UNL     1       4.736   4.854  17.523  0.00  0.00    +0.000 A 
ENDROOT
BRANCH   4   7
ATOM      7  C   UNL     1       2.555   7.735  18.718  0.00  0.00    +0.000 A 
ATOM      8  C   UNL     1       2.024   7.303  19.942  0.00  0.00    +0.000 A 
ATOM      9  C   UNL     1       1.067   8.037  20.642  0.00  0.00    +0.000 A 
ATOM     10  C   UNL     1       0.787   9.336  20.291  0.00  0.00    +0.000 A 
ATOM     11  N   UNL     1       0.062  10.056  21.157  0.00  0.00    +0.000 NA
ATOM     12  C   UNL     1       0.043  11.391  20.998  0.00  0.00    +0.000 A 
ATOM     13  C   UNL     1       0.680  12.043  19.968  0.00  0.00    +0.000 A 
ATOM     14  C   UNL     1       1.316  11.267  19.004  0.00  0.00    +0.000 A 
ATOM     15 CL   UNL     1       2.176  12.110  17.758  0.00  0.00    +0.000 Cl
ATOM     16  C   UNL     1       1.390   9.867  19.141  0.00  0.00    +0.000 A 
ATOM     17  C   UNL     1       2.130   9.006  18.284  0.00  0.00    +0.000 A 
ENDBRANCH   4   7
BRANCH   1  19
ATOM     18  C   UNL     1       5.557   4.306  14.393  0.00  0.00    +0.000 C 
ATOM     19  O   UNL     1       6.152   4.698  15.623  0.00  0.00    +0.000 OA
ENDBRANCH   1  19
BRANCH   6  20
ATOM     20  N   UNL     1       4.902   3.465  17.802  0.00  0.00    +0.000 N 
ATOM     21  H   UNL     1       5.523   3.178  18.549  0.00  0.00    +0.000 HD
BRANCH  20  22
ATOM     22  S   UNL     1       3.542   2.468  17.654  0.00  0.00    +0.000 S 
ATOM     23  O   UNL     1       2.701   3.057  16.637  0.00  0.00    +0.000 OA
ATOM     24  O   UNL     1       4.003   1.099  17.522  0.00  0.00    +0.000 OA
BRANCH  22  25
ATOM     25  C   UNL     1       2.701   2.619  19.195  0.00  0.00    +0.000 A 
ATOM     26  C   UNL     1       1.338   2.946  19.227  0.00  0.00    +0.000 A 
ATOM     27  C   UNL     1       0.682   2.999  20.456  0.00  0.00    +0.000 A 
ATOM     28  C   UNL     1       1.380   2.717  21.625  0.00  0.00    +0.000 A 
ATOM     29  F   UNL     1       0.738   2.750  22.801  0.00  0.00    +0.000 F 
ATOM     30  C   UNL     1       2.734   2.407  21.596  0.00  0.00    +0.000 A 
ATOM     31  C   UNL     1       3.392   2.372  20.373  0.00  0.00    +0.000 A 
ATOM     32  F   UNL     1       4.691   2.046  20.358  0.00  0.00    +0.000 F 
ENDBRANCH  22  25
ENDBRANCH  20  22
ENDBRANCH   6  20
TORSDOF 5
ENDMDL
MODEL 3
REMARK VINA RESULT:      -8.9      1.198      1.354
REMARK  Name = 
REMARK  6 active torsions:
REMARK  status: ('A' for Active; 'I' for Inactive)
REMARK    1  A    between atoms: C_1  and  O_2
REMARK    2  A    between atoms: O_2  and  C_3
REMARK    3  A    between atoms: C_6  and  C_7
REMARK    4  A    between atoms: C_19  and  N_20
REMARK    5  A    between atoms: N_20  and  S_21
REMARK    6  A    between atoms: S_21  and  C_24
REMARK                            x       y       z     vdW  Elec       q    Type
REMARK                         _______ _______ _______ _____ _____    ______ ____
ROOT
ATOM      1  C   UNL     1       3.298   3.087  19.569  0.00  0.00    +0.000 A 
ATOM      2  N   UNL     1       2.350   3.578  20.389  0.00  0.00    +0.000 NA
ATOM      3  C   UNL     1       1.987   4.870  20.184  0.00  0.00    +0.000 A 
ATOM      4  C   UNL     1       2.517   5.736  19.216  0.00  0.00    +0.000 A 
ATOM      5  C   UNL     1       3.450   5.149  18.350  0.00  0.00    +0.000 A 
ATOM      6  C   UNL     1       3.865   3.826  18.529  0.00  0.00    +0.000 A 
ENDROOT
BRANCH   4   7
ATOM      7  C   UNL     1       2.210   7.188  19.200  0.00  0.00    +0.000 A 
ATOM      8  C   UNL     1       2.338   7.940  18.023  0.00  0.00    +0.000 A 
ATOM      9  C   UNL     1       2.012   9.295  17.963  0.00  0.00    +0.000 A 
ATOM     10  C   UNL     1       1.314   9.893  18.984  0.00  0.00    +0.000 A 
ATOM     11  N   UNL     1       0.812  11.110  18.745  0.00  0.00    +0.000 NA
ATOM     12  C   UNL     1      -0.126  11.577  19.589  0.00  0.00    +0.000 A 
ATOM     13  C   UNL     1      -0.550  10.896  20.706  0.00  0.00    +0.000 A 
ATOM     14  C   UNL     1       0.080   9.693  21.010  0.00  0.00    +0.000 A 
ATOM     15 CL   UNL     1      -0.523   8.814  22.377  0.00  0.00    +0.000 Cl
ATOM     16  C   UNL     1       1.045   9.146  20.142  0.00  0.00    +0.000 A 
ATOM     17  C   UNL     1       1.643   7.865  20.297  0.00  0.00    +0.000 A 
ENDBRANCH   4   7
BRANCH   1  19
ATOM     18  C   UNL     1       4.712   1.647  20.780  0.00  0.00    +0.000 C 
ATOM     19  O   UNL     1       3.741   1.794  19.751  0.00  0.00    +0.000 OA
ENDBRANCH   1  19
BRANCH   6  20
ATOM     20  N   UNL     1       4.896   3.301  17.696  0.00  0.00    +0.000 N 
ATOM     21  H   UNL     1       4.887   2.318  17.453  0.00  0.00    +0.000 HD
BRANCH  20  22
ATOM     22  S   UNL     1       5.469   4.286  16.444  0.00  0.00    +0.000 S 
ATOM     23  O   UNL     1       6.351   3.470  15.641  0.00  0.00    +0.000 OA
ATOM     24  O   UNL     1       4.328   4.947  15.838  0.00  0.00    +0.000 OA
BRANCH  22  25
ATOM     25  C   UNL     1       6.453   5.509  17.244  0.00  0.00    +0.000 A 
ATOM     26  C   UNL     1       7.348   5.142  18.259  0.00  0.00    +0.000 A 
ATOM     27  C   UNL     1       8.159   6.120  18.833  0.00  0.00    +0.000 A 
ATOM     28  C   UNL     1       8.078   7.435  18.388  0.00  0.00    +0.000 A 
ATOM     29  F   UNL     1       8.874   8.366  18.931  0.00  0.00    +0.000 F 
ATOM     30  C   UNL     1       7.180   7.802  17.393  0.00  0.00    +0.000 A 
ATOM     31  C   UNL     1       6.360   6.831  16.833  0.00  0.00    +0.000 A 
ATOM     32  F   UNL     1       5.518   7.194  15.857  0.00  0.00    +0.000 F 
ENDBRANCH  22  25
ENDBRANCH  20  22
ENDBRANCH   6  20
TORSDOF 5
ENDMDL
MODEL 4
REMARK VINA RESULT:      -8.7      1.745      2.683
REMARK  Name = 
REMARK  6 active torsions:
REMARK  status: ('A' for Active; 'I' for Inactive)
REMARK    1  A    between atoms: C_1  and  O_2
REMARK    2  A    between atoms: O_2  and  C_3
REMARK    3  A    between atoms: C_6  and  C_7
REMARK    4  A    between atoms: C_19  and  N_20
REMARK    5  A    between atoms: N_20  and  S_21
REMARK    6  A    between atoms: S_21  and  C_24
REMARK                            x       y       z     vdW  Elec       q    Type
REMARK                         _______ _______ _______ _____ _____    ______ ____
ROOT
ATOM      1  C   UNL     1       3.838   3.891  18.884  0.00  0.00    +0.000 A 
ATOM      2  N   UNL     1       2.540   4.078  18.582  0.00  0.00    +0.000 NA
ATOM      3  C   UNL     1       2.115   5.366  18.521  0.00  0.00    +0.000 A 
ATOM      4  C   UNL     1       2.895   6.508  18.759  0.00  0.00    +0.000 A 
ATOM      5  C   UNL     1       4.252   6.253  19.002  0.00  0.00    +0.000 A 
ATOM      6  C   UNL     1       4.734   4.943  19.085  0.00  0.00    +0.000 A 
ENDROOT
BRANCH   4   7
ATOM      7  C   UNL     1       2.300   7.863  18.875  0.00  0.00    +0.000 A 
ATOM      8  C   UNL     1       2.177   8.696  17.754  0.00  0.00    +0.000 A 
ATOM      9  C   UNL     1       1.579   9.955  17.821  0.00  0.00    +0.000 A 
ATOM     10  C   UNL     1       0.859  10.330  18.929  0.00  0.00    +0.000 A 
ATOM     11  N   UNL     1       0.103  11.429  18.819  0.00  0.00    +0.000 NA
ATOM     12  C   UNL     1      -0.838  11.637  19.756  0.00  0.00    +0.000 A 
ATOM     13  C   UNL     1      -1.024  10.814  20.843  0.00  0.00    +0.000 A 
ATOM     14  C   UNL     1      -0.141   9.752  21.010  0.00  0.00    +0.000 A 
ATOM     15 CL   UNL     1      -0.441   8.684  22.342  0.00  0.00    +0.000 Cl
ATOM     16  C   UNL     1       0.842   9.473  20.041  0.00  0.00    +0.000 A 
ATOM     17  C   UNL     1       1.697   8.337  20.057  0.00  0.00    +0.000 A 
ENDBRANCH   4   7
BRANCH   1  19
ATOM     18  C   UNL     1       3.541   1.623  18.334  0.00  0.00    +0.000 C 
ATOM     19  O   UNL     1       4.323   2.605  19.001  0.00  0.00    +0.000 OA
ENDBRANCH   1  19
BRANCH   6  20
ATOM     20  N   UNL     1       6.096   4.724  19.442  0.00  0.00    +0.000 N 
ATOM     21  H   UNL     1       6.353   3.876  19.932  0.00  0.00    +0.000 HD
BRANCH  20  22
ATOM     22  S   UNL     1       7.284   5.242  18.352  0.00  0.00    +0.000 S 
ATOM     23  O   UNL     1       7.413   6.671  18.522  0.00  0.00    +0.000 OA
ATOM     24  O   UNL     1       8.440   4.379  18.507  0.00  0.00    +0.000 OA
BRANCH  22  25
ATOM     25  C   UNL     1       6.592   4.954  16.758  0.00  0.00    +0.000 A 
ATOM     26  C   UNL     1       6.633   3.672  16.191  0.00  0.00    +0.000 A 
ATOM     27  C   UNL     1       6.025   3.457  14.955  0.00  0.00    +0.000 A 
ATOM     28  C   UNL     1       5.381   4.507  14.310  0.00  0.00    +0.000 A 
ATOM     29  F   UNL     1       4.781   4.289  13.132  0.00  0.00    +0.000 F 
ATOM     30  C   UNL     1       5.352   5.781  14.864  0.00  0.00    +0.000 A 
ATOM     31  C   UNL     1       5.974   5.999  16.087  0.00  0.00    +0.000 A 
ATOM     32  F   UNL     1       5.917   7.226  16.620  0.00  0.00    +0.000 F 
ENDBRANCH  22  25
ENDBRANCH  20  22
ENDBRANCH   6  20
TORSDOF 5
ENDMDL
MODEL 5
REMARK VINA RESULT:      -8.7      1.340      1.619
REMARK  Name = 
REMARK  6 active torsions:
REMARK  status: ('A' for Active; 'I' for Inactive)
REMARK    1  A    between atoms: C_1  and  O_2
REMARK    2  A    between atoms: O_2  and  C_3
REMARK    3  A    between atoms: C_6  and  C_7
REMARK    4  A    between atoms: C_19  and  N_20
REMARK    5  A    between atoms: N_20  and  S_21
REMARK    6  A    between atoms: S_21  and  C_24
REMARK                            x       y       z     vdW  Elec       q    Type
REMARK                         _______ _______ _______ _____ _____    ______ ____
ROOT
ATOM      1  C   UNL     1       3.442   4.057  17.702  0.00  0.00    +0.000 A 
ATOM      2  N   UNL     1       2.263   4.237  18.326  0.00  0.00    +0.000 NA
ATOM      3  C   UNL     1       1.879   5.523  18.530  0.00  0.00    +0.000 A 
ATOM      4  C   UNL     1       2.601   6.671  18.166  0.00  0.00    +0.000 A 
ATOM      5  C   UNL     1       3.786   6.421  17.461  0.00  0.00    +0.000 A 
ATOM      6  C   UNL     1       4.229   5.113  17.238  0.00  0.00    +0.000 A 
ENDROOT
BRANCH   4   7
ATOM      7  C   UNL     1       2.205   8.029  18.613  0.00  0.00    +0.000 A 
ATOM      8  C   UNL     1       2.264   9.123  17.737  0.00  0.00    +0.000 A 
ATOM      9  C   UNL     1       1.853  10.403  18.110  0.00  0.00    +0.000 A 
ATOM     10  C   UNL     1       1.139  10.598  19.267  0.00  0.00    +0.000 A 
ATOM     11  N   UNL     1       0.558  11.793  19.428  0.00  0.00    +0.000 NA
ATOM     12  C   UNL     1      -0.391  11.907  20.373  0.00  0.00    +0.000 A 
ATOM     13  C   UNL     1      -0.752  10.879  21.214  0.00  0.00    +0.000 A 
ATOM     14  C   UNL     1      -0.044   9.685  21.121  0.00  0.00    +0.000 A 
ATOM     15 CL   UNL     1      -0.565   8.381  22.135  0.00  0.00    +0.000 Cl
ATOM     16  C   UNL     1       0.938   9.507  20.126  0.00  0.00    +0.000 A 
ATOM     17  C   UNL     1       1.616   8.284  19.867  0.00  0.00    +0.000 A 
ENDBRANCH   4   7
BRANCH   1  19
ATOM     18  C   UNL     1       3.452   1.830  18.462  0.00  0.00    +0.000 C 
ATOM     19  O   UNL     1       3.908   2.775  17.501  0.00  0.00    +0.000 OA
ENDBRANCH   1  19
BRANCH   6  20
ATOM     20  N   UNL     1       5.493   4.903  16.614  0.00  0.00    +0.000 N 
ATOM     21  H   UNL     1       5.696   5.360  15.734  0.00  0.00    +0.000 HD
BRANCH  20  22
ATOM     22  S   UNL     1       6.850   4.772  17.617  0.00  0.00    +0.000 S 
ATOM     23  O   UNL     1       6.377   4.305  18.901  0.00  0.00    +0.000 OA
ATOM     24  O   UNL     1       7.868   4.030  16.898  0.00  0.00    +0.000 OA
BRANCH  22  25
ATOM     25  C   UNL     1       7.420   6.425  17.827  0.00  0.00    +0.000 A 
ATOM     26  C   UNL     1       6.972   7.441  16.971  0.00  0.00    +0.000 A 
ATOM     27  C   UNL     1       7.391   8.752  17.196  0.00  0.00    +0.000 A 
ATOM     28  C   UNL     1       8.232   9.034  18.266  0.00  0.00    +0.000 A 
ATOM     29  F   UNL     1       8.615  10.299  18.489  0.00  0.00    +0.000 F 
ATOM     30  C   UNL     1       8.689   8.026  19.107  0.00  0.00    +0.000 A 
ATOM     31  C   UNL     1       8.286   6.718  18.871  0.00  0.00    +0.000 A 
ATOM     32  F   UNL     1       8.713   5.761  19.705  0.00  0.00    +0.000 F 
ENDBRANCH  22  25
ENDBRANCH  20  22
ENDBRANCH   6  20
TORSDOF 5
ENDMDL
MODEL 6
REMARK VINA RESULT:      -8.5      1.400      1.661
REMARK  Name = 
REMARK  6 active torsions:
REMARK  status: ('A' for Active; 'I' for Inactive)
REMARK    1  A    between atoms: C_1  and  O_2
REMARK    2  A    between atoms: O_2  and  C_3
REMARK    3  A    between atoms: C_6  and  C_7
REMARK    4  A    between atoms: C_19  and  N_20
REMARK    5  A    between atoms: N_20  and  S_21
REMARK    6  A    between atoms: S_21  and  C_24
REMARK                            x       y       z     vdW  Elec       q    Type
REMARK                         _______ _______ _______ _____ _____    ______ ____
ROOT
ATOM      1  C   UNL     1       2.829   3.558  17.614  0.00  0.00    +0.000 A 
ATOM      2  N   UNL     1       1.565   3.963  17.838  0.00  0.00    +0.000 NA
ATOM      3  C   UNL     1       1.385   5.293  18.041  0.00  0.00    +0.000 A 
ATOM      4  C   UNL     1       2.390   6.272  18.055  0.00  0.00    +0.000 A 
ATOM      5  C   UNL     1       3.674   5.801  17.750  0.00  0.00    +0.000 A 
ATOM      6  C   UNL     1       3.911   4.438  17.545  0.00  0.00    +0.000 A 
ENDROOT
BRANCH   4   7
ATOM      7  C   UNL     1       2.131   7.667  18.491  0.00  0.00    +0.000 A 
ATOM      8  C   UNL     1       2.265   8.739  17.597  0.00  0.00    +0.000 A 
ATOM      9  C   UNL     1       1.981  10.055  17.962  0.00  0.00    +0.000 A 
ATOM     10  C   UNL     1       1.319  10.330  19.134  0.00  0.00    +0.000 A 
ATOM     11  N   UNL     1       0.852  11.575  19.291  0.00  0.00    +0.000 NA
ATOM     12  C   UNL     1      -0.056  11.786  20.259  0.00  0.00    +0.000 A 
ATOM     13  C   UNL     1      -0.485  10.806  21.124  0.00  0.00    +0.000 A 
ATOM     14  C   UNL     1       0.110   9.552  21.031  0.00  0.00    +0.000 A 
ATOM     15 CL   UNL     1      -0.500   8.313  22.078  0.00  0.00    +0.000 Cl
ATOM     16  C   UNL     1       1.044   9.272  20.014  0.00  0.00    +0.000 A 
ATOM     17  C   UNL     1       1.602   7.990  19.756  0.00  0.00    +0.000 A 
ENDBRANCH   4   7
BRANCH   1  19
ATOM     18  C   UNL     1       3.312   1.501  18.649  0.00  0.00    +0.000 C 
ATOM     19  O   UNL     1       3.084   2.214  17.440  0.00  0.00    +0.000 OA
ENDBRANCH   1  19
BRANCH   6  20
ATOM     20  N   UNL     1       5.248   3.985  17.345  0.00  0.00    +0.000 N 
ATOM     21  H   UNL     1       5.452   2.995  17.402  0.00  0.00    +0.000 HD
BRANCH  20  22
ATOM     22  S   UNL     1       6.179   4.785  16.179  0.00  0.00    +0.000 S 
ATOM     23  O   UNL     1       7.153   3.832  15.697  0.00  0.00    +0.000 OA
ATOM     24  O   UNL     1       5.273   5.437  15.254  0.00  0.00    +0.000 OA
BRANCH  22  25
ATOM     25  C   UNL     1       7.048   6.032  17.070  0.00  0.00    +0.000 A 
ATOM     26  C   UNL     1       7.021   7.363  16.630  0.00  0.00    +0.000 A 
ATOM     27  C   UNL     1       7.665   8.341  17.387  0.00  0.00    +0.000 A 
ATOM     28  C   UNL     1       8.312   7.987  18.565  0.00  0.00    +0.000 A 
ATOM     29  F   UNL     1       8.913   8.935  19.298  0.00  0.00    +0.000 F 
ATOM     30  C   UNL     1       8.353   6.666  18.995  0.00  0.00    +0.000 A 
ATOM     31  C   UNL     1       7.726   5.690  18.231  0.00  0.00    +0.000 A 
ATOM     32  F   UNL     1       7.751   4.425  18.671  0.00  0.00    +0.000 F 
ENDBRANCH  22  25
ENDBRANCH  20  22
ENDBRANCH   6  20
TORSDOF 5
ENDMDL
MODEL 7
REMARK VINA RESULT:      -8.4      2.388      3.269
REMARK  Name = 
REMARK  6 active torsions:
REMARK  status: ('A' for Active; 'I' for Inactive)
REMARK    1  A    between atoms: C_1  and  O_2
REMARK    2  A    between atoms: O_2  and  C_3
REMARK    3  A    between atoms: C_6  and  C_7
REMARK    4  A    between atoms: C_19  and  N_20
REMARK    5  A    between atoms: N_20  and  S_21
REMARK    6  A    between atoms: S_21  and  C_24
REMARK                            x       y       z     vdW  Elec       q    Type
REMARK                         _______ _______ _______ _____ _____    ______ ____
ROOT
ATOM      1  C   UNL     1       2.583   4.383  19.853  0.00  0.00    +0.000 A 
ATOM      2  N   UNL     1       1.860   4.875  20.876  0.00  0.00    +0.000 NA
ATOM      3  C   UNL     1       1.486   6.177  20.777  0.00  0.00    +0.000 A 
ATOM      4  C   UNL     1       1.796   7.050  19.724  0.00  0.00    +0.000 A 
ATOM      5  C   UNL     1       2.493   6.463  18.658  0.00  0.00    +0.000 A 
ATOM      6  C   UNL     1       2.910   5.129  18.720  0.00  0.00    +0.000 A 
ENDROOT
BRANCH   4   7
ATOM      7  C   UNL     1       1.525   8.507  19.798  0.00  0.00    +0.000 A 
ATOM      8  C   UNL     1       1.525   9.301  18.641  0.00  0.00    +0.000 A 
ATOM      9  C   UNL     1       1.226  10.663  18.671  0.00  0.00    +0.000 A 
ATOM     10  C   UNL     1       0.673  11.235  19.791  0.00  0.00    +0.000 A 
ATOM     11  N   UNL     1       0.174  12.470  19.660  0.00  0.00    +0.000 NA
ATOM     12  C   UNL     1      -0.642  12.922  20.628  0.00  0.00    +0.000 A 
ATOM     13  C   UNL     1      -0.943  12.206  21.764  0.00  0.00    +0.000 A 
ATOM     14  C   UNL     1      -0.309  10.981  21.944  0.00  0.00    +0.000 A 
ATOM     15 CL   UNL     1      -0.761  10.061  23.343  0.00  0.00    +0.000 Cl
ATOM     16  C   UNL     1       0.530  10.449  20.945  0.00  0.00    +0.000 A 
ATOM     17  C   UNL     1       1.111   9.152  20.980  0.00  0.00    +0.000 A 
ENDBRANCH   4   7
BRANCH   1  19
ATOM     18  C   UNL     1       2.996   2.507  21.213  0.00  0.00    +0.000 C 
ATOM     19  O   UNL     1       3.029   3.078  19.911  0.00  0.00    +0.000 OA
ENDBRANCH   1  19
BRANCH   6  20
ATOM     20  N   UNL     1       3.710   4.601  17.665  0.00  0.00    +0.000 N 
ATOM     21  H   UNL     1       3.324   4.537  16.731  0.00  0.00    +0.000 HD
BRANCH  20  22
ATOM     22  S   UNL     1       5.361   4.975  17.672  0.00  0.00    +0.000 S 
ATOM     23  O   UNL     1       5.468   6.394  17.923  0.00  0.00    +0.000 OA
ATOM     24  O   UNL     1       6.030   4.025  18.541  0.00  0.00    +0.000 OA
BRANCH  22  25
ATOM     25  C   UNL     1       5.899   4.682  16.020  0.00  0.00    +0.000 A 
ATOM     26  C   UNL     1       5.140   3.874  15.163  0.00  0.00    +0.000 A 
ATOM     27  C   UNL     1       5.555   3.708  13.842  0.00  0.00    +0.000 A 
ATOM     28  C   UNL     1       6.703   4.351  13.393  0.00  0.00    +0.000 A 
ATOM     29  F   UNL     1       7.087   4.203  12.117  0.00  0.00    +0.000 F 
ATOM     30  C   UNL     1       7.465   5.140  14.246  0.00  0.00    +0.000 A 
ATOM     31  C   UNL     1       7.061   5.291  15.566  0.00  0.00    +0.000 A 
ATOM     32  F   UNL     1       7.790   6.076  16.370  0.00  0.00    +0.000 F 
ENDBRANCH  22  25
ENDBRANCH  20  22
ENDBRANCH   6  20
TORSDOF 5
ENDMDL
MODEL 8
REMARK VINA RESULT:      -8.4      2.620      3.431
REMARK  Name = 
REMARK  6 active torsions:
REMARK  status: ('A' for Active; 'I' for Inactive)
REMARK    1  A    between atoms: C_1  and  O_2
REMARK    2  A    between atoms: O_2  and  C_3
REMARK    3  A    between atoms: C_6  and  C_7
REMARK    4  A    between atoms: C_19  and  N_20
REMARK    5  A    between atoms: N_20  and  S_21
REMARK    6  A    between atoms: S_21  and  C_24
REMARK                            x       y       z     vdW  Elec       q    Type
REMARK                         _______ _______ _______ _____ _____    ______ ____
ROOT
ATOM      1  C   UNL     1       3.183   3.837  19.109  0.00  0.00    +0.000 A 
ATOM      2  N   UNL     1       2.475   4.243  20.180  0.00  0.00    +0.000 NA
ATOM      3  C   UNL     1       2.035   5.527  20.160  0.00  0.00    +0.000 A 
ATOM      4  C   UNL     1       2.263   6.465  19.143  0.00  0.00    +0.000 A 
ATOM      5  C   UNL     1       2.947   5.966  18.025  0.00  0.00    +0.000 A 
ATOM      6  C   UNL     1       3.430   4.654  18.005  0.00  0.00    +0.000 A 
ENDROOT
BRANCH   4   7
ATOM      7  C   UNL     1       1.925   7.901  19.299  0.00  0.00    +0.000 A 
ATOM      8  C   UNL     1       1.935   8.770  18.198  0.00  0.00    +0.000 A 
ATOM      9  C   UNL     1       1.575  10.114  18.303  0.00  0.00    +0.000 A 
ATOM     10  C   UNL     1       0.953  10.585  19.433  0.00  0.00    +0.000 A 
ATOM     11  N   UNL     1       0.405  11.804  19.362  0.00  0.00    +0.000 NA
ATOM     12  C   UNL     1      -0.468  12.157  20.322  0.00  0.00    +0.000 A 
ATOM     13  C   UNL     1      -0.781  11.354  21.395  0.00  0.00    +0.000 A 
ATOM     14  C   UNL     1      -0.101  10.147  21.522  0.00  0.00    +0.000 A 
ATOM     15 CL   UNL     1      -0.566   9.119  22.838  0.00  0.00    +0.000 Cl
ATOM     16  C   UNL     1       0.800   9.719  20.527  0.00  0.00    +0.000 A 
ATOM     17  C   UNL     1       1.437   8.448  20.502  0.00  0.00    +0.000 A 
ENDBRANCH   4   7
BRANCH   1  19
ATOM     18  C   UNL     1       4.541   2.245  20.184  0.00  0.00    +0.000 C 
ATOM     19  O   UNL     1       3.693   2.556  19.086  0.00  0.00    +0.000 OA
ENDBRANCH   1  19
BRANCH   6  20
ATOM     20  N   UNL     1       4.215   4.218  16.897  0.00  0.00    +0.000 N 
ATOM     21  H   UNL     1       3.757   3.964  16.031  0.00  0.00    +0.000 HD
BRANCH  20  22
ATOM     22  S   UNL     1       5.712   4.971  16.654  0.00  0.00    +0.000 S 
ATOM     23  O   UNL     1       5.479   6.396  16.716  0.00  0.00    +0.000 OA
ATOM     24  O   UNL     1       6.675   4.348  17.542  0.00  0.00    +0.000 OA
BRANCH  22  25
ATOM     25  C   UNL     1       6.156   4.573  14.996  0.00  0.00    +0.000 A 
ATOM     26  C   UNL     1       5.330   3.744  14.224  0.00  0.00    +0.000 A 
ATOM     27  C   UNL     1       5.672   3.494  12.895  0.00  0.00    +0.000 A 
ATOM     28  C   UNL     1       6.813   4.076  12.355  0.00  0.00    +0.000 A 
ATOM     29  F   UNL     1       7.125   3.847  11.072  0.00  0.00    +0.000 F 
ATOM     30  C   UNL     1       7.640   4.886  13.123  0.00  0.00    +0.000 A 
ATOM     31  C   UNL     1       7.309   5.120  14.452  0.00  0.00    +0.000 A 
ATOM     32  F   UNL     1       8.101   5.923  15.174  0.00  0.00    +0.000 F 
ENDBRANCH  22  25
ENDBRANCH  20  22
ENDBRANCH   6  20
TORSDOF 5
ENDMDL
MODEL 9
REMARK VINA RESULT:      -8.3      3.362      5.226
REMARK  Name = 
REMARK  6 active torsions:
REMARK  status: ('A' for Active; 'I' for Inactive)
REMARK    1  A    between atoms: C_1  and  O_2
REMARK    2  A    between atoms: O_2  and  C_3
REMARK    3  A    between atoms: C_6  and  C_7
REMARK    4  A    between atoms: C_19  and  N_20
REMARK    5  A    between atoms: N_20  and  S_21
REMARK    6  A    between atoms: S_21  and  C_24
REMARK                            x       y       z     vdW  Elec       q    Type
REMARK                         _______ _______ _______ _____ _____    ______ ____
ROOT
ATOM      1  C   UNL     1       5.266   5.545  16.500  0.00  0.00    +0.000 A 
ATOM      2  N   UNL     1       5.060   6.844  16.217  0.00  0.00    +0.000 NA
ATOM      3  C   UNL     1       4.215   7.514  17.042  0.00  0.00    +0.000 A 
ATOM      4  C   UNL     1       3.531   6.976  18.143  0.00  0.00    +0.000 A 
ATOM      5  C   UNL     1       3.838   5.637  18.427  0.00  0.00    +0.000 A 
ATOM      6  C   UNL     1       4.692   4.903  17.600  0.00  0.00    +0.000 A 
ENDROOT
BRANCH   4   7
ATOM      7  C   UNL     1       2.470   7.725  18.860  0.00  0.00    +0.000 A 
ATOM      8  C   UNL     1       1.960   7.263  20.082  0.00  0.00    +0.000 A 
ATOM      9  C   UNL     1       0.999   7.969  20.805  0.00  0.00    +0.000 A 
ATOM     10  C   UNL     1       0.693   9.268  20.480  0.00  0.00    +0.000 A 
ATOM     11  N   UNL     1      -0.034   9.961  21.365  0.00  0.00    +0.000 NA
ATOM     12  C   UNL     1      -0.077  11.298  21.230  0.00  0.00    +0.000 A 
ATOM     13  C   UNL     1       0.537  11.978  20.204  0.00  0.00    +0.000 A 
ATOM     14  C   UNL     1       1.175  11.230  19.220  0.00  0.00    +0.000 A 
ATOM     15 CL   UNL     1       2.007  12.109  17.980  0.00  0.00    +0.000 Cl
ATOM     16  C   UNL     1       1.275   9.829  19.332  0.00  0.00    +0.000 A 
ATOM     17  C   UNL     1       2.019   8.996  18.453  0.00  0.00    +0.000 A 
ENDBRANCH   4   7
BRANCH   1  19
ATOM     18  C   UNL     1       5.466   4.383  14.464  0.00  0.00    +0.000 C 
ATOM     19  O   UNL     1       6.082   4.798  15.677  0.00  0.00    +0.000 OA
ENDBRANCH   1  19
BRANCH   6  20
ATOM     20  N   UNL     1       4.892   3.516  17.860  0.00  0.00    +0.000 N 
ATOM     21  H   UNL     1       5.503   3.235  18.617  0.00  0.00    +0.000 HD
BRANCH  20  22
ATOM     22  S   UNL     1       3.565   2.483  17.664  0.00  0.00    +0.000 S 
ATOM     23  O   UNL     1       2.693   3.103  16.693  0.00  0.00    +0.000 OA
ATOM     24  O   UNL     1       4.072   1.142  17.444  0.00  0.00    +0.000 OA
BRANCH  22  25
ATOM     25  C   UNL     1       2.737   2.510  19.219  0.00  0.00    +0.000 A 
ATOM     26  C   UNL     1       3.466   2.386  20.410  0.00  0.00    +0.000 A 
ATOM     27  C   UNL     1       2.794   2.471  21.629  0.00  0.00    +0.000 A 
ATOM     28  C   UNL     1       1.421   2.687  21.647  0.00  0.00    +0.000 A 
ATOM     29  F   UNL     1       0.784   2.788  22.822  0.00  0.00    +0.000 F 
ATOM     30  C   UNL     1       0.695   2.795  20.467  0.00  0.00    +0.000 A 
ATOM     31  C   UNL     1       1.362   2.692  19.253  0.00  0.00    +0.000 A 
ATOM     32  F   UNL     1       0.653   2.824  18.124  0.00  0.00    +0.000 F 
ENDBRANCH  22  25
ENDBRANCH  20  22
ENDBRANCH   6  20
TORSDOF 5
ENDMDL
