MODEL 1
REMARK VINA RESULT:      -7.8      0.000      0.000
REMARK  Name = 
REMARK  8 active torsions:
REMARK  status: ('A' for Active; 'I' for Inactive)
REMARK    1  A    between atoms: C_1  and  C_2
REMARK    2  A    between atoms: C_6  and  C_7
REMARK    3  A    between atoms: C_7  and  C_8
REMARK    4  A    between atoms: C_7  and  C_9
REMARK    5  A    between atoms: C_11  and  N_12
REMARK    6  A    between atoms: N_12  and  C_13
REMARK    7  A    between atoms: C_13  and  C_14
REMARK    8  A    between atoms: C_14  and  C_15
REMARK                            x       y       z     vdW  Elec       q    Type
REMARK                         _______ _______ _______ _____ _____    ______ ____
ROOT
ATOM      1  C   UNL     1       7.279   4.188  12.549  0.00  0.00    +0.000 C 
ATOM      2  C   UNL     1       6.862   4.466  13.948  0.00  0.00    +0.000 A 
ATOM      3  C   UNL     1       5.944   3.717  14.715  0.00  0.00    +0.000 A 
ATOM      4  C   UNL     1       5.891   4.344  15.938  0.00  0.00    +0.000 A 
ATOM      5  N   UNL     1       5.174   4.046  17.062  0.00  0.00    +0.000 NA
ATOM      6  C   UNL     1       5.349   4.826  18.086  0.00  0.00    +0.000 A 
ATOM      7  C   UNL     1       6.243   6.022  18.090  0.00  0.00    +0.000 A 
ATOM      8  C   UNL     1       6.924   6.317  16.969  0.00  0.00    +0.000 A 
ATOM      9  N   UNL     1       6.759   5.445  15.854  0.00  0.00    +0.000 N 
ATOM     10  N   UNL     1       7.357   5.510  14.622  0.00  0.00    +0.000 NA
ENDROOT
BRANCH   6  11
ATOM     11  C   UNL     1       4.580   4.591  19.387  0.00  0.00    +0.000 C 
ATOM     12  C   UNL     1       3.482   5.642  19.527  0.00  0.00    +0.000 C 
ATOM     13  C   UNL     1       4.011   3.182  19.480  0.00  0.00    +0.000 C 
ENDBRANCH   6  11
BRANCH   8  14
ATOM     14  N   UNL     1       7.762   7.434  16.874  0.00  0.00    +0.000 N 
ATOM     15  H   UNL     1       8.298   7.470  16.004  0.00  0.00    +0.000 HD
BRANCH  14  16
ATOM     16  C   UNL     1       8.200   8.226  18.018  0.00  0.00    +0.000 C 
BRANCH  16  17
ATOM     17  C   UNL     1       8.127   9.736  17.816  0.00  0.00    +0.000 C 
BRANCH  17  18
ATOM     18  C   UNL     1       9.210  10.507  18.524  0.00  0.00    +0.000 A 
ATOM     19  C   UNL     1       9.190  10.637  19.913  0.00  0.00    +0.000 A 
ATOM     20  C   UNL     1      10.230  11.312  20.531  0.00  0.00    +0.000 A 
ATOM     21  N   UNL     1      11.265  11.869  19.869  0.00  0.00    +0.000 NA
ATOM     22  C   UNL     1      11.255  11.753  18.525  0.00  0.00    +0.000 A 
ATOM     23  C   UNL     1      10.263  11.093  17.815  0.00  0.00    +0.000 A 
ENDBRANCH  17  18
ENDBRANCH  16  17
ENDBRANCH  14  16
ENDBRANCH   8  14
TORSDOF 5
ENDMDL
MODEL 2
REMARK VINA RESULT:      -7.7      3.019      7.002
REMARK  Name = 
REMARK  8 active torsions:
REMARK  status: ('A' for Active; 'I' for Inactive)
REMARK    1  A    between atoms: C_1  and  C_2
REMARK    2  A    between atoms: C_6  and  C_7
REMARK    3  A    between atoms: C_7  and  C_8
REMARK    4  A    between atoms: C_7  and  C_9
REMARK    5  A    between atoms: C_11  and  N_12
REMARK    6  A    between atoms: N_12  and  C_13
REMARK    7  A    between atoms: C_13  and  C_14
REMARK    8  A    between atoms: C_14  and  C_15
REMARK                            x       y       z     vdW  Elec       q    Type
REMARK                         _______ _______ _______ _____ _____    ______ ____
ROOT
ATOM      1  C   UNL     1       5.839   3.190  11.693  0.00  0.00    +0.000 C 
ATOM      2  C   UNL     1       6.024   3.751  13.057  0.00  0.00    +0.000 A 
ATOM      3  C   UNL     1       7.176   4.403  13.548  0.00  0.00    +0.000 A 
ATOM      4  C   UNL     1       6.874   4.754  14.843  0.00  0.00    +0.000 A 
ATOM      5  N   UNL     1       7.617   5.410  15.783  0.00  0.00    +0.000 NA
ATOM      6  C   UNL     1       7.046   5.616  16.932  0.00  0.00    +0.000 A 
ATOM      7  C   UNL     1       5.670   5.156  17.284  0.00  0.00    +0.000 A 
ATOM      8  C   UNL     1       4.960   4.490  16.355  0.00  0.00    +0.000 A 
ATOM      9  N   UNL     1       5.571   4.291  15.083  0.00  0.00    +0.000 N 
ATOM     10  N   UNL     1       5.052   3.676  13.973  0.00  0.00    +0.000 NA
ENDROOT
BRANCH   6  11
ATOM     11  C   UNL     1       7.797   6.325  18.061  0.00  0.00    +0.000 C 
ATOM     12  C   UNL     1       7.649   7.836  17.900  0.00  0.00    +0.000 C 
ATOM     13  C   UNL     1       7.341   5.868  19.440  0.00  0.00    +0.000 C 
ENDBRANCH   6  11
BRANCH   8  14
ATOM     14  N   UNL     1       3.675   3.998  16.606  0.00  0.00    +0.000 N 
ATOM     15  H   UNL     1       3.352   3.324  15.910  0.00  0.00    +0.000 HD
BRANCH  14  16
ATOM     16  C   UNL     1       2.700   4.660  17.467  0.00  0.00    +0.000 C 
BRANCH  16  17
ATOM     17  C   UNL     1       1.665   3.732  18.093  0.00  0.00    +0.000 C 
BRANCH  17  18
ATOM     18  C   UNL     1       1.996   3.291  19.494  0.00  0.00    +0.000 A 
ATOM     19  C   UNL     1       0.992   3.195  20.458  0.00  0.00    +0.000 A 
ATOM     20  C   UNL     1       1.327   2.738  21.722  0.00  0.00    +0.000 A 
ATOM     21  N   UNL     1       2.579   2.389  22.089  0.00  0.00    +0.000 NA
ATOM     22  C   UNL     1       3.540   2.510  21.150  0.00  0.00    +0.000 A 
ATOM     23  C   UNL     1       3.303   2.953  19.857  0.00  0.00    +0.000 A 
ENDBRANCH  17  18
ENDBRANCH  16  17
ENDBRANCH  14  16
ENDBRANCH   8  14
TORSDOF 5
ENDMDL
MODEL 3
REMARK VINA RESULT:      -7.7      3.060      7.093
REMARK  Name = 
REMARK  8 active torsions:
REMARK  status: ('A' for Active; 'I' for Inactive)
REMARK    1  A    between atoms: C_1  and  C_2
REMARK    2  A    between atoms: C_6  and  C_7
REMARK    3  A    between atoms: C_7  and  C_8
REMARK    4  A    between atoms: C_7  and  C_9
REMARK    5  A    between atoms: C_11  and  N_12
REMARK    6  A    between atoms: N_12  and  C_13
REMARK    7  A    between atoms: C_13  and  C_14
REMARK    8  A    between atoms: C_14  and  C_15
REMARK                            x       y       z     vdW  Elec       q    Type
REMARK                         _______ _______ _______ _____ _____    ______ ____
ROOT
ATOM      1  C   UNL     1       5.951   2.981  11.709  0.00  0.00    +0.000 C 
ATOM      2  C   UNL     1       6.126   3.639  13.030  0.00  0.00    +0.000 A 
ATOM      3  C   UNL     1       7.189   4.485  13.413  0.00  0.00    +0.000 A 
ATOM      4  C   UNL     1       6.913   4.858  14.708  0.00  0.00    +0.000 A 
ATOM      5  N   UNL     1       7.598   5.670  15.566  0.00  0.00    +0.000 NA
ATOM      6  C   UNL     1       7.070   5.850  16.740  0.00  0.00    +0.000 A 
ATOM      7  C   UNL     1       5.806   5.205  17.203  0.00  0.00    +0.000 A 
ATOM      8  C   UNL     1       5.156   4.388  16.355  0.00  0.00    +0.000 A 
ATOM      9  N   UNL     1       5.714   4.214  15.056  0.00  0.00    +0.000 N 
ATOM     10  N   UNL     1       5.233   3.467  14.012  0.00  0.00    +0.000 NA
ENDROOT
BRANCH   6  11
ATOM     11  C   UNL     1       7.766   6.727  17.782  0.00  0.00    +0.000 C 
ATOM     12  C   UNL     1       7.158   8.127  17.758  0.00  0.00    +0.000 C 
ATOM     13  C   UNL     1       7.710   6.125  19.180  0.00  0.00    +0.000 C 
ENDBRANCH   6  11
BRANCH   8  14
ATOM     14  N   UNL     1       3.980   3.720  16.713  0.00  0.00    +0.000 N 
ATOM     15  H   UNL     1       3.842   2.839  16.214  0.00  0.00    +0.000 HD
BRANCH  14  16
ATOM     16  C   UNL     1       2.840   4.362  17.361  0.00  0.00    +0.000 C 
BRANCH  16  17
ATOM     17  C   UNL     1       1.814   3.400  17.950  0.00  0.00    +0.000 C 
BRANCH  17  18
ATOM     18  C   UNL     1       2.029   3.082  19.406  0.00  0.00    +0.000 A 
ATOM     19  C   UNL     1       3.272   2.629  19.852  0.00  0.00    +0.000 A 
ATOM     20  C   UNL     1       3.445   2.394  21.207  0.00  0.00    +0.000 A 
ATOM     21  N   UNL     1       2.476   2.564  22.131  0.00  0.00    +0.000 NA
ATOM     22  C   UNL     1       1.275   2.981  21.677  0.00  0.00    +0.000 A 
ATOM     23  C   UNL     1       1.005   3.247  20.343  0.00  0.00    +0.000 A 
ENDBRANCH  17  18
ENDBRANCH  16  17
ENDBRANCH  14  16
ENDBRANCH   8  14
TORSDOF 5
ENDMDL
MODEL 4
REMARK VINA RESULT:      -7.6      2.846      6.091
REMARK  Name = 
REMARK  8 active torsions:
REMARK  status: ('A' for Active; 'I' for Inactive)
REMARK    1  A    between atoms: C_1  and  C_2
REMARK    2  A    between atoms: C_6  and  C_7
REMARK    3  A    between atoms: C_7  and  C_8
REMARK    4  A    between atoms: C_7  and  C_9
REMARK    5  A    between atoms: C_11  and  N_12
REMARK    6  A    between atoms: N_12  and  C_13
REMARK    7  A    between atoms: C_13  and  C_14
REMARK    8  A    between atoms: C_14  and  C_15
REMARK                            x       y       z     vdW  Elec       q    Type
REMARK                         _______ _______ _______ _____ _____    ______ ____
ROOT
ATOM      1  C   UNL     1       6.063   3.239  12.152  0.00  0.00    +0.000 C 
ATOM      2  C   UNL     1       6.177   3.772  13.534  0.00  0.00    +0.000 A 
ATOM      3  C   UNL     1       7.003   4.834  13.960  0.00  0.00    +0.000 A 
ATOM      4  C   UNL     1       6.759   4.973  15.306  0.00  0.00    +0.000 A 
ATOM      5  N   UNL     1       7.276   5.847  16.220  0.00  0.00    +0.000 NA
ATOM      6  C   UNL     1       6.831   5.744  17.437  0.00  0.00    +0.000 A 
ATOM      7  C   UNL     1       5.836   4.726  17.886  0.00  0.00    +0.000 A 
ATOM      8  C   UNL     1       5.354   3.857  16.980  0.00  0.00    +0.000 A 
ATOM      9  N   UNL     1       5.815   3.987  15.638  0.00  0.00    +0.000 N 
ATOM     10  N   UNL     1       5.459   3.253  14.537  0.00  0.00    +0.000 NA
ENDROOT
BRANCH   6  11
ATOM     11  C   UNL     1       7.359   6.662  18.540  0.00  0.00    +0.000 C 
ATOM     12  C   UNL     1       8.245   5.860  19.489  0.00  0.00    +0.000 C 
ATOM     13  C   UNL     1       8.096   7.873  17.986  0.00  0.00    +0.000 C 
ENDBRANCH   6  11
BRANCH   8  14
ATOM     14  N   UNL     1       4.440   2.853  17.318  0.00  0.00    +0.000 N 
ATOM     15  H   UNL     1       4.570   1.987  16.791  0.00  0.00    +0.000 HD
BRANCH  14  16
ATOM     16  C   UNL     1       3.167   3.099  17.988  0.00  0.00    +0.000 C 
BRANCH  16  17
ATOM     17  C   UNL     1       2.377   4.284  17.446  0.00  0.00    +0.000 C 
BRANCH  17  18
ATOM     18  C   UNL     1       2.262   5.441  18.404  0.00  0.00    +0.000 A 
ATOM     19  C   UNL     1       2.377   6.753  17.941  0.00  0.00    +0.000 A 
ATOM     20  C   UNL     1       2.217   7.791  18.845  0.00  0.00    +0.000 A 
ATOM     21  N   UNL     1       1.967   7.614  20.159  0.00  0.00    +0.000 NA
ATOM     22  C   UNL     1       1.882   6.338  20.591  0.00  0.00    +0.000 A 
ATOM     23  C   UNL     1       2.023   5.233  19.765  0.00  0.00    +0.000 A 
ENDBRANCH  17  18
ENDBRANCH  16  17
ENDBRANCH  14  16
ENDBRANCH   8  14
TORSDOF 5
ENDMDL
MODEL 5
REMARK VINA RESULT:      -7.5      2.859      6.930
REMARK  Name = 
REMARK  8 active torsions:
REMARK  status: ('A' for Active; 'I' for Inactive)
REMARK    1  A    between atoms: C_1  and  C_2
REMARK    2  A    between atoms: C_6  and  C_7
REMARK    3  A    between atoms: C_7  and  C_8
REMARK    4  A    between atoms: C_7  and  C_9
REMARK    5  A    between atoms: C_11  and  N_12
REMARK    6  A    between atoms: N_12  and  C_13
REMARK    7  A    between atoms: C_13  and  C_14
REMARK    8  A    between atoms: C_14  and  C_15
REMARK                            x       y       z     vdW  Elec       q    Type
REMARK                         _______ _______ _______ _____ _____    ______ ____
ROOT
ATOM      1  C   UNL     1       6.082   3.287  12.007  0.00  0.00    +0.000 C 
ATOM      2  C   UNL     1       6.182   3.827  13.388  0.00  0.00    +0.000 A 
ATOM      3  C   UNL     1       7.029   4.868  13.825  0.00  0.00    +0.000 A 
ATOM      4  C   UNL     1       6.760   5.022  15.164  0.00  0.00    +0.000 A 
ATOM      5  N   UNL     1       7.283   5.887  16.084  0.00  0.00    +0.000 NA
ATOM      6  C   UNL     1       6.809   5.806  17.291  0.00  0.00    +0.000 A 
ATOM      7  C   UNL     1       5.776   4.820  17.726  0.00  0.00    +0.000 A 
ATOM      8  C   UNL     1       5.288   3.959  16.815  0.00  0.00    +0.000 A 
ATOM      9  N   UNL     1       5.781   4.067  15.483  0.00  0.00    +0.000 N 
ATOM     10  N   UNL     1       5.428   3.335  14.378  0.00  0.00    +0.000 NA
ENDROOT
BRANCH   6  11
ATOM     11  C   UNL     1       7.339   6.716  18.400  0.00  0.00    +0.000 C 
ATOM     12  C   UNL     1       8.248   5.913  19.327  0.00  0.00    +0.000 C 
ATOM     13  C   UNL     1       8.053   7.944  17.853  0.00  0.00    +0.000 C 
ENDBRANCH   6  11
BRANCH   8  14
ATOM     14  N   UNL     1       4.339   2.984  17.140  0.00  0.00    +0.000 N 
ATOM     15  H   UNL     1       4.740   2.056  17.289  0.00  0.00    +0.000 HD
BRANCH  14  16
ATOM     16  C   UNL     1       2.911   3.110  16.866  0.00  0.00    +0.000 C 
BRANCH  16  17
ATOM     17  C   UNL     1       2.000   2.488  17.918  0.00  0.00    +0.000 C 
BRANCH  17  18
ATOM     18  C   UNL     1       2.067   3.155  19.266  0.00  0.00    +0.000 A 
ATOM     19  C   UNL     1       2.097   4.547  19.363  0.00  0.00    +0.000 A 
ATOM     20  C   UNL     1       2.108   5.124  20.623  0.00  0.00    +0.000 A 
ATOM     21  N   UNL     1       2.105   4.419  21.774  0.00  0.00    +0.000 NA
ATOM     22  C   UNL     1       2.099   3.075  21.660  0.00  0.00    +0.000 A 
ATOM     23  C   UNL     1       2.082   2.404  20.446  0.00  0.00    +0.000 A 
ENDBRANCH  17  18
ENDBRANCH  16  17
ENDBRANCH  14  16
ENDBRANCH   8  14
TORSDOF 5
ENDMDL
MODEL 6
REMARK VINA RESULT:      -7.5      2.834      6.035
REMARK  Name = 
REMARK  8 active torsions:
REMARK  status: ('A' for Active; 'I' for Inactive)
REMARK    1  A    between atoms: C_1  and  C_2
REMARK    2  A    between atoms: C_6  and  C_7
REMARK    3  A    between atoms: C_7  and  C_8
REMARK    4  A    between atoms: C_7  and  C_9
REMARK    5  A    between atoms: C_11  and  N_12
REMARK    6  A    between atoms: N_12  and  C_13
REMARK    7  A    between atoms: C_13  and  C_14
REMARK    8  A    between atoms: C_14  and  C_15
REMARK                            x       y       z     vdW  Elec       q    Type
REMARK                         _______ _______ _______ _____ _____    ______ ____
ROOT
ATOM      1  C   UNL     1       5.959   3.219  12.012  0.00  0.00    +0.000 C 
ATOM      2  C   UNL     1       6.059   3.824  13.366  0.00  0.00    +0.000 A 
ATOM      3  C   UNL     1       6.954   4.838  13.770  0.00  0.00    +0.000 A 
ATOM      4  C   UNL     1       6.665   5.077  15.093  0.00  0.00    +0.000 A 
ATOM      5  N   UNL     1       7.216   5.959  15.979  0.00  0.00    +0.000 NA
ATOM      6  C   UNL     1       6.711   5.967  17.177  0.00  0.00    +0.000 A 
ATOM      7  C   UNL     1       5.613   5.065  17.635  0.00  0.00    +0.000 A 
ATOM      8  C   UNL     1       5.098   4.186  16.758  0.00  0.00    +0.000 A 
ATOM      9  N   UNL     1       5.626   4.196  15.435  0.00  0.00    +0.000 N 
ATOM     10  N   UNL     1       5.256   3.429  14.360  0.00  0.00    +0.000 NA
ENDROOT
BRANCH   6  11
ATOM     11  C   UNL     1       7.268   6.903  18.251  0.00  0.00    +0.000 C 
ATOM     12  C   UNL     1       8.145   6.108  19.215  0.00  0.00    +0.000 C 
ATOM     13  C   UNL     1       8.026   8.083  17.659  0.00  0.00    +0.000 C 
ENDBRANCH   6  11
BRANCH   8  14
ATOM     14  N   UNL     1       4.087   3.284  17.108  0.00  0.00    +0.000 N 
ATOM     15  H   UNL     1       4.280   2.322  16.821  0.00  0.00    +0.000 HD
BRANCH  14  16
ATOM     16  C   UNL     1       2.718   3.675  17.427  0.00  0.00    +0.000 C 
BRANCH  16  17
ATOM     17  C   UNL     1       2.460   3.956  18.903  0.00  0.00    +0.000 C 
BRANCH  17  18
ATOM     18  C   UNL     1       2.217   5.407  19.223  0.00  0.00    +0.000 A 
ATOM     19  C   UNL     1       1.764   5.784  20.488  0.00  0.00    +0.000 A 
ATOM     20  C   UNL     1       1.599   7.132  20.759  0.00  0.00    +0.000 A 
ATOM     21  N   UNL     1       1.839   8.115  19.866  0.00  0.00    +0.000 NA
ATOM     22  C   UNL     1       2.254   7.730  18.641  0.00  0.00    +0.000 A 
ATOM     23  C   UNL     1       2.454   6.407  18.275  0.00  0.00    +0.000 A 
ENDBRANCH  17  18
ENDBRANCH  16  17
ENDBRANCH  14  16
ENDBRANCH   8  14
TORSDOF 5
ENDMDL
MODEL 7
REMARK VINA RESULT:      -7.5      3.039      6.040
REMARK  Name = 
REMARK  8 active torsions:
REMARK  status: ('A' for Active; 'I' for Inactive)
REMARK    1  A    between atoms: C_1  and  C_2
REMARK    2  A    between atoms: C_6  and  C_7
REMARK    3  A    between atoms: C_7  and  C_8
REMARK    4  A    between atoms: C_7  and  C_9
REMARK    5  A    between atoms: C_11  and  N_12
REMARK    6  A    between atoms: N_12  and  C_13
REMARK    7  A    between atoms: C_13  and  C_14
REMARK    8  A    between atoms: C_14  and  C_15
REMARK                            x       y       z     vdW  Elec       q    Type
REMARK                         _______ _______ _______ _____ _____    ______ ____
ROOT
ATOM      1  C   UNL     1       6.071   3.161  11.650  0.00  0.00    +0.000 C 
ATOM      2  C   UNL     1       6.270   3.685  13.026  0.00  0.00    +0.000 A 
ATOM      3  C   UNL     1       7.169   4.700  13.417  0.00  0.00    +0.000 A 
ATOM      4  C   UNL     1       6.989   4.849  14.772  0.00  0.00    +0.000 A 
ATOM      5  N   UNL     1       7.590   5.692  15.663  0.00  0.00    +0.000 NA
ATOM      6  C   UNL     1       7.190   5.611  16.897  0.00  0.00    +0.000 A 
ATOM      7  C   UNL     1       6.161   4.648  17.388  0.00  0.00    +0.000 A 
ATOM      8  C   UNL     1       5.595   3.809  16.503  0.00  0.00    +0.000 A 
ATOM      9  N   UNL     1       6.007   3.916  15.144  0.00  0.00    +0.000 N 
ATOM     10  N   UNL     1       5.566   3.204  14.058  0.00  0.00    +0.000 NA
ENDROOT
BRANCH   6  11
ATOM     11  C   UNL     1       7.812   6.497  17.978  0.00  0.00    +0.000 C 
ATOM     12  C   UNL     1       7.359   7.941  17.776  0.00  0.00    +0.000 C 
ATOM     13  C   UNL     1       7.494   6.009  19.385  0.00  0.00    +0.000 C 
ENDBRANCH   6  11
BRANCH   8  14
ATOM     14  N   UNL     1       4.643   2.855  16.879  0.00  0.00    +0.000 N 
ATOM     15  H   UNL     1       4.482   2.136  16.171  0.00  0.00    +0.000 HD
BRANCH  14  16
ATOM     16  C   UNL     1       3.648   3.063  17.927  0.00  0.00    +0.000 C 
BRANCH  16  17
ATOM     17  C   UNL     1       2.495   3.983  17.541  0.00  0.00    +0.000 C 
BRANCH  17  18
ATOM     18  C   UNL     1       2.290   5.144  18.479  0.00  0.00    +0.000 A 
ATOM     19  C   UNL     1       1.838   4.926  19.781  0.00  0.00    +0.000 A 
ATOM     20  C   UNL     1       1.709   6.015  20.628  0.00  0.00    +0.000 A 
ATOM     21  N   UNL     1       1.983   7.286  20.269  0.00  0.00    +0.000 NA
ATOM     22  C   UNL     1       2.398   7.479  18.999  0.00  0.00    +0.000 A 
ATOM     23  C   UNL     1       2.563   6.455  18.078  0.00  0.00    +0.000 A 
ENDBRANCH  17  18
ENDBRANCH  16  17
ENDBRANCH  14  16
ENDBRANCH   8  14
TORSDOF 5
ENDMDL
MODEL 8
REMARK VINA RESULT:      -7.4      4.246      7.431
REMARK  Name = 
REMARK  8 active torsions:
REMARK  status: ('A' for Active; 'I' for Inactive)
REMARK    1  A    between atoms: C_1  and  C_2
REMARK    2  A    between atoms: C_6  and  C_7
REMARK    3  A    between atoms: C_7  and  C_8
REMARK    4  A    between atoms: C_7  and  C_9
REMARK    5  A    between atoms: C_11  and  N_12
REMARK    6  A    between atoms: N_12  and  C_13
REMARK    7  A    between atoms: C_13  and  C_14
REMARK    8  A    between atoms: C_14  and  C_15
REMARK                            x       y       z     vdW  Elec       q    Type
REMARK                         _______ _______ _______ _____ _____    ______ ____
ROOT
ATOM      1  C   UNL     1       1.537   2.533  21.534  0.00  0.00    +0.000 C 
ATOM      2  C   UNL     1       2.503   3.276  20.684  0.00  0.00    +0.000 A 
ATOM      3  C   UNL     1       3.793   2.847  20.304  0.00  0.00    +0.000 A 
ATOM      4  C   UNL     1       4.297   3.854  19.515  0.00  0.00    +0.000 A 
ATOM      5  N   UNL     1       5.499   3.966  18.874  0.00  0.00    +0.000 NA
ATOM      6  C   UNL     1       5.684   5.046  18.175  0.00  0.00    +0.000 A 
ATOM      7  C   UNL     1       4.695   6.159  18.067  0.00  0.00    +0.000 A 
ATOM      8  C   UNL     1       3.527   6.045  18.723  0.00  0.00    +0.000 A 
ATOM      9  N   UNL     1       3.307   4.848  19.463  0.00  0.00    +0.000 N 
ATOM     10  N   UNL     1       2.200   4.481  20.185  0.00  0.00    +0.000 NA
ENDROOT
BRANCH   6  11
ATOM     11  C   UNL     1       7.001   5.278  17.434  0.00  0.00    +0.000 C 
ATOM     12  C   UNL     1       6.946   4.595  16.070  0.00  0.00    +0.000 C 
ATOM     13  C   UNL     1       7.340   6.757  17.298  0.00  0.00    +0.000 C 
ENDBRANCH   6  11
BRANCH   8  14
ATOM     14  N   UNL     1       2.554   7.050  18.700  0.00  0.00    +0.000 N 
ATOM     15  H   UNL     1       2.430   7.478  17.780  0.00  0.00    +0.000 HD
BRANCH  14  16
ATOM     16  C   UNL     1       2.078   7.753  19.887  0.00  0.00    +0.000 C 
BRANCH  16  17
ATOM     17  C   UNL     1       1.255   9.004  19.602  0.00  0.00    +0.000 C 
BRANCH  17  18
ATOM     18  C   UNL     1       0.610   9.611  20.820  0.00  0.00    +0.000 A 
ATOM     19  C   UNL     1       0.608   8.922  22.033  0.00  0.00    +0.000 A 
ATOM     20  C   UNL     1       0.049   9.535  23.143  0.00  0.00    +0.000 A 
ATOM     21  N   UNL     1      -0.511  10.763  23.124  0.00  0.00    +0.000 NA
ATOM     22  C   UNL     1      -0.520  11.404  21.936  0.00  0.00    +0.000 A 
ATOM     23  C   UNL     1       0.019  10.877  20.771  0.00  0.00    +0.000 A 
ENDBRANCH  17  18
ENDBRANCH  16  17
ENDBRANCH  14  16
ENDBRANCH   8  14
TORSDOF 5
ENDMDL
MODEL 9
REMARK VINA RESULT:      -7.4      1.159      1.411
REMARK  Name = 
REMARK  8 active torsions:
REMARK  status: ('A' for Active; 'I' for Inactive)
REMARK    1  A    between atoms: C_1  and  C_2
REMARK    2  A    between atoms: C_6  and  C_7
REMARK    3  A    between atoms: C_7  and  C_8
REMARK    4  A    between atoms: C_7  and  C_9
REMARK    5  A    between atoms: C_11  and  N_12
REMARK    6  A    between atoms: N_12  and  C_13
REMARK    7  A    between atoms: C_13  and  C_14
REMARK    8  A    between atoms: C_14  and  C_15
REMARK                            x       y       z     vdW  Elec       q    Type
REMARK                         _______ _______ _______ _____ _____    ______ ____
ROOT
ATOM      1  C   UNL     1       7.451   4.331  12.696  0.00  0.00    +0.000 C 
ATOM      2  C   UNL     1       6.804   4.705  13.980  0.00  0.00    +0.000 A 
ATOM      3  C   UNL     1       5.545   4.269  14.445  0.00  0.00    +0.000 A 
ATOM      4  C   UNL     1       5.382   4.864  15.674  0.00  0.00    +0.000 A 
ATOM      5  N   UNL     1       4.354   4.788  16.571  0.00  0.00    +0.000 NA
ATOM      6  C   UNL     1       4.496   5.461  17.674  0.00  0.00    +0.000 A 
ATOM      7  C   UNL     1       5.676   6.318  17.991  0.00  0.00    +0.000 A 
ATOM      8  C   UNL     1       6.669   6.402  17.089  0.00  0.00    +0.000 A 
ATOM      9  N   UNL     1       6.531   5.640  15.892  0.00  0.00    +0.000 N 
ATOM     10  N   UNL     1       7.406   5.533  14.842  0.00  0.00    +0.000 NA
ENDROOT
BRANCH   6  11
ATOM     11  C   UNL     1       3.396   5.458  18.736  0.00  0.00    +0.000 C 
ATOM     12  C   UNL     1       2.780   6.852  18.835  0.00  0.00    +0.000 C 
ATOM     13  C   UNL     1       2.332   4.402  18.470  0.00  0.00    +0.000 C 
ENDBRANCH   6  11
BRANCH   8  14
ATOM     14  N   UNL     1       7.798   7.203  17.290  0.00  0.00    +0.000 N 
ATOM     15  H   UNL     1       8.624   6.678  17.589  0.00  0.00    +0.000 HD
BRANCH  14  16
ATOM     16  C   UNL     1       7.749   8.645  17.507  0.00  0.00    +0.000 C 
BRANCH  16  17
ATOM     17  C   UNL     1       8.679   9.159  18.601  0.00  0.00    +0.000 C 
BRANCH  17  18
ATOM     18  C   UNL     1       9.150  10.575  18.397  0.00  0.00    +0.000 A 
ATOM     19  C   UNL     1      10.427  10.958  18.808  0.00  0.00    +0.000 A 
ATOM     20  C   UNL     1      10.842  12.257  18.558  0.00  0.00    +0.000 A 
ATOM     21  N   UNL     1      10.078  13.188  17.949  0.00  0.00    +0.000 NA
ATOM     22  C   UNL     1       8.838  12.804  17.580  0.00  0.00    +0.000 A 
ATOM     23  C   UNL     1       8.333  11.528  17.781  0.00  0.00    +0.000 A 
ENDBRANCH  17  18
ENDBRANCH  16  17
ENDBRANCH  14  16
ENDBRANCH   8  14
TORSDOF 5
ENDMDL
