MODEL 1
REMARK VINA RESULT:      -7.3      0.000      0.000
REMARK  Name = 
REMARK  1 active torsions:
REMARK  status: ('A' for Active; 'I' for Inactive)
REMARK    1  A    between atoms: C_5  and  C_6
REMARK                            x       y       z     vdW  Elec       q    Type
REMARK                         _______ _______ _______ _____ _____    ______ ____
ROOT
ATOM      1  C   UNL     1       0.362   9.990  19.799  0.00  0.00    +0.000 C 
ATOM      2  O   UNL     1      -0.149   9.847  20.911  0.00  0.00    +0.000 OA
ATOM      3  N   UNL     1       1.392   9.166  19.368  0.00  0.00    +0.000 N 
ATOM      4  C   UNL     1       1.708   7.950  20.130  0.00  0.00    +0.000 C 
ATOM      5  C   UNL     1       1.999   6.748  19.200  0.00  0.00    +0.000 C 
ATOM      6  N   UNL     1       2.948   7.122  18.148  0.00  0.00    +0.000 N 
ATOM      7  C   UNL     1       4.028   6.352  17.789  0.00  0.00    +0.000 A 
ATOM      8  C   UNL     1       4.011   4.959  17.909  0.00  0.00    +0.000 A 
ATOM      9  C   UNL     1       5.136   4.208  17.558  0.00  0.00    +0.000 A 
ATOM     10  C   UNL     1       6.263   4.869  17.117  0.00  0.00    +0.000 A 
ATOM     11  F   UNL     1       7.368   4.188  16.789  0.00  0.00    +0.000 F 
ATOM     12  C   UNL     1       6.220   6.243  17.014  0.00  0.00    +0.000 A 
ATOM     13  N   UNL     1       5.130   6.988  17.324  0.00  0.00    +0.000 NA
ATOM     14  C   UNL     1       2.667   8.351  17.401  0.00  0.00    +0.000 C 
ATOM     15  C   UNL     1       2.411   9.516  18.367  0.00  0.00    +0.000 C 
ENDROOT
BRANCH   1  20
ATOM     16  O   UNL     1      -3.748  12.911  19.998  0.00  0.00    +0.000 OA
ATOM     17  C   UNL     1      -2.711  12.337  19.676  0.00  0.00    +0.000 C 
ATOM     18  C   UNL     1      -1.393  12.638  20.375  0.00  0.00    +0.000 C 
ATOM     19  C   UNL     1      -0.203  12.455  19.427  0.00  0.00    +0.000 C 
ATOM     20  C   UNL     1      -0.157  11.049  18.816  0.00  0.00    +0.000 C 
ATOM     21  N   UNL     1      -1.477  10.680  18.288  0.00  0.00    +0.000 N 
ATOM     22  C   UNL     1      -1.723   9.757  17.309  0.00  0.00    +0.000 A 
ATOM     23  C   UNL     1      -3.074   9.787  17.037  0.00  0.00    +0.000 A 
ATOM     24  C   UNL     1      -3.656  10.764  17.882  0.00  0.00    +0.000 A 
ATOM     25  C   UNL     1      -2.647  11.304  18.662  0.00  0.00    +0.000 A 
ENDBRANCH   1  20
TORSDOF 1
ENDMDL
MODEL 2
REMARK VINA RESULT:      -7.0      2.617      4.256
REMARK  Name = 
REMARK  1 active torsions:
REMARK  status: ('A' for Active; 'I' for Inactive)
REMARK    1  A    between atoms: C_5  and  C_6
REMARK                            x       y       z     vdW  Elec       q    Type
REMARK                         _______ _______ _______ _____ _____    ______ ____
ROOT
ATOM      1  C   UNL     1      -0.991  11.530  20.855  0.00  0.00    +0.000 C 
ATOM      2  O   UNL     1      -1.677  12.152  20.044  0.00  0.00    +0.000 OA
ATOM      3  N   UNL     1      -0.307  10.379  20.488  0.00  0.00    +0.000 N 
ATOM      4  C   UNL     1      -0.187  10.036  19.064  0.00  0.00    +0.000 C 
ATOM      5  C   UNL     1       1.229   9.520  18.715  0.00  0.00    +0.000 C 
ATOM      6  N   UNL     1       1.658   8.494  19.669  0.00  0.00    +0.000 N 
ATOM      7  C   UNL     1       2.245   7.308  19.299  0.00  0.00    +0.000 A 
ATOM      8  C   UNL     1       3.020   7.202  18.140  0.00  0.00    +0.000 A 
ATOM      9  C   UNL     1       3.582   5.974  17.780  0.00  0.00    +0.000 A 
ATOM     10  C   UNL     1       3.337   4.873  18.574  0.00  0.00    +0.000 A 
ATOM     11  F   UNL     1       3.840   3.675  18.253  0.00  0.00    +0.000 F 
ATOM     12  C   UNL     1       2.570   5.040  19.708  0.00  0.00    +0.000 A 
ATOM     13  N   UNL     1       2.038   6.228  20.088  0.00  0.00    +0.000 NA
ATOM     14  C   UNL     1       1.513   8.805  21.094  0.00  0.00    +0.000 C 
ATOM     15  C   UNL     1       0.088   9.288  21.392  0.00  0.00    +0.000 C 
ENDROOT
BRANCH   1  20
ATOM     16  O   UNL     1      -3.873  14.599  23.637  0.00  0.00    +0.000 OA
ATOM     17  C   UNL     1      -2.989  13.861  23.209  0.00  0.00    +0.000 C 
ATOM     18  C   UNL     1      -3.228  12.369  23.027  0.00  0.00    +0.000 C 
ATOM     19  C   UNL     1      -1.937  11.568  23.230  0.00  0.00    +0.000 C 
ATOM     20  C   UNL     1      -0.813  12.031  22.295  0.00  0.00    +0.000 C 
ATOM     21  N   UNL     1      -0.688  13.494  22.335  0.00  0.00    +0.000 N 
ATOM     22  C   UNL     1       0.432  14.216  22.024  0.00  0.00    +0.000 A 
ATOM     23  C   UNL     1       0.162  15.540  22.290  0.00  0.00    +0.000 A 
ATOM     24  C   UNL     1      -1.165  15.614  22.780  0.00  0.00    +0.000 A 
ATOM     25  C   UNL     1      -1.683  14.330  22.793  0.00  0.00    +0.000 A 
ENDBRANCH   1  20
TORSDOF 1
ENDMDL
MODEL 3
REMARK VINA RESULT:      -7.0      3.899      8.781
REMARK  Name = 
REMARK  1 active torsions:
REMARK  status: ('A' for Active; 'I' for Inactive)
REMARK    1  A    between atoms: C_5  and  C_6
REMARK                            x       y       z     vdW  Elec       q    Type
REMARK                         _______ _______ _______ _____ _____    ______ ____
ROOT
ATOM      1  C   UNL     1       3.675   6.093  18.355  0.00  0.00    +0.000 C 
ATOM      2  O   UNL     1       3.895   5.206  19.181  0.00  0.00    +0.000 OA
ATOM      3  N   UNL     1       2.680   7.039  18.562  0.00  0.00    +0.000 N 
ATOM      4  C   UNL     1       2.054   7.148  19.887  0.00  0.00    +0.000 C 
ATOM      5  C   UNL     1       1.843   8.623  20.304  0.00  0.00    +0.000 C 
ATOM      6  N   UNL     1       1.214   9.384  19.222  0.00  0.00    +0.000 N 
ATOM      7  C   UNL     1       0.161  10.247  19.411  0.00  0.00    +0.000 A 
ATOM      8  C   UNL     1      -0.017  10.937  20.614  0.00  0.00    +0.000 A 
ATOM      9  C   UNL     1      -1.113  11.788  20.782  0.00  0.00    +0.000 A 
ATOM     10  C   UNL     1      -2.020  11.912  19.751  0.00  0.00    +0.000 A 
ATOM     11  F   UNL     1      -3.094  12.701  19.879  0.00  0.00    +0.000 F 
ATOM     12  C   UNL     1      -1.790  11.211  18.586  0.00  0.00    +0.000 A 
ATOM     13  N   UNL     1      -0.719  10.401  18.394  0.00  0.00    +0.000 NA
ATOM     14  C   UNL     1       1.804   9.261  17.886  0.00  0.00    +0.000 C 
ATOM     15  C   UNL     1       1.969   7.782  17.511  0.00  0.00    +0.000 C 
ENDROOT
BRANCH   1  20
ATOM     16  O   UNL     1       8.188   4.140  17.221  0.00  0.00    +0.000 OA
ATOM     17  C   UNL     1       7.121   4.751  17.222  0.00  0.00    +0.000 C 
ATOM     18  C   UNL     1       5.795   4.019  17.080  0.00  0.00    +0.000 C 
ATOM     19  C   UNL     1       4.750   4.889  16.373  0.00  0.00    +0.000 C 
ATOM     20  C   UNL     1       4.529   6.228  17.088  0.00  0.00    +0.000 C 
ATOM     21  N   UNL     1       5.820   6.865  17.383  0.00  0.00    +0.000 N 
ATOM     22  C   UNL     1       6.031   8.202  17.580  0.00  0.00    +0.000 A 
ATOM     23  C   UNL     1       7.388   8.393  17.726  0.00  0.00    +0.000 A 
ATOM     24  C   UNL     1       8.011   7.126  17.611  0.00  0.00    +0.000 A 
ATOM     25  C   UNL     1       7.017   6.184  17.407  0.00  0.00    +0.000 A 
ENDBRANCH   1  20
TORSDOF 1
ENDMDL
MODEL 4
REMARK VINA RESULT:      -6.9      3.949      8.925
REMARK  Name = 
REMARK  1 active torsions:
REMARK  status: ('A' for Active; 'I' for Inactive)
REMARK    1  A    between atoms: C_5  and  C_6
REMARK                            x       y       z     vdW  Elec       q    Type
REMARK                         _______ _______ _______ _____ _____    ______ ____
ROOT
ATOM      1  C   UNL     1       3.897   6.260  18.469  0.00  0.00    +0.000 C 
ATOM      2  O   UNL     1       3.868   5.180  19.061  0.00  0.00    +0.000 OA
ATOM      3  N   UNL     1       2.880   7.192  18.622  0.00  0.00    +0.000 N 
ATOM      4  C   UNL     1       1.890   7.009  19.692  0.00  0.00    +0.000 C 
ATOM      5  C   UNL     1       1.557   8.343  20.402  0.00  0.00    +0.000 C 
ATOM      6  N   UNL     1       1.271   9.395  19.423  0.00  0.00    +0.000 N 
ATOM      7  C   UNL     1       0.205  10.256  19.522  0.00  0.00    +0.000 A 
ATOM      8  C   UNL     1      -0.324  10.632  20.760  0.00  0.00    +0.000 A 
ATOM      9  C   UNL     1      -1.426  11.491  20.824  0.00  0.00    +0.000 A 
ATOM     10  C   UNL     1      -1.989  11.935  19.647  0.00  0.00    +0.000 A 
ATOM     11  F   UNL     1      -3.057  12.742  19.663  0.00  0.00    +0.000 F 
ATOM     12  C   UNL     1      -1.421  11.535  18.455  0.00  0.00    +0.000 A 
ATOM     13  N   UNL     1      -0.337  10.725  18.373  0.00  0.00    +0.000 NA
ATOM     14  C   UNL     1       2.230   9.570  18.329  0.00  0.00    +0.000 C 
ATOM     15  C   UNL     1       2.507   8.225  17.643  0.00  0.00    +0.000 C 
ENDROOT
BRANCH   1  20
ATOM     16  O   UNL     1       6.604   3.497  15.229  0.00  0.00    +0.000 OA
ATOM     17  C   UNL     1       6.148   4.389  15.940  0.00  0.00    +0.000 C 
ATOM     18  C   UNL     1       4.812   5.045  15.622  0.00  0.00    +0.000 C 
ATOM     19  C   UNL     1       4.783   6.505  16.084  0.00  0.00    +0.000 C 
ATOM     20  C   UNL     1       5.087   6.648  17.581  0.00  0.00    +0.000 C 
ATOM     21  N   UNL     1       6.285   5.874  17.932  0.00  0.00    +0.000 N 
ATOM     22  C   UNL     1       7.105   6.102  19.003  0.00  0.00    +0.000 A 
ATOM     23  C   UNL     1       8.164   5.224  18.912  0.00  0.00    +0.000 A 
ATOM     24  C   UNL     1       7.971   4.445  17.745  0.00  0.00    +0.000 A 
ATOM     25  C   UNL     1       6.790   4.857  17.151  0.00  0.00    +0.000 A 
ENDBRANCH   1  20
TORSDOF 1
ENDMDL
MODEL 5
REMARK VINA RESULT:      -6.9      2.213      2.629
REMARK  Name = 
REMARK  1 active torsions:
REMARK  status: ('A' for Active; 'I' for Inactive)
REMARK    1  A    between atoms: C_5  and  C_6
REMARK                            x       y       z     vdW  Elec       q    Type
REMARK                         _______ _______ _______ _____ _____    ______ ____
ROOT
ATOM      1  C   UNL     1       0.946   9.769  19.857  0.00  0.00    +0.000 C 
ATOM      2  O   UNL     1       0.559  10.316  20.891  0.00  0.00    +0.000 OA
ATOM      3  N   UNL     1       1.573   8.531  19.888  0.00  0.00    +0.000 N 
ATOM      4  C   UNL     1       1.549   7.742  21.127  0.00  0.00    +0.000 C 
ATOM      5  C   UNL     1       1.296   6.242  20.848  0.00  0.00    +0.000 C 
ATOM      6  N   UNL     1       2.178   5.755  19.784  0.00  0.00    +0.000 N 
ATOM      7  C   UNL     1       2.878   4.575  19.857  0.00  0.00    +0.000 A 
ATOM      8  C   UNL     1       2.403   3.482  20.588  0.00  0.00    +0.000 A 
ATOM      9  C   UNL     1       3.153   2.305  20.661  0.00  0.00    +0.000 A 
ATOM     10  C   UNL     1       4.374   2.254  20.022  0.00  0.00    +0.000 A 
ATOM     11  F   UNL     1       5.132   1.153  20.084  0.00  0.00    +0.000 F 
ATOM     12  C   UNL     1       4.788   3.362  19.311  0.00  0.00    +0.000 A 
ATOM     13  N   UNL     1       4.063   4.503  19.206  0.00  0.00    +0.000 NA
ATOM     14  C   UNL     1       2.241   6.548  18.554  0.00  0.00    +0.000 C 
ATOM     15  C   UNL     1       2.518   8.021  18.882  0.00  0.00    +0.000 C 
ENDROOT
BRANCH   1  20
ATOM     16  O   UNL     1      -0.652  14.394  18.624  0.00  0.00    +0.000 OA
ATOM     17  C   UNL     1      -0.272  13.226  18.619  0.00  0.00    +0.000 C 
ATOM     18  C   UNL     1       1.166  12.863  18.959  0.00  0.00    +0.000 C 
ATOM     19  C   UNL     1       1.617  11.605  18.209  0.00  0.00    +0.000 C 
ATOM     20  C   UNL     1       0.701  10.405  18.482  0.00  0.00    +0.000 C 
ATOM     21  N   UNL     1      -0.707  10.794  18.321  0.00  0.00    +0.000 N 
ATOM     22  C   UNL     1      -1.747   9.952  18.036  0.00  0.00    +0.000 A 
ATOM     23  C   UNL     1      -2.875  10.725  17.868  0.00  0.00    +0.000 A 
ATOM     24  C   UNL     1      -2.497  12.077  18.058  0.00  0.00    +0.000 A 
ATOM     25  C   UNL     1      -1.144  12.100  18.349  0.00  0.00    +0.000 A 
ENDBRANCH   1  20
TORSDOF 1
ENDMDL
MODEL 6
REMARK VINA RESULT:      -6.8      2.492      3.840
REMARK  Name = 
REMARK  1 active torsions:
REMARK  status: ('A' for Active; 'I' for Inactive)
REMARK    1  A    between atoms: C_5  and  C_6
REMARK                            x       y       z     vdW  Elec       q    Type
REMARK                         _______ _______ _______ _____ _____    ______ ____
ROOT
ATOM      1  C   UNL     1       0.769  10.963  19.515  0.00  0.00    +0.000 C 
ATOM      2  O   UNL     1       0.496  11.736  18.596  0.00  0.00    +0.000 OA
ATOM      3  N   UNL     1       1.084   9.634  19.268  0.00  0.00    +0.000 N 
ATOM      4  C   UNL     1       1.349   9.200  17.889  0.00  0.00    +0.000 C 
ATOM      5  C   UNL     1       2.549   8.227  17.813  0.00  0.00    +0.000 C 
ATOM      6  N   UNL     1       2.422   7.166  18.815  0.00  0.00    +0.000 N 
ATOM      7  C   UNL     1       2.638   5.836  18.546  0.00  0.00    +0.000 A 
ATOM      8  C   UNL     1       3.536   5.422  17.558  0.00  0.00    +0.000 A 
ATOM      9  C   UNL     1       3.712   4.060  17.294  0.00  0.00    +0.000 A 
ATOM     10  C   UNL     1       2.968   3.144  18.006  0.00  0.00    +0.000 A 
ATOM     11  F   UNL     1       3.092   1.833  17.770  0.00  0.00    +0.000 F 
ATOM     12  C   UNL     1       2.102   3.612  18.972  0.00  0.00    +0.000 A 
ATOM     13  N   UNL     1       1.936   4.926  19.262  0.00  0.00    +0.000 NA
ATOM     14  C   UNL     1       2.124   7.578  20.190  0.00  0.00    +0.000 C 
ATOM     15  C   UNL     1       0.913   8.520  20.213  0.00  0.00    +0.000 C 
ENDROOT
BRANCH   1  20
ATOM     16  O   UNL     1      -1.936  14.485  21.911  0.00  0.00    +0.000 OA
ATOM     17  C   UNL     1      -1.131  13.610  21.599  0.00  0.00    +0.000 C 
ATOM     18  C   UNL     1      -1.577  12.173  21.373  0.00  0.00    +0.000 C 
ATOM     19  C   UNL     1      -0.470  11.180  21.740  0.00  0.00    +0.000 C 
ATOM     20  C   UNL     1       0.829  11.447  20.970  0.00  0.00    +0.000 C 
ATOM     21  N   UNL     1       1.178  12.872  21.040  0.00  0.00    +0.000 N 
ATOM     22  C   UNL     1       2.430  13.403  20.888  0.00  0.00    +0.000 A 
ATOM     23  C   UNL     1       2.341  14.757  21.128  0.00  0.00    +0.000 A 
ATOM     24  C   UNL     1       0.989  15.047  21.436  0.00  0.00    +0.000 A 
ATOM     25  C   UNL     1       0.276  13.861  21.367  0.00  0.00    +0.000 A 
ENDBRANCH   1  20
TORSDOF 1
ENDMDL
MODEL 7
REMARK VINA RESULT:      -6.6      2.685      4.091
REMARK  Name = 
REMARK  1 active torsions:
REMARK  status: ('A' for Active; 'I' for Inactive)
REMARK    1  A    between atoms: C_5  and  C_6
REMARK                            x       y       z     vdW  Elec       q    Type
REMARK                         _______ _______ _______ _____ _____    ______ ____
ROOT
ATOM      1  C   UNL     1       0.291  11.283  19.392  0.00  0.00    +0.000 C 
ATOM      2  O   UNL     1       0.094  11.813  18.297  0.00  0.00    +0.000 OA
ATOM      3  N   UNL     1       0.659   9.948  19.489  0.00  0.00    +0.000 N 
ATOM      4  C   UNL     1       1.072   9.224  18.279  0.00  0.00    +0.000 C 
ATOM      5  C   UNL     1       2.296   8.314  18.542  0.00  0.00    +0.000 C 
ATOM      6  N   UNL     1       2.092   7.506  19.747  0.00  0.00    +0.000 N 
ATOM      7  C   UNL     1       2.364   6.160  19.815  0.00  0.00    +0.000 A 
ATOM      8  C   UNL     1       3.366   5.572  19.037  0.00  0.00    +0.000 A 
ATOM      9  C   UNL     1       3.599   4.196  19.113  0.00  0.00    +0.000 A 
ATOM     10  C   UNL     1       2.808   3.434  19.946  0.00  0.00    +0.000 A 
ATOM     11  F   UNL     1       2.985   2.110  20.032  0.00  0.00    +0.000 F 
ATOM     12  C   UNL     1       1.838   4.070  20.693  0.00  0.00    +0.000 A 
ATOM     13  N   UNL     1       1.614   5.407  20.654  0.00  0.00    +0.000 NA
ATOM     14  C   UNL     1       1.648   8.206  20.955  0.00  0.00    +0.000 C 
ATOM     15  C   UNL     1       0.419   9.073  20.647  0.00  0.00    +0.000 C 
ENDROOT
BRANCH   1  20
ATOM     16  O   UNL     1      -1.755  15.805  20.302  0.00  0.00    +0.000 OA
ATOM     17  C   UNL     1      -1.177  14.723  20.378  0.00  0.00    +0.000 C 
ATOM     18  C   UNL     1      -1.949  13.413  20.323  0.00  0.00    +0.000 C 
ATOM     19  C   UNL     1      -1.255  12.321  21.143  0.00  0.00    +0.000 C 
ATOM     20  C   UNL     1       0.194  12.089  20.694  0.00  0.00    +0.000 C 
ATOM     21  N   UNL     1       0.901  13.370  20.578  0.00  0.00    +0.000 N 
ATOM     22  C   UNL     1       2.255  13.552  20.653  0.00  0.00    +0.000 A 
ATOM     23  C   UNL     1       2.498  14.908  20.600  0.00  0.00    +0.000 A 
ATOM     24  C   UNL     1       1.246  15.560  20.491  0.00  0.00    +0.000 A 
ATOM     25  C   UNL     1       0.262  14.586  20.470  0.00  0.00    +0.000 A 
ENDBRANCH   1  20
TORSDOF 1
ENDMDL
MODEL 8
REMARK VINA RESULT:      -6.6      2.771      4.705
REMARK  Name = 
REMARK  1 active torsions:
REMARK  status: ('A' for Active; 'I' for Inactive)
REMARK    1  A    between atoms: C_5  and  C_6
REMARK                            x       y       z     vdW  Elec       q    Type
REMARK                         _______ _______ _______ _____ _____    ______ ____
ROOT
ATOM      1  C   UNL     1      -1.941  12.216  20.872  0.00  0.00    +0.000 C 
ATOM      2  O   UNL     1      -2.796  12.665  20.107  0.00  0.00    +0.000 OA
ATOM      3  N   UNL     1      -1.100  11.181  20.484  0.00  0.00    +0.000 N 
ATOM      4  C   UNL     1      -1.047  10.787  19.070  0.00  0.00    +0.000 C 
ATOM      5  C   UNL     1       0.402  10.504  18.606  0.00  0.00    +0.000 C 
ATOM      6  N   UNL     1       1.088   9.622  19.553  0.00  0.00    +0.000 N 
ATOM      7  C   UNL     1       1.840   8.537  19.174  0.00  0.00    +0.000 A 
ATOM      8  C   UNL     1       2.516   8.502  17.950  0.00  0.00    +0.000 A 
ATOM      9  C   UNL     1       3.253   7.371  17.585  0.00  0.00    +0.000 A 
ATOM     10  C   UNL     1       3.277   6.290  18.440  0.00  0.00    +0.000 A 
ATOM     11  F   UNL     1       3.954   5.182  18.119  0.00  0.00    +0.000 F 
ATOM     12  C   UNL     1       2.596   6.384  19.636  0.00  0.00    +0.000 A 
ATOM     13  N   UNL     1       1.898   7.482  20.020  0.00  0.00    +0.000 NA
ATOM     14  C   UNL     1       1.017   9.981  20.972  0.00  0.00    +0.000 C 
ATOM     15  C   UNL     1      -0.440  10.226  21.388  0.00  0.00    +0.000 C 
ENDROOT
BRANCH   1  20
ATOM     16  O   UNL     1      -5.046  14.931  23.778  0.00  0.00    +0.000 OA
ATOM     17  C   UNL     1      -4.091  14.322  23.301  0.00  0.00    +0.000 C 
ATOM     18  C   UNL     1      -4.095  12.803  23.203  0.00  0.00    +0.000 C 
ATOM     19  C   UNL     1      -2.678  12.233  23.319  0.00  0.00    +0.000 C 
ATOM     20  C   UNL     1      -1.727  12.818  22.267  0.00  0.00    +0.000 C 
ATOM     21  N   UNL     1      -1.843  14.282  22.236  0.00  0.00    +0.000 N 
ATOM     22  C   UNL     1      -0.888  15.156  21.793  0.00  0.00    +0.000 A 
ATOM     23  C   UNL     1      -1.349  16.433  22.029  0.00  0.00    +0.000 A 
ATOM     24  C   UNL     1      -2.624  16.319  22.635  0.00  0.00    +0.000 A 
ATOM     25  C   UNL     1      -2.921  14.971  22.748  0.00  0.00    +0.000 A 
ENDBRANCH   1  20
TORSDOF 1
ENDMDL
MODEL 9
REMARK VINA RESULT:      -6.6      4.106      8.392
REMARK  Name = 
REMARK  1 active torsions:
REMARK  status: ('A' for Active; 'I' for Inactive)
REMARK    1  A    between atoms: C_5  and  C_6
REMARK                            x       y       z     vdW  Elec       q    Type
REMARK                         _______ _______ _______ _____ _____    ______ ____
ROOT
ATOM      1  C   UNL     1       3.185   6.786  18.498  0.00  0.00    +0.000 C 
ATOM      2  O   UNL     1       3.600   6.704  17.340  0.00  0.00    +0.000 OA
ATOM      3  N   UNL     1       2.393   7.851  18.905  0.00  0.00    +0.000 N 
ATOM      4  C   UNL     1       1.827   8.755  17.895  0.00  0.00    +0.000 C 
ATOM      5  C   UNL     1       0.361   9.129  18.216  0.00  0.00    +0.000 C 
ATOM      6  N   UNL     1       0.225   9.548  19.613  0.00  0.00    +0.000 N 
ATOM      7  C   UNL     1      -0.477  10.661  20.009  0.00  0.00    +0.000 A 
ATOM      8  C   UNL     1      -1.577  11.132  19.286  0.00  0.00    +0.000 A 
ATOM      9  C   UNL     1      -2.253  12.282  19.703  0.00  0.00    +0.000 A 
ATOM     10  C   UNL     1      -1.800  12.949  20.822  0.00  0.00    +0.000 A 
ATOM     11  F   UNL     1      -2.408  14.065  21.243  0.00  0.00    +0.000 F 
ATOM     12  C   UNL     1      -0.714  12.434  21.498  0.00  0.00    +0.000 A 
ATOM     13  N   UNL     1      -0.061  11.306  21.125  0.00  0.00    +0.000 NA
ATOM     14  C   UNL     1       0.814   8.675  20.632  0.00  0.00    +0.000 C 
ATOM     15  C   UNL     1       2.273   8.355  20.282  0.00  0.00    +0.000 C 
ENDROOT
BRANCH   1  20
ATOM     16  O   UNL     1       3.780   1.811  17.893  0.00  0.00    +0.000 OA
ATOM     17  C   UNL     1       3.669   2.951  18.338  0.00  0.00    +0.000 C 
ATOM     18  C   UNL     1       4.758   3.992  18.121  0.00  0.00    +0.000 C 
ATOM     19  C   UNL     1       4.821   4.986  19.285  0.00  0.00    +0.000 C 
ATOM     20  C   UNL     1       3.477   5.685  19.526  0.00  0.00    +0.000 C 
ATOM     21  N   UNL     1       2.391   4.697  19.567  0.00  0.00    +0.000 N 
ATOM     22  C   UNL     1       1.182   4.855  20.188  0.00  0.00    +0.000 A 
ATOM     23  C   UNL     1       0.497   3.664  20.078  0.00  0.00    +0.000 A 
ATOM     24  C   UNL     1       1.326   2.761  19.369  0.00  0.00    +0.000 A 
ATOM     25  C   UNL     1       2.499   3.424  19.050  0.00  0.00    +0.000 A 
ENDBRANCH   1  20
TORSDOF 1
ENDMDL
