MODEL 1
REMARK VINA RESULT:      -6.8      0.000      0.000
REMARK  Name = 
REMARK  11 active torsions:
REMARK  status: ('A' for Active; 'I' for Inactive)
REMARK    1  A    between atoms: C_1  and  C_2
REMARK    2  A    between atoms: C_2  and  C_3
REMARK    3  A    between atoms: C_3  and  C_4
REMARK    4  A    between atoms: C_3  and  C_5
REMARK    5  A    between atoms: C_3  and  N_6
REMARK    6  A    between atoms: C_7  and  C_9
REMARK    7  A    between atoms: C_9  and  C_10
REMARK    8  A    between atoms: C_13  and  O_14
REMARK    9  A    between atoms: O_14  and  C_15
REMARK   10  A    between atoms: C_16  and  O_17
REMARK   11  A    between atoms: O_17  and  C_18
REMARK                            x       y       z     vdW  Elec       q    Type
REMARK                         _______ _______ _______ _____ _____    ______ ____
ROOT
ATOM      1  C   UNL     1       3.307   7.067  17.788  0.00  0.00    +0.000 C 
ENDROOT
BRANCH   1   2
ATOM      2  C   UNL     1       2.618   5.903  18.452  0.00  0.00    +0.000 A 
ATOM      3  C   UNL     1       2.067   6.031  19.728  0.00  0.00    +0.000 A 
ATOM      4  C   UNL     1       1.587   4.904  20.392  0.00  0.00    +0.000 A 
ATOM      5  C   UNL     1       1.612   3.642  19.785  0.00  0.00    +0.000 A 
ATOM      6  C   UNL     1       2.116   3.508  18.479  0.00  0.00    +0.000 A 
ATOM      7  C   UNL     1       2.594   4.651  17.820  0.00  0.00    +0.000 A 
BRANCH   5   8
ATOM      8  O   UNL     1       1.188   2.639  20.620  0.00  0.00    +0.000 OA
ATOM      9  C   UNL     1       1.765   2.586  21.916  0.00  0.00    +0.000 C 
ENDBRANCH   5   8
BRANCH   6  10
ATOM     10  O   UNL     1       2.182   2.255  17.931  0.00  0.00    +0.000 OA
ATOM     11  C   UNL     1       3.369   1.498  18.124  0.00  0.00    +0.000 C 
ENDBRANCH   6  10
ENDBRANCH   1   2
BRANCH   1  13
ATOM     12  N   UNL     1       5.610   6.377  18.229  0.00  0.00    +0.000 N 
ATOM     13  C   UNL     1       4.684   6.733  17.268  0.00  0.00    +0.000 C 
ATOM     14  O   UNL     1       4.924   6.798  16.062  0.00  0.00    +0.000 OA
ATOM     15  H   UNL     1       5.294   6.260  19.178  0.00  0.00    +0.000 HD
BRANCH  12  16
ATOM     16  C   UNL     1       7.006   6.020  17.907  0.00  0.00    +0.000 C 
ATOM     17  C   UNL     1       7.043   4.726  17.070  0.00  0.00    +0.000 C 
ATOM     18  C   UNL     1       7.806   5.830  19.215  0.00  0.00    +0.000 C 
BRANCH  16  20
ATOM     19  C   UNL     1       8.016   8.425  17.908  0.00  0.00    +0.000 C 
ATOM     20  C   UNL     1       7.691   7.166  17.108  0.00  0.00    +0.000 C 
ENDBRANCH  16  20
ENDBRANCH  12  16
ENDBRANCH   1  13
TORSDOF 6
ENDMDL
MODEL 2
REMARK VINA RESULT:      -6.4      0.788      1.548
REMARK  Name = 
REMARK  11 active torsions:
REMARK  status: ('A' for Active; 'I' for Inactive)
REMARK    1  A    between atoms: C_1  and  C_2
REMARK    2  A    between atoms: C_2  and  C_3
REMARK    3  A    between atoms: C_3  and  C_4
REMARK    4  A    between atoms: C_3  and  C_5
REMARK    5  A    between atoms: C_3  and  N_6
REMARK    6  A    between atoms: C_7  and  C_9
REMARK    7  A    between atoms: C_9  and  C_10
REMARK    8  A    between atoms: C_13  and  O_14
REMARK    9  A    between atoms: O_14  and  C_15
REMARK   10  A    between atoms: C_16  and  O_17
REMARK   11  A    between atoms: O_17  and  C_18
REMARK                            x       y       z     vdW  Elec       q    Type
REMARK                         _______ _______ _______ _____ _____    ______ ____
ROOT
ATOM      1  C   UNL     1       3.169   7.498  17.846  0.00  0.00    +0.000 C 
ENDROOT
BRANCH   1   2
ATOM      2  C   UNL     1       2.482   6.373  18.576  0.00  0.00    +0.000 A 
ATOM      3  C   UNL     1       2.220   6.462  19.944  0.00  0.00    +0.000 A 
ATOM      4  C   UNL     1       1.741   5.350  20.632  0.00  0.00    +0.000 A 
ATOM      5  C   UNL     1       1.478   4.146  19.966  0.00  0.00    +0.000 A 
ATOM      6  C   UNL     1       1.687   4.059  18.578  0.00  0.00    +0.000 A 
ATOM      7  C   UNL     1       2.168   5.187  17.896  0.00  0.00    +0.000 A 
BRANCH   5   8
ATOM      8  O   UNL     1       1.105   3.135  20.816  0.00  0.00    +0.000 OA
ATOM      9  C   UNL     1       2.082   2.661  21.730  0.00  0.00    +0.000 C 
ENDBRANCH   5   8
BRANCH   6  10
ATOM     10  O   UNL     1       1.477   2.854  17.963  0.00  0.00    +0.000 OA
ATOM     11  C   UNL     1       2.597   2.007  17.742  0.00  0.00    +0.000 C 
ENDBRANCH   6  10
ENDBRANCH   1   2
BRANCH   1  13
ATOM     12  N   UNL     1       5.392   6.488  17.962  0.00  0.00    +0.000 N 
ATOM     13  C   UNL     1       4.441   7.076  17.152  0.00  0.00    +0.000 C 
ATOM     14  O   UNL     1       4.581   7.271  15.944  0.00  0.00    +0.000 OA
ATOM     15  H   UNL     1       5.146   6.284  18.917  0.00  0.00    +0.000 HD
BRANCH  12  16
ATOM     16  C   UNL     1       6.695   6.014  17.458  0.00  0.00    +0.000 C 
ATOM     17  C   UNL     1       7.260   4.922  18.388  0.00  0.00    +0.000 C 
ATOM     18  C   UNL     1       7.680   7.201  17.373  0.00  0.00    +0.000 C 
BRANCH  16  20
ATOM     19  C   UNL     1       6.028   4.001  15.937  0.00  0.00    +0.000 C 
ATOM     20  C   UNL     1       6.546   5.435  16.021  0.00  0.00    +0.000 C 
ENDBRANCH  16  20
ENDBRANCH  12  16
ENDBRANCH   1  13
TORSDOF 6
ENDMDL
MODEL 3
REMARK VINA RESULT:      -6.3      1.982      6.319
REMARK  Name = 
REMARK  11 active torsions:
REMARK  status: ('A' for Active; 'I' for Inactive)
REMARK    1  A    between atoms: C_1  and  C_2
REMARK    2  A    between atoms: C_2  and  C_3
REMARK    3  A    between atoms: C_3  and  C_4
REMARK    4  A    between atoms: C_3  and  C_5
REMARK    5  A    between atoms: C_3  and  N_6
REMARK    6  A    between atoms: C_7  and  C_9
REMARK    7  A    between atoms: C_9  and  C_10
REMARK    8  A    between atoms: C_13  and  O_14
REMARK    9  A    between atoms: O_14  and  C_15
REMARK   10  A    between atoms: C_16  and  O_17
REMARK   11  A    between atoms: O_17  and  C_18
REMARK                            x       y       z     vdW  Elec       q    Type
REMARK                         _______ _______ _______ _____ _____    ______ ____
ROOT
ATOM      1  C   UNL     1       3.287   6.317  18.465  0.00  0.00    +0.000 C 
ENDROOT
BRANCH   1   2
ATOM      2  C   UNL     1       4.398   6.059  17.481  0.00  0.00    +0.000 A 
ATOM      3  C   UNL     1       4.342   4.972  16.608  0.00  0.00    +0.000 A 
ATOM      4  C   UNL     1       5.451   4.651  15.828  0.00  0.00    +0.000 A 
ATOM      5  C   UNL     1       6.617   5.428  15.874  0.00  0.00    +0.000 A 
ATOM      6  C   UNL     1       6.667   6.557  16.711  0.00  0.00    +0.000 A 
ATOM      7  C   UNL     1       5.543   6.870  17.490  0.00  0.00    +0.000 A 
BRANCH   5   8
ATOM      8  O   UNL     1       7.634   4.910  15.113  0.00  0.00    +0.000 OA
ATOM      9  C   UNL     1       7.386   4.739  13.726  0.00  0.00    +0.000 C 
ENDBRANCH   5   8
BRANCH   6  10
ATOM     10  O   UNL     1       7.837   7.264  16.780  0.00  0.00    +0.000 OA
ATOM     11  C   UNL     1       7.904   8.368  17.673  0.00  0.00    +0.000 C 
ENDBRANCH   6  10
ENDBRANCH   1   2
BRANCH   1  13
ATOM     12  N   UNL     1       2.805   4.306  19.769  0.00  0.00    +0.000 N 
ATOM     13  C   UNL     1       2.415   5.111  18.717  0.00  0.00    +0.000 C 
ATOM     14  O   UNL     1       1.437   4.893  18.001  0.00  0.00    +0.000 OA
ATOM     15  H   UNL     1       3.561   4.620  20.356  0.00  0.00    +0.000 HD
BRANCH  12  16
ATOM     16  C   UNL     1       2.074   3.085  20.161  0.00  0.00    +0.000 C 
ATOM     17  C   UNL     1       0.579   3.402  20.364  0.00  0.00    +0.000 C 
ATOM     18  C   UNL     1       2.678   2.517  21.464  0.00  0.00    +0.000 C 
BRANCH  16  20
ATOM     19  C   UNL     1       3.652   1.657  18.651  0.00  0.00    +0.000 C 
ATOM     20  C   UNL     1       2.221   1.988  19.067  0.00  0.00    +0.000 C 
ENDBRANCH  16  20
ENDBRANCH  12  16
ENDBRANCH   1  13
TORSDOF 6
ENDMDL
MODEL 4
REMARK VINA RESULT:      -6.3      3.732      5.059
REMARK  Name = 
REMARK  11 active torsions:
REMARK  status: ('A' for Active; 'I' for Inactive)
REMARK    1  A    between atoms: C_1  and  C_2
REMARK    2  A    between atoms: C_2  and  C_3
REMARK    3  A    between atoms: C_3  and  C_4
REMARK    4  A    between atoms: C_3  and  C_5
REMARK    5  A    between atoms: C_3  and  N_6
REMARK    6  A    between atoms: C_7  and  C_9
REMARK    7  A    between atoms: C_9  and  C_10
REMARK    8  A    between atoms: C_13  and  O_14
REMARK    9  A    between atoms: O_14  and  C_15
REMARK   10  A    between atoms: C_16  and  O_17
REMARK   11  A    between atoms: O_17  and  C_18
REMARK                            x       y       z     vdW  Elec       q    Type
REMARK                         _______ _______ _______ _____ _____    ______ ____
ROOT
ATOM      1  C   UNL     1       6.776   4.291  15.829  0.00  0.00    +0.000 C 
ENDROOT
BRANCH   1   2
ATOM      2  C   UNL     1       5.508   4.734  16.514  0.00  0.00    +0.000 A 
ATOM      3  C   UNL     1       5.303   6.075  16.841  0.00  0.00    +0.000 A 
ATOM      4  C   UNL     1       4.208   6.438  17.622  0.00  0.00    +0.000 A 
ATOM      5  C   UNL     1       3.281   5.482  18.057  0.00  0.00    +0.000 A 
ATOM      6  C   UNL     1       3.447   4.135  17.689  0.00  0.00    +0.000 A 
ATOM      7  C   UNL     1       4.553   3.782  16.900  0.00  0.00    +0.000 A 
BRANCH   5   8
ATOM      8  O   UNL     1       2.325   6.005  18.891  0.00  0.00    +0.000 OA
ATOM      9  C   UNL     1       2.354   7.406  19.114  0.00  0.00    +0.000 C 
ENDBRANCH   5   8
BRANCH   6  10
ATOM     10  O   UNL     1       2.559   3.213  18.174  0.00  0.00    +0.000 OA
ATOM     11  C   UNL     1       3.017   1.884  18.385  0.00  0.00    +0.000 C 
ENDBRANCH   6  10
ENDBRANCH   1   2
BRANCH   1  13
ATOM     12  N   UNL     1       6.165   3.322  13.670  0.00  0.00    +0.000 N 
ATOM     13  C   UNL     1       6.717   4.405  14.325  0.00  0.00    +0.000 C 
ATOM     14  O   UNL     1       7.154   5.409  13.762  0.00  0.00    +0.000 OA
ATOM     15  H   UNL     1       5.747   2.590  14.222  0.00  0.00    +0.000 HD
BRANCH  12  16
ATOM     16  C   UNL     1       6.026   3.256  12.202  0.00  0.00    +0.000 C 
ATOM     17  C   UNL     1       6.092   1.791  11.727  0.00  0.00    +0.000 C 
ATOM     18  C   UNL     1       7.153   4.080  11.539  0.00  0.00    +0.000 C 
BRANCH  16  20
ATOM     19  C   UNL     1       3.776   2.975  10.911  0.00  0.00    +0.000 C 
ATOM     20  C   UNL     1       4.673   3.880  11.753  0.00  0.00    +0.000 C 
ENDBRANCH  16  20
ENDBRANCH  12  16
ENDBRANCH   1  13
TORSDOF 6
ENDMDL
MODEL 5
REMARK VINA RESULT:      -6.3      2.094      6.119
REMARK  Name = 
REMARK  11 active torsions:
REMARK  status: ('A' for Active; 'I' for Inactive)
REMARK    1  A    between atoms: C_1  and  C_2
REMARK    2  A    between atoms: C_2  and  C_3
REMARK    3  A    between atoms: C_3  and  C_4
REMARK    4  A    between atoms: C_3  and  C_5
REMARK    5  A    between atoms: C_3  and  N_6
REMARK    6  A    between atoms: C_7  and  C_9
REMARK    7  A    between atoms: C_9  and  C_10
REMARK    8  A    between atoms: C_13  and  O_14
REMARK    9  A    between atoms: O_14  and  C_15
REMARK   10  A    between atoms: C_16  and  O_17
REMARK   11  A    between atoms: O_17  and  C_18
REMARK                            x       y       z     vdW  Elec       q    Type
REMARK                         _______ _______ _______ _____ _____    ______ ____
ROOT
ATOM      1  C   UNL     1       3.917   2.955  16.892  0.00  0.00    +0.000 C 
ENDROOT
BRANCH   1   2
ATOM      2  C   UNL     1       5.045   3.953  16.847  0.00  0.00    +0.000 A 
ATOM      3  C   UNL     1       5.239   4.860  17.891  0.00  0.00    +0.000 A 
ATOM      4  C   UNL     1       6.175   5.882  17.756  0.00  0.00    +0.000 A 
ATOM      5  C   UNL     1       6.960   5.996  16.601  0.00  0.00    +0.000 A 
ATOM      6  C   UNL     1       6.812   5.057  15.564  0.00  0.00    +0.000 A 
ATOM      7  C   UNL     1       5.867   4.031  15.713  0.00  0.00    +0.000 A 
BRANCH   5   8
ATOM      8  O   UNL     1       7.757   7.113  16.604  0.00  0.00    +0.000 OA
ATOM      9  C   UNL     1       7.672   7.968  17.734  0.00  0.00    +0.000 C 
ENDBRANCH   5   8
BRANCH   6  10
ATOM     10  O   UNL     1       7.550   5.225  14.423  0.00  0.00    +0.000 OA
ATOM     11  C   UNL     1       7.087   4.613  13.227  0.00  0.00    +0.000 C 
ENDBRANCH   6  10
ENDBRANCH   1   2
BRANCH   1  13
ATOM     12  N   UNL     1       2.897   3.165  19.103  0.00  0.00    +0.000 N 
ATOM     13  C   UNL     1       2.756   3.397  17.748  0.00  0.00    +0.000 C 
ATOM     14  O   UNL     1       1.766   3.915  17.231  0.00  0.00    +0.000 OA
ATOM     15  H   UNL     1       3.783   2.824  19.440  0.00  0.00    +0.000 HD
BRANCH  12  16
ATOM     16  C   UNL     1       1.864   3.529  20.092  0.00  0.00    +0.000 C 
ATOM     17  C   UNL     1       2.328   3.147  21.511  0.00  0.00    +0.000 C 
ATOM     18  C   UNL     1       0.543   2.804  19.752  0.00  0.00    +0.000 C 
BRANCH  16  20
ATOM     19  C   UNL     1       2.791   5.965  20.226  0.00  0.00    +0.000 C 
ATOM     20  C   UNL     1       1.577   5.058  20.042  0.00  0.00    +0.000 C 
ENDBRANCH  16  20
ENDBRANCH  12  16
ENDBRANCH   1  13
TORSDOF 6
ENDMDL
MODEL 6
REMARK VINA RESULT:      -6.3      0.970      1.490
REMARK  Name = 
REMARK  11 active torsions:
REMARK  status: ('A' for Active; 'I' for Inactive)
REMARK    1  A    between atoms: C_1  and  C_2
REMARK    2  A    between atoms: C_2  and  C_3
REMARK    3  A    between atoms: C_3  and  C_4
REMARK    4  A    between atoms: C_3  and  C_5
REMARK    5  A    between atoms: C_3  and  N_6
REMARK    6  A    between atoms: C_7  and  C_9
REMARK    7  A    between atoms: C_9  and  C_10
REMARK    8  A    between atoms: C_13  and  O_14
REMARK    9  A    between atoms: O_14  and  C_15
REMARK   10  A    between atoms: C_16  and  O_17
REMARK   11  A    between atoms: O_17  and  C_18
REMARK                            x       y       z     vdW  Elec       q    Type
REMARK                         _______ _______ _______ _____ _____    ______ ____
ROOT
ATOM      1  C   UNL     1       3.479   7.381  17.722  0.00  0.00    +0.000 C 
ENDROOT
BRANCH   1   2
ATOM      2  C   UNL     1       2.672   6.364  18.486  0.00  0.00    +0.000 A 
ATOM      3  C   UNL     1       2.357   6.563  19.831  0.00  0.00    +0.000 A 
ATOM      4  C   UNL     1       1.760   5.540  20.563  0.00  0.00    +0.000 A 
ATOM      5  C   UNL     1       1.432   4.317  19.962  0.00  0.00    +0.000 A 
ATOM      6  C   UNL     1       1.696   4.122  18.594  0.00  0.00    +0.000 A 
ATOM      7  C   UNL     1       2.295   5.163  17.867  0.00  0.00    +0.000 A 
BRANCH   5   8
ATOM      8  O   UNL     1       0.941   3.398  20.854  0.00  0.00    +0.000 OA
ATOM      9  C   UNL     1       1.887   2.623  21.575  0.00  0.00    +0.000 C 
ENDBRANCH   5   8
BRANCH   6  10
ATOM     10  O   UNL     1       1.418   2.899  18.046  0.00  0.00    +0.000 OA
ATOM     11  C   UNL     1       2.505   2.036  17.742  0.00  0.00    +0.000 C 
ENDBRANCH   6  10
ENDBRANCH   1   2
BRANCH   1  13
ATOM     12  N   UNL     1       5.476   5.972  17.680  0.00  0.00    +0.000 N 
ATOM     13  C   UNL     1       4.627   6.780  16.949  0.00  0.00    +0.000 C 
ATOM     14  O   UNL     1       4.765   7.029  15.751  0.00  0.00    +0.000 OA
ATOM     15  H   UNL     1       5.225   5.751  18.630  0.00  0.00    +0.000 HD
BRANCH  12  16
ATOM     16  C   UNL     1       6.651   5.301  17.092  0.00  0.00    +0.000 C 
ATOM     17  C   UNL     1       7.426   6.281  16.188  0.00  0.00    +0.000 C 
ATOM     18  C   UNL     1       6.191   4.075  16.272  0.00  0.00    +0.000 C 
BRANCH  16  20
ATOM     19  C   UNL     1       7.753   5.692  19.424  0.00  0.00    +0.000 C 
ATOM     20  C   UNL     1       7.598   4.779  18.211  0.00  0.00    +0.000 C 
ENDBRANCH  16  20
ENDBRANCH  12  16
ENDBRANCH   1  13
TORSDOF 6
ENDMDL
MODEL 7
REMARK VINA RESULT:      -6.2      2.136      6.417
REMARK  Name = 
REMARK  11 active torsions:
REMARK  status: ('A' for Active; 'I' for Inactive)
REMARK    1  A    between atoms: C_1  and  C_2
REMARK    2  A    between atoms: C_2  and  C_3
REMARK    3  A    between atoms: C_3  and  C_4
REMARK    4  A    between atoms: C_3  and  C_5
REMARK    5  A    between atoms: C_3  and  N_6
REMARK    6  A    between atoms: C_7  and  C_9
REMARK    7  A    between atoms: C_9  and  C_10
REMARK    8  A    between atoms: C_13  and  O_14
REMARK    9  A    between atoms: O_14  and  C_15
REMARK   10  A    between atoms: C_16  and  O_17
REMARK   11  A    between atoms: O_17  and  C_18
REMARK                            x       y       z     vdW  Elec       q    Type
REMARK                         _______ _______ _______ _____ _____    ______ ____
ROOT
ATOM      1  C   UNL     1       3.301   6.344  18.364  0.00  0.00    +0.000 C 
ENDROOT
BRANCH   1   2
ATOM      2  C   UNL     1       4.421   6.151  17.375  0.00  0.00    +0.000 A 
ATOM      3  C   UNL     1       4.364   5.136  16.419  0.00  0.00    +0.000 A 
ATOM      4  C   UNL     1       5.477   4.865  15.627  0.00  0.00    +0.000 A 
ATOM      5  C   UNL     1       6.650   5.622  15.745  0.00  0.00    +0.000 A 
ATOM      6  C   UNL     1       6.703   6.682  16.668  0.00  0.00    +0.000 A 
ATOM      7  C   UNL     1       5.573   6.946  17.458  0.00  0.00    +0.000 A 
BRANCH   5   8
ATOM      8  O   UNL     1       7.671   5.154  14.957  0.00  0.00    +0.000 OA
ATOM      9  C   UNL     1       7.352   4.813  13.617  0.00  0.00    +0.000 C 
ENDBRANCH   5   8
BRANCH   6  10
ATOM     10  O   UNL     1       7.880   7.369  16.804  0.00  0.00    +0.000 OA
ATOM     11  C   UNL     1       7.925   8.449  17.726  0.00  0.00    +0.000 C 
ENDBRANCH   6  10
ENDBRANCH   1   2
BRANCH   1  13
ATOM     12  N   UNL     1       2.060   4.284  18.800  0.00  0.00    +0.000 N 
ATOM     13  C   UNL     1       3.055   5.137  19.236  0.00  0.00    +0.000 C 
ATOM     14  O   UNL     1       3.713   4.969  20.263  0.00  0.00    +0.000 OA
ATOM     15  H   UNL     1       1.645   4.455  17.898  0.00  0.00    +0.000 HD
BRANCH  12  16
ATOM     16  C   UNL     1       1.680   3.055  19.524  0.00  0.00    +0.000 C 
ATOM     17  C   UNL     1       0.544   2.328  18.778  0.00  0.00    +0.000 C 
ATOM     18  C   UNL     1       1.228   3.418  20.956  0.00  0.00    +0.000 C 
BRANCH  16  20
ATOM     19  C   UNL     1       3.513   1.626  18.337  0.00  0.00    +0.000 C 
ATOM     20  C   UNL     1       2.902   2.100  19.654  0.00  0.00    +0.000 C 
ENDBRANCH  16  20
ENDBRANCH  12  16
ENDBRANCH   1  13
TORSDOF 6
ENDMDL
MODEL 8
REMARK VINA RESULT:      -6.2      1.924      6.133
REMARK  Name = 
REMARK  11 active torsions:
REMARK  status: ('A' for Active; 'I' for Inactive)
REMARK    1  A    between atoms: C_1  and  C_2
REMARK    2  A    between atoms: C_2  and  C_3
REMARK    3  A    between atoms: C_3  and  C_4
REMARK    4  A    between atoms: C_3  and  C_5
REMARK    5  A    between atoms: C_3  and  N_6
REMARK    6  A    between atoms: C_7  and  C_9
REMARK    7  A    between atoms: C_9  and  C_10
REMARK    8  A    between atoms: C_13  and  O_14
REMARK    9  A    between atoms: O_14  and  C_15
REMARK   10  A    between atoms: C_16  and  O_17
REMARK   11  A    between atoms: O_17  and  C_18
REMARK                            x       y       z     vdW  Elec       q    Type
REMARK                         _______ _______ _______ _____ _____    ______ ____
ROOT
ATOM      1  C   UNL     1       3.772   3.420  16.691  0.00  0.00    +0.000 C 
ENDROOT
BRANCH   1   2
ATOM      2  C   UNL     1       4.811   4.494  16.884  0.00  0.00    +0.000 A 
ATOM      3  C   UNL     1       4.766   5.675  16.140  0.00  0.00    +0.000 A 
ATOM      4  C   UNL     1       5.825   6.577  16.208  0.00  0.00    +0.000 A 
ATOM      5  C   UNL     1       6.925   6.341  17.043  0.00  0.00    +0.000 A 
ATOM      6  C   UNL     1       6.958   5.180  17.837  0.00  0.00    +0.000 A 
ATOM      7  C   UNL     1       5.884   4.280  17.762  0.00  0.00    +0.000 A 
BRANCH   5   8
ATOM      8  O   UNL     1       7.911   7.286  16.909  0.00  0.00    +0.000 OA
ATOM      9  C   UNL     1       7.790   8.465  17.689  0.00  0.00    +0.000 C 
ENDBRANCH   5   8
BRANCH   6  10
ATOM     10  O   UNL     1       8.070   4.945  18.600  0.00  0.00    +0.000 OA
ATOM     11  C   UNL     1       8.123   5.509  19.903  0.00  0.00    +0.000 C 
ENDBRANCH   6  10
ENDBRANCH   1   2
BRANCH   1  13
ATOM     12  N   UNL     1       2.558   3.986  18.736  0.00  0.00    +0.000 N 
ATOM     13  C   UNL     1       3.120   2.977  17.978  0.00  0.00    +0.000 C 
ATOM     14  O   UNL     1       3.120   1.788  18.296  0.00  0.00    +0.000 OA
ATOM     15  H   UNL     1       2.523   4.914  18.347  0.00  0.00    +0.000 HD
BRANCH  12  16
ATOM     16  C   UNL     1       1.880   3.741  20.024  0.00  0.00    +0.000 C 
ATOM     17  C   UNL     1       2.791   2.920  20.957  0.00  0.00    +0.000 C 
ATOM     18  C   UNL     1       0.556   2.985  19.775  0.00  0.00    +0.000 C 
BRANCH  16  20
ATOM     19  C   UNL     1       2.173   6.332  20.119  0.00  0.00    +0.000 C 
ATOM     20  C   UNL     1       1.519   5.088  20.715  0.00  0.00    +0.000 C 
ENDBRANCH  16  20
ENDBRANCH  12  16
ENDBRANCH   1  13
TORSDOF 6
ENDMDL
MODEL 9
REMARK VINA RESULT:      -6.2      3.652      5.139
REMARK  Name = 
REMARK  11 active torsions:
REMARK  status: ('A' for Active; 'I' for Inactive)
REMARK    1  A    between atoms: C_1  and  C_2
REMARK    2  A    between atoms: C_2  and  C_3
REMARK    3  A    between atoms: C_3  and  C_4
REMARK    4  A    between atoms: C_3  and  C_5
REMARK    5  A    between atoms: C_3  and  N_6
REMARK    6  A    between atoms: C_7  and  C_9
REMARK    7  A    between atoms: C_9  and  C_10
REMARK    8  A    between atoms: C_13  and  O_14
REMARK    9  A    between atoms: O_14  and  C_15
REMARK   10  A    between atoms: C_16  and  O_17
REMARK   11  A    between atoms: O_17  and  C_18
REMARK                            x       y       z     vdW  Elec       q    Type
REMARK                         _______ _______ _______ _____ _____    ______ ____
ROOT
ATOM      1  C   UNL     1       6.916   4.338  15.961  0.00  0.00    +0.000 C 
ENDROOT
BRANCH   1   2
ATOM      2  C   UNL     1       5.592   4.787  16.524  0.00  0.00    +0.000 A 
ATOM      3  C   UNL     1       5.312   6.144  16.699  0.00  0.00    +0.000 A 
ATOM      4  C   UNL     1       4.158   6.532  17.376  0.00  0.00    +0.000 A 
ATOM      5  C   UNL     1       3.246   5.581  17.853  0.00  0.00    +0.000 A 
ATOM      6  C   UNL     1       3.489   4.213  17.637  0.00  0.00    +0.000 A 
ATOM      7  C   UNL     1       4.655   3.836  16.952  0.00  0.00    +0.000 A 
BRANCH   5   8
ATOM      8  O   UNL     1       2.221   6.140  18.574  0.00  0.00    +0.000 OA
ATOM      9  C   UNL     1       2.411   7.461  19.056  0.00  0.00    +0.000 C 
ENDBRANCH   5   8
BRANCH   6  10
ATOM     10  O   UNL     1       2.612   3.304  18.164  0.00  0.00    +0.000 OA
ATOM     11  C   UNL     1       2.991   1.935  18.178  0.00  0.00    +0.000 C 
ENDBRANCH   6  10
ENDBRANCH   1   2
BRANCH   1  13
ATOM     12  N   UNL     1       6.397   3.494  13.726  0.00  0.00    +0.000 N 
ATOM     13  C   UNL     1       7.013   4.488  14.462  0.00  0.00    +0.000 C 
ATOM     14  O   UNL     1       7.620   5.441  13.972  0.00  0.00    +0.000 OA
ATOM     15  H   UNL     1       5.844   2.810  14.215  0.00  0.00    +0.000 HD
BRANCH  12  16
ATOM     16  C   UNL     1       6.391   3.475  12.250  0.00  0.00    +0.000 C 
ATOM     17  C   UNL     1       7.159   4.692  11.699  0.00  0.00    +0.000 C 
ATOM     18  C   UNL     1       4.933   3.491  11.739  0.00  0.00    +0.000 C 
BRANCH  16  20
ATOM     19  C   UNL     1       6.095   1.144  11.115  0.00  0.00    +0.000 C 
ATOM     20  C   UNL     1       7.051   2.169  11.720  0.00  0.00    +0.000 C 
ENDBRANCH  16  20
ENDBRANCH  12  16
ENDBRANCH   1  13
TORSDOF 6
ENDMDL
