MODEL 1
REMARK VINA RESULT:      -6.4      0.000      0.000
REMARK  Name = 
REMARK  11 active torsions:
REMARK  status: ('A' for Active; 'I' for Inactive)
REMARK    1  A    between atoms: C_1  and  C_2
REMARK    2  A    between atoms: C_2  and  O_3
REMARK    3  A    between atoms: O_3  and  C_4
REMARK    4  A    between atoms: C_4  and  C_5
REMARK    5  A    between atoms: C_4  and  C_6
REMARK    6  A    between atoms: C_8  and  C_9
REMARK    7  A    between atoms: C_9  and  C_10
REMARK    8  A    between atoms: C_14  and  C_15
REMARK    9  A    between atoms: C_16  and  N_17
REMARK   10  A    between atoms: N_17  and  C_18
REMARK   11  A    between atoms: N_17  and  C_19
REMARK                            x       y       z     vdW  Elec       q    Type
REMARK                         _______ _______ _______ _____ _____    ______ ____
ROOT
ATOM      1  C   UNL     1       6.792   4.441  16.347  0.00  0.00    +0.000 C 
ENDROOT
BRANCH   1   2
ATOM      2  C   UNL     1       5.876   5.508  16.922  0.00  0.00    +0.000 C 
ATOM      3  O   UNL     1       6.318   6.623  17.210  0.00  0.00    +0.000 OA
ATOM      4  N   UNL     1       4.531   5.200  17.024  0.00  0.00    +0.000 N 
ATOM      5  C   UNL     1       3.540   6.198  17.377  0.00  0.00    +0.000 C 
ATOM      6  C   UNL     1       2.660   5.511  18.423  0.00  0.00    +0.000 C 
ATOM      7  C   UNL     1       3.281   5.690  19.812  0.00  0.00    +0.000 C 
ATOM      8  C   UNL     1       2.611   4.046  17.905  0.00  0.00    +0.000 C 
ATOM      9  C   UNL     1       4.027   3.860  17.291  0.00  0.00    +0.000 C 
BRANCH   8  10
ATOM     10  N   UNL     1       2.238   3.033  18.913  0.00  0.00    +0.000 NA
ATOM     11  C   UNL     1       0.928   2.429  18.644  0.00  0.00    +0.000 C 
ATOM     12  C   UNL     1       3.237   1.971  19.039  0.00  0.00    +0.000 C 
ENDBRANCH   8  10
ENDBRANCH   1   2
BRANCH   1  15
ATOM     13  C   UNL     1       6.047   3.613  12.906  0.00  0.00    +0.000 A 
ATOM     14  N   UNL     1       5.981   3.470  14.218  0.00  0.00    +0.000 NA
ATOM     15  C   UNL     1       6.827   4.374  14.857  0.00  0.00    +0.000 A 
ATOM     16  C   UNL     1       7.563   5.169  14.002  0.00  0.00    +0.000 A 
ATOM     17  S   UNL     1       7.167   4.812  12.372  0.00  0.00    +0.000 S 
BRANCH  13  18
ATOM     18  C   UNL     1       5.243   2.786  11.921  0.00  0.00    +0.000 C 
ATOM     19  C   UNL     1       6.128   1.767  11.202  0.00  0.00    +0.000 C 
BRANCH  18  20
ATOM     20  O   UNL     1       4.607   3.686  10.997  0.00  0.00    +0.000 OA
BRANCH  20  22
ATOM     21  C   UNL     1       2.800   4.190   9.509  0.00  0.00    +0.000 C 
ATOM     22  C   UNL     1       3.281   3.302  10.641  0.00  0.00    +0.000 C 
ENDBRANCH  20  22
ENDBRANCH  18  20
ENDBRANCH  13  18
ENDBRANCH   1  15
TORSDOF 6
ENDMDL
MODEL 2
REMARK VINA RESULT:      -6.1      4.891      8.853
REMARK  Name = 
REMARK  11 active torsions:
REMARK  status: ('A' for Active; 'I' for Inactive)
REMARK    1  A    between atoms: C_1  and  C_2
REMARK    2  A    between atoms: C_2  and  O_3
REMARK    3  A    between atoms: O_3  and  C_4
REMARK    4  A    between atoms: C_4  and  C_5
REMARK    5  A    between atoms: C_4  and  C_6
REMARK    6  A    between atoms: C_8  and  C_9
REMARK    7  A    between atoms: C_9  and  C_10
REMARK    8  A    between atoms: C_14  and  C_15
REMARK    9  A    between atoms: C_16  and  N_17
REMARK   10  A    between atoms: N_17  and  C_18
REMARK   11  A    between atoms: N_17  and  C_19
REMARK                            x       y       z     vdW  Elec       q    Type
REMARK                         _______ _______ _______ _____ _____    ______ ____
ROOT
ATOM      1  C   UNL     1       2.491   6.645  20.331  0.00  0.00    +0.000 C 
ENDROOT
BRANCH   1   2
ATOM      2  C   UNL     1       1.955   5.342  19.763  0.00  0.00    +0.000 C 
ATOM      3  O   UNL     1       1.108   4.692  20.380  0.00  0.00    +0.000 OA
ATOM      4  N   UNL     1       2.393   4.972  18.504  0.00  0.00    +0.000 N 
ATOM      5  C   UNL     1       1.810   3.854  17.786  0.00  0.00    +0.000 C 
ATOM      6  C   UNL     1       3.011   3.082  17.239  0.00  0.00    +0.000 C 
ATOM      7  C   UNL     1       3.510   2.093  18.297  0.00  0.00    +0.000 C 
ATOM      8  C   UNL     1       4.005   4.223  16.881  0.00  0.00    +0.000 C 
ATOM      9  C   UNL     1       3.721   5.274  17.989  0.00  0.00    +0.000 C 
BRANCH   8  10
ATOM     10  N   UNL     1       5.420   3.813  16.765  0.00  0.00    +0.000 NA
ATOM     11  C   UNL     1       5.930   3.937  15.395  0.00  0.00    +0.000 C 
ATOM     12  C   UNL     1       6.296   4.559  17.671  0.00  0.00    +0.000 C 
ENDBRANCH   8  10
ENDBRANCH   1   2
BRANCH   1  15
ATOM     13  C   UNL     1       0.639   9.739  20.049  0.00  0.00    +0.000 A 
ATOM     14  N   UNL     1       1.031   8.623  20.637  0.00  0.00    +0.000 NA
ATOM     15  C   UNL     1       1.851   7.881  19.790  0.00  0.00    +0.000 A 
ATOM     16  C   UNL     1       2.033   8.437  18.540  0.00  0.00    +0.000 A 
ATOM     17  S   UNL     1       1.197   9.930  18.428  0.00  0.00    +0.000 S 
BRANCH  13  18
ATOM     18  C   UNL     1      -0.258  10.774  20.705  0.00  0.00    +0.000 C 
ATOM     19  C   UNL     1      -0.249  12.088  19.924  0.00  0.00    +0.000 C 
BRANCH  18  20
ATOM     20  O   UNL     1       0.189  10.955  22.060  0.00  0.00    +0.000 OA
BRANCH  20  22
ATOM     21  C   UNL     1      -1.843  11.572  23.166  0.00  0.00    +0.000 C 
ATOM     22  C   UNL     1      -0.754  10.524  23.038  0.00  0.00    +0.000 C 
ENDBRANCH  20  22
ENDBRANCH  18  20
ENDBRANCH  13  18
ENDBRANCH   1  15
TORSDOF 6
ENDMDL
MODEL 3
REMARK VINA RESULT:      -6.0      4.496      6.446
REMARK  Name = 
REMARK  11 active torsions:
REMARK  status: ('A' for Active; 'I' for Inactive)
REMARK    1  A    between atoms: C_1  and  C_2
REMARK    2  A    between atoms: C_2  and  O_3
REMARK    3  A    between atoms: O_3  and  C_4
REMARK    4  A    between atoms: C_4  and  C_5
REMARK    5  A    between atoms: C_4  and  C_6
REMARK    6  A    between atoms: C_8  and  C_9
REMARK    7  A    between atoms: C_9  and  C_10
REMARK    8  A    between atoms: C_14  and  C_15
REMARK    9  A    between atoms: C_16  and  N_17
REMARK   10  A    between atoms: N_17  and  C_18
REMARK   11  A    between atoms: N_17  and  C_19
REMARK                            x       y       z     vdW  Elec       q    Type
REMARK                         _______ _______ _______ _____ _____    ______ ____
ROOT
ATOM      1  C   UNL     1       2.570   6.922  19.528  0.00  0.00    +0.000 C 
ENDROOT
BRANCH   1   2
ATOM      2  C   UNL     1       2.126   8.223  18.880  0.00  0.00    +0.000 C 
ATOM      3  O   UNL     1       2.702   8.651  17.878  0.00  0.00    +0.000 OA
ATOM      4  N   UNL     1       1.010   8.846  19.411  0.00  0.00    +0.000 N 
ATOM      5  C   UNL     1       0.385   9.983  18.762  0.00  0.00    +0.000 C 
ATOM      6  C   UNL     1       0.135  10.980  19.895  0.00  0.00    +0.000 C 
ATOM      7  C   UNL     1       1.387  11.838  20.109  0.00  0.00    +0.000 C 
ATOM      8  C   UNL     1      -0.238  10.047  21.082  0.00  0.00    +0.000 C 
ATOM      9  C   UNL     1       0.654   8.801  20.822  0.00  0.00    +0.000 C 
BRANCH   8  10
ATOM     10  N   UNL     1      -0.087  10.645  22.424  0.00  0.00    +0.000 NA
ATOM     11  C   UNL     1      -1.167  11.586  22.745  0.00  0.00    +0.000 C 
ATOM     12  C   UNL     1      -0.002   9.637  23.482  0.00  0.00    +0.000 C 
ENDBRANCH   8  10
ENDBRANCH   1   2
BRANCH   1  15
ATOM     13  C   UNL     1       4.589   4.800  17.407  0.00  0.00    +0.000 A 
ATOM     14  N   UNL     1       4.333   5.863  18.147  0.00  0.00    +0.000 NA
ATOM     15  C   UNL     1       3.007   5.859  18.577  0.00  0.00    +0.000 A 
ATOM     16  C   UNL     1       2.260   4.796  18.111  0.00  0.00    +0.000 A 
ATOM     17  S   UNL     1       3.235   3.763  17.150  0.00  0.00    +0.000 S 
BRANCH  13  18
ATOM     18  C   UNL     1       5.943   4.502  16.790  0.00  0.00    +0.000 C 
ATOM     19  C   UNL     1       7.077   4.808  17.770  0.00  0.00    +0.000 C 
BRANCH  18  20
ATOM     20  O   UNL     1       6.061   5.271  15.580  0.00  0.00    +0.000 OA
BRANCH  20  22
ATOM     21  C   UNL     1       6.056   3.889  13.625  0.00  0.00    +0.000 C 
ATOM     22  C   UNL     1       6.909   4.676  14.602  0.00  0.00    +0.000 C 
ENDBRANCH  20  22
ENDBRANCH  18  20
ENDBRANCH  13  18
ENDBRANCH   1  15
TORSDOF 6
ENDMDL
MODEL 4
REMARK VINA RESULT:      -6.0      1.303      1.723
REMARK  Name = 
REMARK  11 active torsions:
REMARK  status: ('A' for Active; 'I' for Inactive)
REMARK    1  A    between atoms: C_1  and  C_2
REMARK    2  A    between atoms: C_2  and  O_3
REMARK    3  A    between atoms: O_3  and  C_4
REMARK    4  A    between atoms: C_4  and  C_5
REMARK    5  A    between atoms: C_4  and  C_6
REMARK    6  A    between atoms: C_8  and  C_9
REMARK    7  A    between atoms: C_9  and  C_10
REMARK    8  A    between atoms: C_14  and  C_15
REMARK    9  A    between atoms: C_16  and  N_17
REMARK   10  A    between atoms: N_17  and  C_18
REMARK   11  A    between atoms: N_17  and  C_19
REMARK                            x       y       z     vdW  Elec       q    Type
REMARK                         _______ _______ _______ _____ _____    ______ ____
ROOT
ATOM      1  C   UNL     1       5.638   5.553  15.569  0.00  0.00    +0.000 C 
ENDROOT
BRANCH   1   2
ATOM      2  C   UNL     1       6.074   4.928  16.883  0.00  0.00    +0.000 C 
ATOM      3  O   UNL     1       7.179   4.390  16.983  0.00  0.00    +0.000 OA
ATOM      4  N   UNL     1       5.221   5.065  17.963  0.00  0.00    +0.000 N 
ATOM      5  C   UNL     1       5.614   4.678  19.305  0.00  0.00    +0.000 C 
ATOM      6  C   UNL     1       4.413   3.899  19.845  0.00  0.00    +0.000 C 
ATOM      7  C   UNL     1       4.526   2.429  19.429  0.00  0.00    +0.000 C 
ATOM      8  C   UNL     1       3.212   4.670  19.229  0.00  0.00    +0.000 C 
ATOM      9  C   UNL     1       3.770   5.110  17.847  0.00  0.00    +0.000 C 
BRANCH   8  10
ATOM     10  N   UNL     1       1.943   3.916  19.171  0.00  0.00    +0.000 NA
ATOM     11  C   UNL     1       1.002   4.318  20.223  0.00  0.00    +0.000 C 
ATOM     12  C   UNL     1       1.281   4.030  17.870  0.00  0.00    +0.000 C 
ENDBRANCH   8  10
ENDBRANCH   1   2
BRANCH   1  15
ATOM     13  C   UNL     1       5.898   3.489  12.610  0.00  0.00    +0.000 A 
ATOM     14  N   UNL     1       5.354   3.907  13.739  0.00  0.00    +0.000 NA
ATOM     15  C   UNL     1       6.154   4.875  14.343  0.00  0.00    +0.000 A 
ATOM     16  C   UNL     1       7.329   5.145  13.671  0.00  0.00    +0.000 A 
ATOM     17  S   UNL     1       7.424   4.204  12.241  0.00  0.00    +0.000 S 
BRANCH  13  18
ATOM     18  C   UNL     1       5.274   2.442  11.705  0.00  0.00    +0.000 C 
ATOM     19  C   UNL     1       6.306   1.399  11.273  0.00  0.00    +0.000 C 
BRANCH  18  20
ATOM     20  O   UNL     1       4.693   3.118  10.576  0.00  0.00    +0.000 OA
BRANCH  20  22
ATOM     21  C   UNL     1       2.838   4.248   9.570  0.00  0.00    +0.000 C 
ATOM     22  C   UNL     1       3.293   3.350  10.705  0.00  0.00    +0.000 C 
ENDBRANCH  20  22
ENDBRANCH  18  20
ENDBRANCH  13  18
ENDBRANCH   1  15
TORSDOF 6
ENDMDL
MODEL 5
REMARK VINA RESULT:      -5.9      4.238      6.465
REMARK  Name = 
REMARK  11 active torsions:
REMARK  status: ('A' for Active; 'I' for Inactive)
REMARK    1  A    between atoms: C_1  and  C_2
REMARK    2  A    between atoms: C_2  and  O_3
REMARK    3  A    between atoms: O_3  and  C_4
REMARK    4  A    between atoms: C_4  and  C_5
REMARK    5  A    between atoms: C_4  and  C_6
REMARK    6  A    between atoms: C_8  and  C_9
REMARK    7  A    between atoms: C_9  and  C_10
REMARK    8  A    between atoms: C_14  and  C_15
REMARK    9  A    between atoms: C_16  and  N_17
REMARK   10  A    between atoms: N_17  and  C_18
REMARK   11  A    between atoms: N_17  and  C_19
REMARK                            x       y       z     vdW  Elec       q    Type
REMARK                         _______ _______ _______ _____ _____    ______ ____
ROOT
ATOM      1  C   UNL     1       2.344   6.752  18.268  0.00  0.00    +0.000 C 
ENDROOT
BRANCH   1   2
ATOM      2  C   UNL     1       2.068   6.943  19.750  0.00  0.00    +0.000 C 
ATOM      3  O   UNL     1       2.138   5.990  20.528  0.00  0.00    +0.000 OA
ATOM      4  N   UNL     1       1.823   8.233  20.187  0.00  0.00    +0.000 N 
ATOM      5  C   UNL     1       1.736   8.563  21.597  0.00  0.00    +0.000 C 
ATOM      6  C   UNL     1       0.498   9.455  21.705  0.00  0.00    +0.000 C 
ATOM      7  C   UNL     1      -0.751   8.582  21.870  0.00  0.00    +0.000 C 
ATOM      8  C   UNL     1       0.562  10.274  20.385  0.00  0.00    +0.000 C 
ATOM      9  C   UNL     1       1.154   9.246  19.381  0.00  0.00    +0.000 C 
BRANCH   8  10
ATOM     10  N   UNL     1      -0.714  10.886  19.961  0.00  0.00    +0.000 NA
ATOM     11  C   UNL     1      -0.695  12.350  20.061  0.00  0.00    +0.000 C 
ATOM     12  C   UNL     1      -1.094  10.505  18.600  0.00  0.00    +0.000 C 
ENDBRANCH   8  10
ENDBRANCH   1   2
BRANCH   1  15
ATOM     13  C   UNL     1       5.445   4.954  17.783  0.00  0.00    +0.000 A 
ATOM     14  N   UNL     1       4.694   6.023  17.978  0.00  0.00    +0.000 NA
ATOM     15  C   UNL     1       3.342   5.690  17.943  0.00  0.00    +0.000 A 
ATOM     16  C   UNL     1       3.089   4.360  17.674  0.00  0.00    +0.000 A 
ATOM     17  S   UNL     1       4.562   3.500  17.498  0.00  0.00    +0.000 S 
BRANCH  13  18
ATOM     18  C   UNL     1       6.963   4.975  17.769  0.00  0.00    +0.000 C 
ATOM     19  C   UNL     1       7.498   6.396  17.944  0.00  0.00    +0.000 C 
BRANCH  18  20
ATOM     20  O   UNL     1       7.405   4.386  16.533  0.00  0.00    +0.000 OA
BRANCH  20  22
ATOM     21  C   UNL     1       6.563   4.167  14.302  0.00  0.00    +0.000 C 
ATOM     22  C   UNL     1       7.032   5.131  15.376  0.00  0.00    +0.000 C 
ENDBRANCH  20  22
ENDBRANCH  18  20
ENDBRANCH  13  18
ENDBRANCH   1  15
TORSDOF 6
ENDMDL
MODEL 6
REMARK VINA RESULT:      -5.9      4.942      8.093
REMARK  Name = 
REMARK  11 active torsions:
REMARK  status: ('A' for Active; 'I' for Inactive)
REMARK    1  A    between atoms: C_1  and  C_2
REMARK    2  A    between atoms: C_2  and  O_3
REMARK    3  A    between atoms: O_3  and  C_4
REMARK    4  A    between atoms: C_4  and  C_5
REMARK    5  A    between atoms: C_4  and  C_6
REMARK    6  A    between atoms: C_8  and  C_9
REMARK    7  A    between atoms: C_9  and  C_10
REMARK    8  A    between atoms: C_14  and  C_15
REMARK    9  A    between atoms: C_16  and  N_17
REMARK   10  A    between atoms: N_17  and  C_18
REMARK   11  A    between atoms: N_17  and  C_19
REMARK                            x       y       z     vdW  Elec       q    Type
REMARK                         _______ _______ _______ _____ _____    ______ ____
ROOT
ATOM      1  C   UNL     1       2.792   7.079  19.685  0.00  0.00    +0.000 C 
ENDROOT
BRANCH   1   2
ATOM      2  C   UNL     1       2.247   5.700  19.353  0.00  0.00    +0.000 C 
ATOM      3  O   UNL     1       1.452   5.142  20.113  0.00  0.00    +0.000 OA
ATOM      4  N   UNL     1       2.615   5.149  18.139  0.00  0.00    +0.000 N 
ATOM      5  C   UNL     1       2.009   3.931  17.633  0.00  0.00    +0.000 C 
ATOM      6  C   UNL     1       3.189   3.097  17.133  0.00  0.00    +0.000 C 
ATOM      7  C   UNL     1       3.770   2.282  18.294  0.00  0.00    +0.000 C 
ATOM      8  C   UNL     1       4.138   4.180  16.546  0.00  0.00    +0.000 C 
ATOM      9  C   UNL     1       3.903   5.384  17.502  0.00  0.00    +0.000 C 
BRANCH   8  10
ATOM     10  N   UNL     1       5.550   3.771  16.404  0.00  0.00    +0.000 NA
ATOM     11  C   UNL     1       6.013   3.824  15.013  0.00  0.00    +0.000 C 
ATOM     12  C   UNL     1       6.452   4.568  17.238  0.00  0.00    +0.000 C 
ENDBRANCH   8  10
ENDBRANCH   1   2
BRANCH   1  15
ATOM     13  C   UNL     1       0.324   9.720  19.573  0.00  0.00    +0.000 A 
ATOM     14  N   UNL     1       1.308   8.974  19.103  0.00  0.00    +0.000 NA
ATOM     15  C   UNL     1       1.764   8.088  20.076  0.00  0.00    +0.000 A 
ATOM     16  C   UNL     1       1.136   8.211  21.299  0.00  0.00    +0.000 A 
ATOM     17  S   UNL     1      -0.070   9.427  21.227  0.00  0.00    +0.000 S 
BRANCH  13  18
ATOM     18  C   UNL     1      -0.398  10.781  18.763  0.00  0.00    +0.000 C 
ATOM     19  C   UNL     1      -1.456  11.495  19.605  0.00  0.00    +0.000 C 
BRANCH  18  20
ATOM     20  O   UNL     1      -0.973  10.146  17.608  0.00  0.00    +0.000 OA
BRANCH  20  22
ATOM     21  C   UNL     1      -2.963   9.921  16.295  0.00  0.00    +0.000 C 
ATOM     22  C   UNL     1      -2.384   9.961  17.697  0.00  0.00    +0.000 C 
ENDBRANCH  20  22
ENDBRANCH  18  20
ENDBRANCH  13  18
ENDBRANCH   1  15
TORSDOF 6
ENDMDL
MODEL 7
REMARK VINA RESULT:      -5.9      1.477      2.103
REMARK  Name = 
REMARK  11 active torsions:
REMARK  status: ('A' for Active; 'I' for Inactive)
REMARK    1  A    between atoms: C_1  and  C_2
REMARK    2  A    between atoms: C_2  and  O_3
REMARK    3  A    between atoms: O_3  and  C_4
REMARK    4  A    between atoms: C_4  and  C_5
REMARK    5  A    between atoms: C_4  and  C_6
REMARK    6  A    between atoms: C_8  and  C_9
REMARK    7  A    between atoms: C_9  and  C_10
REMARK    8  A    between atoms: C_14  and  C_15
REMARK    9  A    between atoms: C_16  and  N_17
REMARK   10  A    between atoms: N_17  and  C_18
REMARK   11  A    between atoms: N_17  and  C_19
REMARK                            x       y       z     vdW  Elec       q    Type
REMARK                         _______ _______ _______ _____ _____    ______ ____
ROOT
ATOM      1  C   UNL     1       6.036   4.393  16.641  0.00  0.00    +0.000 C 
ENDROOT
BRANCH   1   2
ATOM      2  C   UNL     1       4.750   5.159  16.900  0.00  0.00    +0.000 C 
ATOM      3  O   UNL     1       4.615   6.314  16.489  0.00  0.00    +0.000 OA
ATOM      4  N   UNL     1       3.725   4.480  17.535  0.00  0.00    +0.000 N 
ATOM      5  C   UNL     1       2.395   5.044  17.664  0.00  0.00    +0.000 C 
ATOM      6  C   UNL     1       2.006   4.778  19.119  0.00  0.00    +0.000 C 
ATOM      7  C   UNL     1       2.533   5.912  20.006  0.00  0.00    +0.000 C 
ATOM      8  C   UNL     1       2.641   3.383  19.383  0.00  0.00    +0.000 C 
ATOM      9  C   UNL     1       3.940   3.440  18.531  0.00  0.00    +0.000 C 
BRANCH   8  10
ATOM     10  N   UNL     1       2.851   3.046  20.806  0.00  0.00    +0.000 NA
ATOM     11  C   UNL     1       1.629   2.549  21.451  0.00  0.00    +0.000 C 
ATOM     12  C   UNL     1       3.924   2.070  20.999  0.00  0.00    +0.000 C 
ENDBRANCH   8  10
ENDBRANCH   1   2
BRANCH   1  15
ATOM     13  C   UNL     1       6.399   3.852  13.083  0.00  0.00    +0.000 A 
ATOM     14  N   UNL     1       5.935   3.604  14.295  0.00  0.00    +0.000 NA
ATOM     15  C   UNL     1       6.529   4.445  15.233  0.00  0.00    +0.000 A 
ATOM     16  C   UNL     1       7.481   5.298  14.712  0.00  0.00    +0.000 A 
ATOM     17  S   UNL     1       7.612   5.077  13.017  0.00  0.00    +0.000 S 
BRANCH  13  18
ATOM     18  C   UNL     1       5.950   3.114  11.835  0.00  0.00    +0.000 C 
ATOM     19  C   UNL     1       4.428   3.140  11.696  0.00  0.00    +0.000 C 
BRANCH  18  20
ATOM     20  O   UNL     1       6.457   1.770  11.905  0.00  0.00    +0.000 OA
BRANCH  20  22
ATOM     21  C   UNL     1       6.075  -0.522  11.329  0.00  0.00    +0.000 C 
ATOM     22  C   UNL     1       5.975   0.920  10.868  0.00  0.00    +0.000 C 
ENDBRANCH  20  22
ENDBRANCH  18  20
ENDBRANCH  13  18
ENDBRANCH   1  15
TORSDOF 6
ENDMDL
MODEL 8
REMARK VINA RESULT:      -5.9      4.871      8.678
REMARK  Name = 
REMARK  11 active torsions:
REMARK  status: ('A' for Active; 'I' for Inactive)
REMARK    1  A    between atoms: C_1  and  C_2
REMARK    2  A    between atoms: C_2  and  O_3
REMARK    3  A    between atoms: O_3  and  C_4
REMARK    4  A    between atoms: C_4  and  C_5
REMARK    5  A    between atoms: C_4  and  C_6
REMARK    6  A    between atoms: C_8  and  C_9
REMARK    7  A    between atoms: C_9  and  C_10
REMARK    8  A    between atoms: C_14  and  C_15
REMARK    9  A    between atoms: C_16  and  N_17
REMARK   10  A    between atoms: N_17  and  C_18
REMARK   11  A    between atoms: N_17  and  C_19
REMARK                            x       y       z     vdW  Elec       q    Type
REMARK                         _______ _______ _______ _____ _____    ______ ____
ROOT
ATOM      1  C   UNL     1       2.597   6.704  20.218  0.00  0.00    +0.000 C 
ENDROOT
BRANCH   1   2
ATOM      2  C   UNL     1       2.050   5.395  19.673  0.00  0.00    +0.000 C 
ATOM      3  O   UNL     1       1.206   4.758  20.307  0.00  0.00    +0.000 OA
ATOM      4  N   UNL     1       2.475   5.006  18.415  0.00  0.00    +0.000 N 
ATOM      5  C   UNL     1       1.879   3.883  17.718  0.00  0.00    +0.000 C 
ATOM      6  C   UNL     1       3.072   3.097  17.170  0.00  0.00    +0.000 C 
ATOM      7  C   UNL     1       3.576   2.120  18.237  0.00  0.00    +0.000 C 
ATOM      8  C   UNL     1       4.068   4.229  16.787  0.00  0.00    +0.000 C 
ATOM      9  C   UNL     1       3.799   5.296  17.884  0.00  0.00    +0.000 C 
BRANCH   8  10
ATOM     10  N   UNL     1       5.479   3.811  16.664  0.00  0.00    +0.000 NA
ATOM     11  C   UNL     1       5.964   3.872  15.280  0.00  0.00    +0.000 C 
ATOM     12  C   UNL     1       6.373   4.595  17.518  0.00  0.00    +0.000 C 
ENDBRANCH   8  10
ENDBRANCH   1   2
BRANCH   1  15
ATOM     13  C   UNL     1       0.632   9.740  20.164  0.00  0.00    +0.000 A 
ATOM     14  N   UNL     1       1.105   8.625  20.690  0.00  0.00    +0.000 NA
ATOM     15  C   UNL     1       1.877   7.929  19.762  0.00  0.00    +0.000 A 
ATOM     16  C   UNL     1       1.940   8.519  18.516  0.00  0.00    +0.000 A 
ATOM     17  S   UNL     1       1.051   9.986  18.509  0.00  0.00    +0.000 S 
BRANCH  13  18
ATOM     18  C   UNL     1      -0.241  10.728  20.915  0.00  0.00    +0.000 C 
ATOM     19  C   UNL     1      -1.183  11.468  19.965  0.00  0.00    +0.000 C 
BRANCH  18  20
ATOM     20  O   UNL     1       0.621  11.635  21.625  0.00  0.00    +0.000 OA
BRANCH  20  22
ATOM     21  C   UNL     1       2.097  13.200  20.575  0.00  0.00    +0.000 C 
ATOM     22  C   UNL     1       0.681  12.938  21.052  0.00  0.00    +0.000 C 
ENDBRANCH  20  22
ENDBRANCH  18  20
ENDBRANCH  13  18
ENDBRANCH   1  15
TORSDOF 6
ENDMDL
MODEL 9
REMARK VINA RESULT:      -5.8      4.801      7.121
REMARK  Name = 
REMARK  11 active torsions:
REMARK  status: ('A' for Active; 'I' for Inactive)
REMARK    1  A    between atoms: C_1  and  C_2
REMARK    2  A    between atoms: C_2  and  O_3
REMARK    3  A    between atoms: O_3  and  C_4
REMARK    4  A    between atoms: C_4  and  C_5
REMARK    5  A    between atoms: C_4  and  C_6
REMARK    6  A    between atoms: C_8  and  C_9
REMARK    7  A    between atoms: C_9  and  C_10
REMARK    8  A    between atoms: C_14  and  C_15
REMARK    9  A    between atoms: C_16  and  N_17
REMARK   10  A    between atoms: N_17  and  C_18
REMARK   11  A    between atoms: N_17  and  C_19
REMARK                            x       y       z     vdW  Elec       q    Type
REMARK                         _______ _______ _______ _____ _____    ______ ____
ROOT
ATOM      1  C   UNL     1       2.339   7.345  19.215  0.00  0.00    +0.000 C 
ENDROOT
BRANCH   1   2
ATOM      2  C   UNL     1       1.864   8.611  18.524  0.00  0.00    +0.000 C 
ATOM      3  O   UNL     1       2.422   9.013  17.500  0.00  0.00    +0.000 OA
ATOM      4  N   UNL     1       0.741   9.232  19.042  0.00  0.00    +0.000 N 
ATOM      5  C   UNL     1       0.087  10.331  18.358  0.00  0.00    +0.000 C 
ATOM      6  C   UNL     1      -0.173  11.364  19.455  0.00  0.00    +0.000 C 
ATOM      7  C   UNL     1       1.063  12.254  19.625  0.00  0.00    +0.000 C 
ATOM      8  C   UNL     1      -0.516  10.469  20.680  0.00  0.00    +0.000 C 
ATOM      9  C   UNL     1       0.398   9.232  20.457  0.00  0.00    +0.000 C 
BRANCH   8  10
ATOM     10  N   UNL     1      -0.366  11.119  21.997  0.00  0.00    +0.000 NA
ATOM     11  C   UNL     1      -1.430  12.093  22.268  0.00  0.00    +0.000 C 
ATOM     12  C   UNL     1      -0.311  10.154  23.097  0.00  0.00    +0.000 C 
ENDBRANCH   8  10
ENDBRANCH   1   2
BRANCH   1  15
ATOM     13  C   UNL     1       4.805   5.769  17.088  0.00  0.00    +0.000 A 
ATOM     14  N   UNL     1       4.244   6.774  17.738  0.00  0.00    +0.000 NA
ATOM     15  C   UNL     1       3.051   6.372  18.333  0.00  0.00    +0.000 A 
ATOM     16  C   UNL     1       2.701   5.060  18.084  0.00  0.00    +0.000 A 
ATOM     17  S   UNL     1       3.900   4.301  17.120  0.00  0.00    +0.000 S 
BRANCH  13  18
ATOM     18  C   UNL     1       6.119   5.873  16.336  0.00  0.00    +0.000 C 
ATOM     19  C   UNL     1       7.070   4.741  16.726  0.00  0.00    +0.000 C 
BRANCH  18  20
ATOM     20  O   UNL     1       6.688   7.166  16.609  0.00  0.00    +0.000 OA
BRANCH  20  22
ATOM     21  C   UNL     1       8.135   8.574  17.895  0.00  0.00    +0.000 C 
ATOM     22  C   UNL     1       7.692   7.149  17.620  0.00  0.00    +0.000 C 
ENDBRANCH  20  22
ENDBRANCH  18  20
ENDBRANCH  13  18
ENDBRANCH   1  15
TORSDOF 6
ENDMDL
