MODEL 1
REMARK VINA RESULT:      -5.7      0.000      0.000
REMARK  Name = 
REMARK  5 active torsions:
REMARK  status: ('A' for Active; 'I' for Inactive)
REMARK    1  A    between atoms: C_2  and  C_3
REMARK    2  A    between atoms: C_3  and  S_4
REMARK    3  A    between atoms: S_4  and  C_5
REMARK    4  A    between atoms: C_5  and  C_6
REMARK    5  A    between atoms: N_8  and  C_9
REMARK                            x       y       z     vdW  Elec       q    Type
REMARK                         _______ _______ _______ _____ _____    ______ ____
ROOT
ATOM      1  C   UNL     1       4.452   4.965  17.270  0.00  0.00    +0.000 C 
ATOM      2  O   UNL     1       5.092   3.967  17.605  0.00  0.00    +0.000 OA
ATOM      3  N   UNL     1       3.154   5.262  17.646  0.00  0.00    +0.000 N 
ATOM      4  H   UNL     1       2.692   6.037  17.182  0.00  0.00    +0.000 HD
ENDROOT
BRANCH   3   5
ATOM      5  C   UNL     1       2.366   4.513  18.549  0.00  0.00    +0.000 A 
ATOM      6  C   UNL     1       1.636   3.384  18.166  0.00  0.00    +0.000 A 
ATOM      7  C   UNL     1       0.841   2.697  19.085  0.00  0.00    +0.000 A 
ATOM      8  C   UNL     1       0.774   3.128  20.405  0.00  0.00    +0.000 A 
ATOM      9  C   UNL     1       1.519   4.232  20.810  0.00  0.00    +0.000 A 
ATOM     10  C   UNL     1       2.322   4.917  19.889  0.00  0.00    +0.000 A 
ENDBRANCH   3   5
BRANCH   1  11
ATOM     11  C   UNL     1       5.119   6.016  16.403  0.00  0.00    +0.000 C 
BRANCH  11  12
ATOM     12  S   UNL     1       6.924   5.714  16.319  0.00  0.00    +0.000 S 
BRANCH  12  13
ATOM     13  C   UNL     1       7.518   6.751  17.725  0.00  0.00    +0.000 C 
BRANCH  13  15
ATOM     14  N   UNL     1       7.698   5.328  20.108  0.00  0.00    +0.000 NA
ATOM     15  C   UNL     1       7.616   5.973  19.027  0.00  0.00    +0.000 C 
ENDBRANCH  13  15
ENDBRANCH  12  13
ENDBRANCH  11  12
ENDBRANCH   1  11
TORSDOF 5
ENDMDL
MODEL 2
REMARK VINA RESULT:      -5.6      0.283      1.313
REMARK  Name = 
REMARK  5 active torsions:
REMARK  status: ('A' for Active; 'I' for Inactive)
REMARK    1  A    between atoms: C_2  and  C_3
REMARK    2  A    between atoms: C_3  and  S_4
REMARK    3  A    between atoms: S_4  and  C_5
REMARK    4  A    between atoms: C_5  and  C_6
REMARK    5  A    between atoms: N_8  and  C_9
REMARK                            x       y       z     vdW  Elec       q    Type
REMARK                         _______ _______ _______ _____ _____    ______ ____
ROOT
ATOM      1  C   UNL     1       4.487   4.785  17.166  0.00  0.00    +0.000 C 
ATOM      2  O   UNL     1       5.071   3.771  17.549  0.00  0.00    +0.000 OA
ATOM      3  N   UNL     1       3.258   5.234  17.617  0.00  0.00    +0.000 N 
ATOM      4  H   UNL     1       2.820   5.998  17.114  0.00  0.00    +0.000 HD
ENDROOT
BRANCH   3   5
ATOM      5  C   UNL     1       2.499   4.652  18.657  0.00  0.00    +0.000 A 
ATOM      6  C   UNL     1       2.566   5.090  19.983  0.00  0.00    +0.000 A 
ATOM      7  C   UNL     1       1.825   4.462  20.986  0.00  0.00    +0.000 A 
ATOM      8  C   UNL     1       0.999   3.388  20.670  0.00  0.00    +0.000 A 
ATOM      9  C   UNL     1       0.897   2.960  19.349  0.00  0.00    +0.000 A 
ATOM     10  C   UNL     1       1.635   3.596  18.342  0.00  0.00    +0.000 A 
ENDBRANCH   3   5
BRANCH   1  11
ATOM     11  C   UNL     1       5.154   5.681  16.139  0.00  0.00    +0.000 C 
BRANCH  11  12
ATOM     12  S   UNL     1       6.975   5.516  16.244  0.00  0.00    +0.000 S 
BRANCH  12  13
ATOM     13  C   UNL     1       7.352   6.669  17.634  0.00  0.00    +0.000 C 
BRANCH  13  15
ATOM     14  N   UNL     1       7.731   5.345  20.050  0.00  0.00    +0.000 NA
ATOM     15  C   UNL     1       7.560   5.946  18.955  0.00  0.00    +0.000 C 
ENDBRANCH  13  15
ENDBRANCH  12  13
ENDBRANCH  11  12
ENDBRANCH   1  11
TORSDOF 5
ENDMDL
MODEL 3
REMARK VINA RESULT:      -5.6      1.161      1.637
REMARK  Name = 
REMARK  5 active torsions:
REMARK  status: ('A' for Active; 'I' for Inactive)
REMARK    1  A    between atoms: C_2  and  C_3
REMARK    2  A    between atoms: C_3  and  S_4
REMARK    3  A    between atoms: S_4  and  C_5
REMARK    4  A    between atoms: C_5  and  C_6
REMARK    5  A    between atoms: N_8  and  C_9
REMARK                            x       y       z     vdW  Elec       q    Type
REMARK                         _______ _______ _______ _____ _____    ______ ____
ROOT
ATOM      1  C   UNL     1       4.275   5.069  17.113  0.00  0.00    +0.000 C 
ATOM      2  O   UNL     1       3.812   6.133  17.526  0.00  0.00    +0.000 OA
ATOM      3  N   UNL     1       3.997   3.812  17.621  0.00  0.00    +0.000 N 
ATOM      4  H   UNL     1       4.557   3.033  17.290  0.00  0.00    +0.000 HD
ENDROOT
BRANCH   3   5
ATOM      5  C   UNL     1       3.068   3.523  18.646  0.00  0.00    +0.000 A 
ATOM      6  C   UNL     1       3.398   3.560  20.004  0.00  0.00    +0.000 A 
ATOM      7  C   UNL     1       2.457   3.231  20.981  0.00  0.00    +0.000 A 
ATOM      8  C   UNL     1       1.167   2.868  20.610  0.00  0.00    +0.000 A 
ATOM      9  C   UNL     1       0.813   2.856  19.263  0.00  0.00    +0.000 A 
ATOM     10  C   UNL     1       1.756   3.194  18.283  0.00  0.00    +0.000 A 
ENDBRANCH   3   5
BRANCH   1  11
ATOM     11  C   UNL     1       5.203   5.080  15.914  0.00  0.00    +0.000 C 
BRANCH  11  12
ATOM     12  S   UNL     1       6.908   4.653  16.430  0.00  0.00    +0.000 S 
BRANCH  12  13
ATOM     13  C   UNL     1       7.321   6.096  17.502  0.00  0.00    +0.000 C 
BRANCH  13  15
ATOM     14  N   UNL     1       7.674   5.385  20.167  0.00  0.00    +0.000 NA
ATOM     15  C   UNL     1       7.514   5.709  18.959  0.00  0.00    +0.000 C 
ENDBRANCH  13  15
ENDBRANCH  12  13
ENDBRANCH  11  12
ENDBRANCH   1  11
TORSDOF 5
ENDMDL
MODEL 4
REMARK VINA RESULT:      -5.5      2.509      5.703
REMARK  Name = 
REMARK  5 active torsions:
REMARK  status: ('A' for Active; 'I' for Inactive)
REMARK    1  A    between atoms: C_2  and  C_3
REMARK    2  A    between atoms: C_3  and  S_4
REMARK    3  A    between atoms: S_4  and  C_5
REMARK    4  A    between atoms: C_5  and  C_6
REMARK    5  A    between atoms: N_8  and  C_9
REMARK                            x       y       z     vdW  Elec       q    Type
REMARK                         _______ _______ _______ _____ _____    ______ ____
ROOT
ATOM      1  C   UNL     1       3.091   5.025  18.061  0.00  0.00    +0.000 C 
ATOM      2  O   UNL     1       2.897   5.724  19.057  0.00  0.00    +0.000 OA
ATOM      3  N   UNL     1       4.283   4.917  17.365  0.00  0.00    +0.000 N 
ATOM      4  H   UNL     1       4.268   4.426  16.478  0.00  0.00    +0.000 HD
ENDROOT
BRANCH   3   5
ATOM      5  C   UNL     1       5.506   5.525  17.725  0.00  0.00    +0.000 A 
ATOM      6  C   UNL     1       6.303   5.064  18.777  0.00  0.00    +0.000 A 
ATOM      7  C   UNL     1       7.487   5.718  19.121  0.00  0.00    +0.000 A 
ATOM      8  C   UNL     1       7.894   6.841  18.407  0.00  0.00    +0.000 A 
ATOM      9  C   UNL     1       7.128   7.294  17.336  0.00  0.00    +0.000 A 
ATOM     10  C   UNL     1       5.943   6.632  16.987  0.00  0.00    +0.000 A 
ENDBRANCH   3   5
BRANCH   1  11
ATOM     11  C   UNL     1       1.967   4.151  17.539  0.00  0.00    +0.000 C 
BRANCH  11  12
ATOM     12  S   UNL     1       1.985   2.526  18.384  0.00  0.00    +0.000 S 
BRANCH  12  13
ATOM     13  C   UNL     1       0.887   2.870  19.827  0.00  0.00    +0.000 C 
BRANCH  13  15
ATOM     14  N   UNL     1       2.278   2.978  22.233  0.00  0.00    +0.000 NA
ATOM     15  C   UNL     1       1.648   2.928  21.141  0.00  0.00    +0.000 C 
ENDBRANCH  13  15
ENDBRANCH  12  13
ENDBRANCH  11  12
ENDBRANCH   1  11
TORSDOF 5
ENDMDL
MODEL 5
REMARK VINA RESULT:      -5.5      1.310      1.492
REMARK  Name = 
REMARK  5 active torsions:
REMARK  status: ('A' for Active; 'I' for Inactive)
REMARK    1  A    between atoms: C_2  and  C_3
REMARK    2  A    between atoms: C_3  and  S_4
REMARK    3  A    between atoms: S_4  and  C_5
REMARK    4  A    between atoms: C_5  and  C_6
REMARK    5  A    between atoms: N_8  and  C_9
REMARK                            x       y       z     vdW  Elec       q    Type
REMARK                         _______ _______ _______ _____ _____    ______ ____
ROOT
ATOM      1  C   UNL     1       4.413   4.232  17.363  0.00  0.00    +0.000 C 
ATOM      2  O   UNL     1       3.650   3.536  16.690  0.00  0.00    +0.000 OA
ATOM      3  N   UNL     1       4.253   4.553  18.700  0.00  0.00    +0.000 N 
ATOM      4  H   UNL     1       4.870   5.254  19.095  0.00  0.00    +0.000 HD
ENDROOT
BRANCH   3   5
ATOM      5  C   UNL     1       3.232   4.068  19.548  0.00  0.00    +0.000 A 
ATOM      6  C   UNL     1       1.943   4.610  19.572  0.00  0.00    +0.000 A 
ATOM      7  C   UNL     1       0.976   4.123  20.453  0.00  0.00    +0.000 A 
ATOM      8  C   UNL     1       1.286   3.079  21.318  0.00  0.00    +0.000 A 
ATOM      9  C   UNL     1       2.556   2.508  21.284  0.00  0.00    +0.000 A 
ATOM     10  C   UNL     1       3.523   2.992  20.395  0.00  0.00    +0.000 A 
ENDBRANCH   3   5
BRANCH   1  11
ATOM     11  C   UNL     1       5.679   4.772  16.726  0.00  0.00    +0.000 C 
BRANCH  11  12
ATOM     12  S   UNL     1       5.765   6.590  16.933  0.00  0.00    +0.000 S 
BRANCH  12  13
ATOM     13  C   UNL     1       7.429   6.775  17.709  0.00  0.00    +0.000 C 
BRANCH  13  15
ATOM     14  N   UNL     1       7.682   5.321  20.066  0.00  0.00    +0.000 NA
ATOM     15  C   UNL     1       7.567   5.980  18.997  0.00  0.00    +0.000 C 
ENDBRANCH  13  15
ENDBRANCH  12  13
ENDBRANCH  11  12
ENDBRANCH   1  11
TORSDOF 5
ENDMDL
MODEL 6
REMARK VINA RESULT:      -5.5      1.691      1.991
REMARK  Name = 
REMARK  5 active torsions:
REMARK  status: ('A' for Active; 'I' for Inactive)
REMARK    1  A    between atoms: C_2  and  C_3
REMARK    2  A    between atoms: C_3  and  S_4
REMARK    3  A    between atoms: S_4  and  C_5
REMARK    4  A    between atoms: C_5  and  C_6
REMARK    5  A    between atoms: N_8  and  C_9
REMARK                            x       y       z     vdW  Elec       q    Type
REMARK                         _______ _______ _______ _____ _____    ______ ____
ROOT
ATOM      1  C   UNL     1       4.278   5.142  17.436  0.00  0.00    +0.000 C 
ATOM      2  O   UNL     1       3.937   6.188  17.990  0.00  0.00    +0.000 OA
ATOM      3  N   UNL     1       3.935   3.862  17.836  0.00  0.00    +0.000 N 
ATOM      4  H   UNL     1       4.402   3.084  17.383  0.00  0.00    +0.000 HD
ENDROOT
BRANCH   3   5
ATOM      5  C   UNL     1       3.064   3.536  18.899  0.00  0.00    +0.000 A 
ATOM      6  C   UNL     1       3.519   3.132  20.158  0.00  0.00    +0.000 A 
ATOM      7  C   UNL     1       2.621   2.785  21.169  0.00  0.00    +0.000 A 
ATOM      8  C   UNL     1       1.251   2.845  20.933  0.00  0.00    +0.000 A 
ATOM      9  C   UNL     1       0.781   3.275  19.695  0.00  0.00    +0.000 A 
ATOM     10  C   UNL     1       1.683   3.631  18.684  0.00  0.00    +0.000 A 
ENDBRANCH   3   5
BRANCH   1  11
ATOM     11  C   UNL     1       5.112   5.211  16.171  0.00  0.00    +0.000 C 
BRANCH  11  12
ATOM     12  S   UNL     1       6.774   4.501  16.470  0.00  0.00    +0.000 S 
BRANCH  12  13
ATOM     13  C   UNL     1       7.324   5.496  17.924  0.00  0.00    +0.000 C 
BRANCH  13  15
ATOM     14  N   UNL     1       7.674   8.185  17.311  0.00  0.00    +0.000 NA
ATOM     15  C   UNL     1       7.515   6.966  17.590  0.00  0.00    +0.000 C 
ENDBRANCH  13  15
ENDBRANCH  12  13
ENDBRANCH  11  12
ENDBRANCH   1  11
TORSDOF 5
ENDMDL
MODEL 7
REMARK VINA RESULT:      -5.5      2.465      5.629
REMARK  Name = 
REMARK  5 active torsions:
REMARK  status: ('A' for Active; 'I' for Inactive)
REMARK    1  A    between atoms: C_2  and  C_3
REMARK    2  A    between atoms: C_3  and  S_4
REMARK    3  A    between atoms: S_4  and  C_5
REMARK    4  A    between atoms: C_5  and  C_6
REMARK    5  A    between atoms: N_8  and  C_9
REMARK                            x       y       z     vdW  Elec       q    Type
REMARK                         _______ _______ _______ _____ _____    ______ ____
ROOT
ATOM      1  C   UNL     1       3.581   4.066  17.602  0.00  0.00    +0.000 C 
ATOM      2  O   UNL     1       4.348   3.201  17.174  0.00  0.00    +0.000 OA
ATOM      3  N   UNL     1       3.951   5.297  18.114  0.00  0.00    +0.000 N 
ATOM      4  H   UNL     1       3.236   5.854  18.570  0.00  0.00    +0.000 HD
ENDROOT
BRANCH   3   5
ATOM      5  C   UNL     1       5.266   5.811  18.157  0.00  0.00    +0.000 A 
ATOM      6  C   UNL     1       5.733   6.781  17.266  0.00  0.00    +0.000 A 
ATOM      7  C   UNL     1       7.053   7.234  17.323  0.00  0.00    +0.000 A 
ATOM      8  C   UNL     1       7.922   6.723  18.281  0.00  0.00    +0.000 A 
ATOM      9  C   UNL     1       7.464   5.779  19.196  0.00  0.00    +0.000 A 
ATOM     10  C   UNL     1       6.138   5.331  19.143  0.00  0.00    +0.000 A 
ENDBRANCH   3   5
BRANCH   1  11
ATOM     11  C   UNL     1       2.085   3.824  17.542  0.00  0.00    +0.000 C 
BRANCH  11  12
ATOM     12  S   UNL     1       1.652   2.306  18.470  0.00  0.00    +0.000 S 
BRANCH  12  13
ATOM     13  C   UNL     1       0.742   3.022  19.907  0.00  0.00    +0.000 C 
BRANCH  13  15
ATOM     14  N   UNL     1       2.239   2.983  22.250  0.00  0.00    +0.000 NA
ATOM     15  C   UNL     1       1.560   3.002  21.188  0.00  0.00    +0.000 C 
ENDBRANCH  13  15
ENDBRANCH  12  13
ENDBRANCH  11  12
ENDBRANCH   1  11
TORSDOF 5
ENDMDL
MODEL 8
REMARK VINA RESULT:      -5.4      3.052      5.397
REMARK  Name = 
REMARK  5 active torsions:
REMARK  status: ('A' for Active; 'I' for Inactive)
REMARK    1  A    between atoms: C_2  and  C_3
REMARK    2  A    between atoms: C_3  and  S_4
REMARK    3  A    between atoms: S_4  and  C_5
REMARK    4  A    between atoms: C_5  and  C_6
REMARK    5  A    between atoms: N_8  and  C_9
REMARK                            x       y       z     vdW  Elec       q    Type
REMARK                         _______ _______ _______ _____ _____    ______ ____
ROOT
ATOM      1  C   UNL     1       1.835   3.624  17.955  0.00  0.00    +0.000 C 
ATOM      2  O   UNL     1       1.102   4.230  17.172  0.00  0.00    +0.000 OA
ATOM      3  N   UNL     1       3.218   3.673  17.975  0.00  0.00    +0.000 N 
ATOM      4  H   UNL     1       3.706   3.012  18.571  0.00  0.00    +0.000 HD
ENDROOT
BRANCH   3   5
ATOM      5  C   UNL     1       4.026   4.492  17.156  0.00  0.00    +0.000 A 
ATOM      6  C   UNL     1       4.124   5.876  17.325  0.00  0.00    +0.000 A 
ATOM      7  C   UNL     1       4.907   6.651  16.468  0.00  0.00    +0.000 A 
ATOM      8  C   UNL     1       5.611   6.047  15.431  0.00  0.00    +0.000 A 
ATOM      9  C   UNL     1       5.549   4.665  15.269  0.00  0.00    +0.000 A 
ATOM     10  C   UNL     1       4.769   3.887  16.134  0.00  0.00    +0.000 A 
ENDBRANCH   3   5
BRANCH   1  11
ATOM     11  C   UNL     1       1.213   2.769  19.042  0.00  0.00    +0.000 C 
BRANCH  11  12
ATOM     12  S   UNL     1       1.193   3.681  20.631  0.00  0.00    +0.000 S 
BRANCH  12  13
ATOM     13  C   UNL     1       2.364   2.665  21.632  0.00  0.00    +0.000 C 
BRANCH  13  15
ATOM     14  N   UNL     1       4.738   2.127  20.287  0.00  0.00    +0.000 NA
ATOM     15  C   UNL     1       3.661   2.371  20.897  0.00  0.00    +0.000 C 
ENDBRANCH  13  15
ENDBRANCH  12  13
ENDBRANCH  11  12
ENDBRANCH   1  11
TORSDOF 5
ENDMDL
MODEL 9
REMARK VINA RESULT:      -5.4      1.332      1.332
REMARK  Name = 
REMARK  5 active torsions:
REMARK  status: ('A' for Active; 'I' for Inactive)
REMARK    1  A    between atoms: C_2  and  C_3
REMARK    2  A    between atoms: C_3  and  S_4
REMARK    3  A    between atoms: S_4  and  C_5
REMARK    4  A    between atoms: C_5  and  C_6
REMARK    5  A    between atoms: N_8  and  C_9
REMARK                            x       y       z     vdW  Elec       q    Type
REMARK                         _______ _______ _______ _____ _____    ______ ____
ROOT
ATOM      1  C   UNL     1       3.950   5.796  17.555  0.00  0.00    +0.000 C 
ATOM      2  O   UNL     1       3.247   6.745  17.906  0.00  0.00    +0.000 OA
ATOM      3  N   UNL     1       3.837   4.492  18.006  0.00  0.00    +0.000 N 
ATOM      4  H   UNL     1       4.571   3.839  17.753  0.00  0.00    +0.000 HD
ENDROOT
BRANCH   3   5
ATOM      5  C   UNL     1       2.842   4.005  18.883  0.00  0.00    +0.000 A 
ATOM      6  C   UNL     1       1.724   3.291  18.442  0.00  0.00    +0.000 A 
ATOM      7  C   UNL     1       0.747   2.861  19.341  0.00  0.00    +0.000 A 
ATOM      8  C   UNL     1       0.881   3.136  20.698  0.00  0.00    +0.000 A 
ATOM      9  C   UNL     1       2.004   3.819  21.157  0.00  0.00    +0.000 A 
ATOM     10  C   UNL     1       2.988   4.243  20.255  0.00  0.00    +0.000 A 
ENDBRANCH   3   5
BRANCH   1  11
ATOM     11  C   UNL     1       5.020   6.016  16.504  0.00  0.00    +0.000 C 
BRANCH  11  12
ATOM     12  S   UNL     1       5.896   4.446  16.154  0.00  0.00    +0.000 S 
BRANCH  12  13
ATOM     13  C   UNL     1       7.484   4.722  17.053  0.00  0.00    +0.000 C 
BRANCH  13  15
ATOM     14  N   UNL     1       7.102   5.391  19.725  0.00  0.00    +0.000 NA
ATOM     15  C   UNL     1       7.275   5.087  18.513  0.00  0.00    +0.000 C 
ENDBRANCH  13  15
ENDBRANCH  12  13
ENDBRANCH  11  12
ENDBRANCH   1  11
TORSDOF 5
ENDMDL
