MODEL 1
REMARK VINA RESULT:      -7.0      0.000      0.000
REMARK  Name = 
REMARK  8 active torsions:
REMARK  status: ('A' for Active; 'I' for Inactive)
REMARK    1  A    between atoms: C_1  and  N_2
REMARK    2  A    between atoms: C_3  and  C_4
REMARK    3  A    between atoms: C_4  and  O_5
REMARK    4  A    between atoms: C_8  and  C_9
REMARK    5  A    between atoms: C_11  and  N_12
REMARK    6  A    between atoms: N_12  and  C_13
REMARK    7  A    between atoms: C_18  and  C_19
REMARK    8  A    between atoms: C_19  and  C_21
REMARK                            x       y       z     vdW  Elec       q    Type
REMARK                         _______ _______ _______ _____ _____    ______ ____
ROOT
ATOM      1  N   UNL     1       2.336   6.977  18.479  0.00  0.00    +0.000 N 
ATOM      2  H   UNL     1       2.075   6.439  19.309  0.00  0.00    +0.000 HD
ENDROOT
BRANCH   1   3
ATOM      3  C   UNL     1       3.406   6.330  17.819  0.00  0.00    +0.000 A 
ATOM      4  N   UNL     1       4.435   7.109  17.401  0.00  0.00    +0.000 NA
ATOM      5  C   UNL     1       5.425   6.549  16.676  0.00  0.00    +0.000 A 
ATOM      6  C   UNL     1       5.454   5.216  16.328  0.00  0.00    +0.000 A 
ATOM      7  C   UNL     1       4.412   4.407  16.769  0.00  0.00    +0.000 A 
ATOM      8  C   UNL     1       3.356   4.959  17.513  0.00  0.00    +0.000 A 
BRANCH   8   9
ATOM      9  C   UNL     1       2.240   4.113  18.029  0.00  0.00    +0.000 C 
ATOM     10  O   UNL     1       1.261   3.973  17.283  0.00  0.00    +0.000 OA
BRANCH   9  11
ATOM     11  C   UNL     1       2.327   3.525  19.364  0.00  0.00    +0.000 A 
ATOM     12  N   UNL     1       3.354   2.835  19.823  0.00  0.00    +0.000 NA
ATOM     13  C   UNL     1       3.137   2.475  21.139  0.00  0.00    +0.000 A 
ATOM     14  C   UNL     1       1.925   2.863  21.665  0.00  0.00    +0.000 A 
ATOM     15  S   UNL     1       1.031   3.722  20.483  0.00  0.00    +0.000 S 
ENDBRANCH   9  11
ENDBRANCH   8   9
ENDBRANCH   1   3
BRANCH   1  18
ATOM     16  C   UNL     1       0.813   9.994  18.797  0.00  0.00    +0.000 C 
ATOM     17  C   UNL     1       1.320   9.076  17.639  0.00  0.00    +0.000 C 
ATOM     18  C   UNL     1       2.280   8.402  18.638  0.00  0.00    +0.000 C 
ATOM     19  C   UNL     1       1.330   8.879  19.754  0.00  0.00    +0.000 C 
BRANCH  16  25
ATOM     20  C   UNL     1       0.561  12.257  20.954  0.00  0.00    +0.000 C 
ATOM     21  N   UNL     1       1.409  12.320  19.794  0.00  0.00    +0.000 N 
ATOM     22  C   UNL     1       2.179  13.374  19.366  0.00  0.00    +0.000 A 
ATOM     23  N   UNL     1       2.809  13.014  18.266  0.00  0.00    +0.000 NA
ATOM     24  N   UNL     1       2.426  11.736  17.949  0.00  0.00    +0.000 NA
ATOM     25  C   UNL     1       1.563  11.330  18.853  0.00  0.00    +0.000 A 
BRANCH  22  26
ATOM     26  C   UNL     1       2.279  14.699  20.024  0.00  0.00    +0.000 C 
BRANCH  26  27
ATOM     27  O   UNL     1       2.396  15.691  19.008  0.00  0.00    +0.000 OA
ATOM     28  H   UNL     1       3.127  15.398  18.433  0.00  0.00    +0.000 HD
ENDBRANCH  26  27
ENDBRANCH  22  26
ENDBRANCH  16  25
ENDBRANCH   1  18
TORSDOF 7
ENDMDL
MODEL 2
REMARK VINA RESULT:      -7.0      2.427      2.930
REMARK  Name = 
REMARK  8 active torsions:
REMARK  status: ('A' for Active; 'I' for Inactive)
REMARK    1  A    between atoms: C_1  and  N_2
REMARK    2  A    between atoms: C_3  and  C_4
REMARK    3  A    between atoms: C_4  and  O_5
REMARK    4  A    between atoms: C_8  and  C_9
REMARK    5  A    between atoms: C_11  and  N_12
REMARK    6  A    between atoms: N_12  and  C_13
REMARK    7  A    between atoms: C_18  and  C_19
REMARK    8  A    between atoms: C_19  and  C_21
REMARK                            x       y       z     vdW  Elec       q    Type
REMARK                         _______ _______ _______ _____ _____    ______ ____
ROOT
ATOM      1  N   UNL     1       2.842   6.818  19.075  0.00  0.00    +0.000 N 
ATOM      2  H   UNL     1       3.412   7.104  19.875  0.00  0.00    +0.000 HD
ENDROOT
BRANCH   1   3
ATOM      3  C   UNL     1       3.664   6.183  18.116  0.00  0.00    +0.000 A 
ATOM      4  N   UNL     1       4.750   6.869  17.680  0.00  0.00    +0.000 NA
ATOM      5  C   UNL     1       5.500   6.344  16.691  0.00  0.00    +0.000 A 
ATOM      6  C   UNL     1       5.226   5.136  16.086  0.00  0.00    +0.000 A 
ATOM      7  C   UNL     1       4.125   4.418  16.541  0.00  0.00    +0.000 A 
ATOM      8  C   UNL     1       3.312   4.941  17.559  0.00  0.00    +0.000 A 
BRANCH   8   9
ATOM      9  C   UNL     1       2.143   4.181  18.092  0.00  0.00    +0.000 C 
ATOM     10  O   UNL     1       1.182   4.034  17.323  0.00  0.00    +0.000 OA
BRANCH   9  11
ATOM     11  C   UNL     1       2.163   3.680  19.465  0.00  0.00    +0.000 A 
ATOM     12  N   UNL     1       1.255   3.952  20.383  0.00  0.00    +0.000 NA
ATOM     13  C   UNL     1       1.541   3.274  21.551  0.00  0.00    +0.000 A 
ATOM     14  C   UNL     1       2.690   2.515  21.528  0.00  0.00    +0.000 A 
ATOM     15  S   UNL     1       3.431   2.638  19.988  0.00  0.00    +0.000 S 
ENDBRANCH   9  11
ENDBRANCH   8   9
ENDBRANCH   1   3
BRANCH   1  18
ATOM     16  C   UNL     1       1.399   9.874  18.750  0.00  0.00    +0.000 C 
ATOM     17  C   UNL     1       1.482   8.748  19.830  0.00  0.00    +0.000 C 
ATOM     18  C   UNL     1       1.807   7.742  18.709  0.00  0.00    +0.000 C 
ATOM     19  C   UNL     1       2.294   8.944  17.877  0.00  0.00    +0.000 C 
BRANCH  16  25
ATOM     20  C   UNL     1      -0.757  11.853  19.879  0.00  0.00    +0.000 C 
ATOM     21  N   UNL     1      -0.968  10.947  18.780  0.00  0.00    +0.000 N 
ATOM     22  C   UNL     1      -2.133  10.712  18.092  0.00  0.00    +0.000 A 
ATOM     23  N   UNL     1      -1.893   9.818  17.155  0.00  0.00    +0.000 NA
ATOM     24  N   UNL     1      -0.579   9.436  17.251  0.00  0.00    +0.000 NA
ATOM     25  C   UNL     1      -0.031  10.096  18.246  0.00  0.00    +0.000 A 
BRANCH  22  26
ATOM     26  C   UNL     1      -3.445  11.349  18.361  0.00  0.00    +0.000 C 
BRANCH  26  27
ATOM     27  O   UNL     1      -3.851  12.043  17.186  0.00  0.00    +0.000 OA
ATOM     28  H   UNL     1      -4.787  12.278  17.326  0.00  0.00    +0.000 HD
ENDBRANCH  26  27
ENDBRANCH  22  26
ENDBRANCH  16  25
ENDBRANCH   1  18
TORSDOF 7
ENDMDL
MODEL 3
REMARK VINA RESULT:      -6.9      3.165      4.420
REMARK  Name = 
REMARK  8 active torsions:
REMARK  status: ('A' for Active; 'I' for Inactive)
REMARK    1  A    between atoms: C_1  and  N_2
REMARK    2  A    between atoms: C_3  and  C_4
REMARK    3  A    between atoms: C_4  and  O_5
REMARK    4  A    between atoms: C_8  and  C_9
REMARK    5  A    between atoms: C_11  and  N_12
REMARK    6  A    between atoms: N_12  and  C_13
REMARK    7  A    between atoms: C_18  and  C_19
REMARK    8  A    between atoms: C_19  and  C_21
REMARK                            x       y       z     vdW  Elec       q    Type
REMARK                         _______ _______ _______ _____ _____    ______ ____
ROOT
ATOM      1  N   UNL     1       2.380   7.305  20.010  0.00  0.00    +0.000 N 
ATOM      2  H   UNL     1       3.348   7.579  19.825  0.00  0.00    +0.000 HD
ENDROOT
BRANCH   1   3
ATOM      3  C   UNL     1       2.263   5.899  19.915  0.00  0.00    +0.000 A 
ATOM      4  N   UNL     1       1.373   5.296  20.741  0.00  0.00    +0.000 NA
ATOM      5  C   UNL     1       1.305   3.949  20.757  0.00  0.00    +0.000 A 
ATOM      6  C   UNL     1       2.098   3.138  19.974  0.00  0.00    +0.000 A 
ATOM      7  C   UNL     1       3.000   3.750  19.111  0.00  0.00    +0.000 A 
ATOM      8  C   UNL     1       3.109   5.149  19.079  0.00  0.00    +0.000 A 
BRANCH   8   9
ATOM      9  C   UNL     1       4.044   5.838  18.141  0.00  0.00    +0.000 C 
ATOM     10  O   UNL     1       3.542   6.673  17.374  0.00  0.00    +0.000 OA
BRANCH   9  11
ATOM     11  C   UNL     1       5.463   5.492  18.140  0.00  0.00    +0.000 A 
ATOM     12  N   UNL     1       6.309   5.759  19.117  0.00  0.00    +0.000 NA
ATOM     13  C   UNL     1       7.556   5.245  18.822  0.00  0.00    +0.000 A 
ATOM     14  C   UNL     1       7.663   4.617  17.601  0.00  0.00    +0.000 A 
ATOM     15  S   UNL     1       6.149   4.656  16.799  0.00  0.00    +0.000 S 
ENDBRANCH   9  11
ENDBRANCH   8   9
ENDBRANCH   1   3
BRANCH   1  18
ATOM     16  C   UNL     1       0.917  10.315  19.437  0.00  0.00    +0.000 C 
ATOM     17  C   UNL     1       0.866   9.198  20.528  0.00  0.00    +0.000 C 
ATOM     18  C   UNL     1       1.387   8.196  19.480  0.00  0.00    +0.000 C 
ATOM     19  C   UNL     1       1.962   9.407  18.720  0.00  0.00    +0.000 C 
BRANCH  16  25
ATOM     20  C   UNL     1      -1.494  12.137  20.276  0.00  0.00    +0.000 C 
ATOM     21  N   UNL     1      -1.479  11.273  19.126  0.00  0.00    +0.000 N 
ATOM     22  C   UNL     1      -2.505  11.014  18.251  0.00  0.00    +0.000 A 
ATOM     23  N   UNL     1      -2.072  10.174  17.332  0.00  0.00    +0.000 NA
ATOM     24  N   UNL     1      -0.772   9.851  17.624  0.00  0.00    +0.000 NA
ATOM     25  C   UNL     1      -0.425  10.491  18.718  0.00  0.00    +0.000 A 
BRANCH  22  26
ATOM     26  C   UNL     1      -3.876  11.575  18.329  0.00  0.00    +0.000 C 
BRANCH  26  27
ATOM     27  O   UNL     1      -4.235  12.052  17.036  0.00  0.00    +0.000 OA
ATOM     28  H   UNL     1      -4.591  11.282  16.557  0.00  0.00    +0.000 HD
ENDBRANCH  26  27
ENDBRANCH  22  26
ENDBRANCH  16  25
ENDBRANCH   1  18
TORSDOF 7
ENDMDL
MODEL 4
REMARK VINA RESULT:      -6.8      3.242      8.310
REMARK  Name = 
REMARK  8 active torsions:
REMARK  status: ('A' for Active; 'I' for Inactive)
REMARK    1  A    between atoms: C_1  and  N_2
REMARK    2  A    between atoms: C_3  and  C_4
REMARK    3  A    between atoms: C_4  and  O_5
REMARK    4  A    between atoms: C_8  and  C_9
REMARK    5  A    between atoms: C_11  and  N_12
REMARK    6  A    between atoms: N_12  and  C_13
REMARK    7  A    between atoms: C_18  and  C_19
REMARK    8  A    between atoms: C_19  and  C_21
REMARK                            x       y       z     vdW  Elec       q    Type
REMARK                         _______ _______ _______ _____ _____    ______ ____
ROOT
ATOM      1  N   UNL     1       1.613   8.762  18.986  0.00  0.00    +0.000 N 
ATOM      2  H   UNL     1       1.955   9.539  18.416  0.00  0.00    +0.000 HD
ENDROOT
BRANCH   1   3
ATOM      3  C   UNL     1       1.055   9.268  20.182  0.00  0.00    +0.000 A 
ATOM      4  N   UNL     1       1.369   8.622  21.333  0.00  0.00    +0.000 NA
ATOM      5  C   UNL     1       0.776   9.007  22.481  0.00  0.00    +0.000 A 
ATOM      6  C   UNL     1      -0.143  10.032  22.557  0.00  0.00    +0.000 A 
ATOM      7  C   UNL     1      -0.456  10.711  21.385  0.00  0.00    +0.000 A 
ATOM      8  C   UNL     1       0.130  10.327  20.168  0.00  0.00    +0.000 A 
BRANCH   8   9
ATOM      9  C   UNL     1      -0.159  11.057  18.899  0.00  0.00    +0.000 C 
ATOM     10  O   UNL     1       0.679  11.898  18.541  0.00  0.00    +0.000 OA
BRANCH   9  11
ATOM     11  C   UNL     1      -1.392  10.784  18.164  0.00  0.00    +0.000 A 
ATOM     12  N   UNL     1      -1.523   9.878  17.214  0.00  0.00    +0.000 NA
ATOM     13  C   UNL     1      -2.831   9.837  16.771  0.00  0.00    +0.000 A 
ATOM     14  C   UNL     1      -3.683  10.742  17.363  0.00  0.00    +0.000 A 
ATOM     15  S   UNL     1      -2.828  11.664  18.527  0.00  0.00    +0.000 S 
ENDBRANCH   9  11
ENDBRANCH   8   9
ENDBRANCH   1   3
BRANCH   1  18
ATOM     16  C   UNL     1       3.190   6.127  17.540  0.00  0.00    +0.000 C 
ATOM     17  C   UNL     1       1.791   6.430  18.163  0.00  0.00    +0.000 C 
ATOM     18  C   UNL     1       2.432   7.584  18.959  0.00  0.00    +0.000 C 
ATOM     19  C   UNL     1       3.539   7.605  17.887  0.00  0.00    +0.000 C 
BRANCH  16  25
ATOM     20  C   UNL     1       2.499   3.079  17.817  0.00  0.00    +0.000 C 
ATOM     21  N   UNL     1       3.614   3.730  18.453  0.00  0.00    +0.000 N 
ATOM     22  C   UNL     1       4.510   3.191  19.343  0.00  0.00    +0.000 A 
ATOM     23  N   UNL     1       5.381   4.122  19.677  0.00  0.00    +0.000 NA
ATOM     24  N   UNL     1       5.036   5.284  19.035  0.00  0.00    +0.000 NA
ATOM     25  C   UNL     1       3.957   5.054  18.321  0.00  0.00    +0.000 A 
BRANCH  22  26
ATOM     26  C   UNL     1       4.497   1.799  19.854  0.00  0.00    +0.000 C 
BRANCH  26  27
ATOM     27  O   UNL     1       5.255   1.761  21.059  0.00  0.00    +0.000 OA
ATOM     28  H   UNL     1       6.102   2.197  20.855  0.00  0.00    +0.000 HD
ENDBRANCH  26  27
ENDBRANCH  22  26
ENDBRANCH  16  25
ENDBRANCH   1  18
TORSDOF 7
ENDMDL
MODEL 5
REMARK VINA RESULT:      -6.8      3.071      4.493
REMARK  Name = 
REMARK  8 active torsions:
REMARK  status: ('A' for Active; 'I' for Inactive)
REMARK    1  A    between atoms: C_1  and  N_2
REMARK    2  A    between atoms: C_3  and  C_4
REMARK    3  A    between atoms: C_4  and  O_5
REMARK    4  A    between atoms: C_8  and  C_9
REMARK    5  A    between atoms: C_11  and  N_12
REMARK    6  A    between atoms: N_12  and  C_13
REMARK    7  A    between atoms: C_18  and  C_19
REMARK    8  A    between atoms: C_19  and  C_21
REMARK                            x       y       z     vdW  Elec       q    Type
REMARK                         _______ _______ _______ _____ _____    ______ ____
ROOT
ATOM      1  N   UNL     1       3.047   6.597  18.818  0.00  0.00    +0.000 N 
ATOM      2  H   UNL     1       3.844   6.620  18.177  0.00  0.00    +0.000 HD
ENDROOT
BRANCH   1   3
ATOM      3  C   UNL     1       2.749   5.255  19.149  0.00  0.00    +0.000 A 
ATOM      4  N   UNL     1       1.457   4.962  19.437  0.00  0.00    +0.000 NA
ATOM      5  C   UNL     1       1.147   3.719  19.859  0.00  0.00    +0.000 A 
ATOM      6  C   UNL     1       2.078   2.716  20.019  0.00  0.00    +0.000 A 
ATOM      7  C   UNL     1       3.403   3.004  19.708  0.00  0.00    +0.000 A 
ATOM      8  C   UNL     1       3.764   4.292  19.280  0.00  0.00    +0.000 A 
BRANCH   8   9
ATOM      9  C   UNL     1       5.170   4.624  18.907  0.00  0.00    +0.000 C 
ATOM     10  O   UNL     1       5.903   5.034  19.819  0.00  0.00    +0.000 OA
BRANCH   9  11
ATOM     11  C   UNL     1       5.609   4.486  17.520  0.00  0.00    +0.000 A 
ATOM     12  N   UNL     1       4.816   4.242  16.495  0.00  0.00    +0.000 NA
ATOM     13  C   UNL     1       5.542   4.232  15.321  0.00  0.00    +0.000 A 
ATOM     14  C   UNL     1       6.897   4.434  15.463  0.00  0.00    +0.000 A 
ATOM     15  S   UNL     1       7.276   4.661  17.118  0.00  0.00    +0.000 S 
ENDBRANCH   9  11
ENDBRANCH   8   9
ENDBRANCH   1   3
BRANCH   1  18
ATOM     16  C   UNL     1       1.645   9.689  18.798  0.00  0.00    +0.000 C 
ATOM     17  C   UNL     1       1.712   8.461  19.761  0.00  0.00    +0.000 C 
ATOM     18  C   UNL     1       2.024   7.567  18.546  0.00  0.00    +0.000 C 
ATOM     19  C   UNL     1       2.528   8.839  17.837  0.00  0.00    +0.000 C 
BRANCH  16  25
ATOM     20  C   UNL     1      -0.407  11.744  19.985  0.00  0.00    +0.000 C 
ATOM     21  N   UNL     1      -0.673  10.863  18.880  0.00  0.00    +0.000 N 
ATOM     22  C   UNL     1      -1.858  10.687  18.207  0.00  0.00    +0.000 A 
ATOM     23  N   UNL     1      -1.671   9.795  17.255  0.00  0.00    +0.000 NA
ATOM     24  N   UNL     1      -0.374   9.355  17.326  0.00  0.00    +0.000 NA
ATOM     25  C   UNL     1       0.217   9.979  18.320  0.00  0.00    +0.000 A 
BRANCH  22  26
ATOM     26  C   UNL     1      -3.137  11.376  18.505  0.00  0.00    +0.000 C 
BRANCH  26  27
ATOM     27  O   UNL     1      -3.634  11.933  17.293  0.00  0.00    +0.000 OA
ATOM     28  H   UNL     1      -3.402  12.879  17.320  0.00  0.00    +0.000 HD
ENDBRANCH  26  27
ENDBRANCH  22  26
ENDBRANCH  16  25
ENDBRANCH   1  18
TORSDOF 7
ENDMDL
MODEL 6
REMARK VINA RESULT:      -6.7      3.051      4.273
REMARK  Name = 
REMARK  8 active torsions:
REMARK  status: ('A' for Active; 'I' for Inactive)
REMARK    1  A    between atoms: C_1  and  N_2
REMARK    2  A    between atoms: C_3  and  C_4
REMARK    3  A    between atoms: C_4  and  O_5
REMARK    4  A    between atoms: C_8  and  C_9
REMARK    5  A    between atoms: C_11  and  N_12
REMARK    6  A    between atoms: N_12  and  C_13
REMARK    7  A    between atoms: C_18  and  C_19
REMARK    8  A    between atoms: C_19  and  C_21
REMARK                            x       y       z     vdW  Elec       q    Type
REMARK                         _______ _______ _______ _____ _____    ______ ____
ROOT
ATOM      1  N   UNL     1       2.194   6.748  20.744  0.00  0.00    +0.000 N 
ATOM      2  H   UNL     1       3.206   6.892  20.741  0.00  0.00    +0.000 HD
ENDROOT
BRANCH   1   3
ATOM      3  C   UNL     1       1.882   5.596  19.986  0.00  0.00    +0.000 A 
ATOM      4  N   UNL     1       1.050   4.688  20.555  0.00  0.00    +0.000 NA
ATOM      5  C   UNL     1       0.810   3.528  19.911  0.00  0.00    +0.000 A 
ATOM      6  C   UNL     1       1.368   3.204  18.693  0.00  0.00    +0.000 A 
ATOM      7  C   UNL     1       2.207   4.137  18.095  0.00  0.00    +0.000 A 
ATOM      8  C   UNL     1       2.492   5.350  18.744  0.00  0.00    +0.000 A 
BRANCH   8   9
ATOM      9  C   UNL     1       3.362   6.386  18.114  0.00  0.00    +0.000 C 
ATOM     10  O   UNL     1       2.828   7.474  17.855  0.00  0.00    +0.000 OA
BRANCH   9  11
ATOM     11  C   UNL     1       4.758   6.079  17.807  0.00  0.00    +0.000 A 
ATOM     12  N   UNL     1       5.355   6.335  16.659  0.00  0.00    +0.000 NA
ATOM     13  C   UNL     1       6.686   5.973  16.723  0.00  0.00    +0.000 A 
ATOM     14  C   UNL     1       7.088   5.408  17.912  0.00  0.00    +0.000 A 
ATOM     15  S   UNL     1       5.763   5.341  18.996  0.00  0.00    +0.000 S 
ENDBRANCH   9  11
ENDBRANCH   8   9
ENDBRANCH   1   3
BRANCH   1  18
ATOM     16  C   UNL     1       0.037   9.104  21.892  0.00  0.00    +0.000 C 
ATOM     17  C   UNL     1      -0.044   7.741  21.135  0.00  0.00    +0.000 C 
ATOM     18  C   UNL     1       1.411   7.949  20.673  0.00  0.00    +0.000 C 
ATOM     19  C   UNL     1       1.580   8.889  21.883  0.00  0.00    +0.000 C 
BRANCH  16  25
ATOM     20  C   UNL     1      -1.221  11.798  22.895  0.00  0.00    +0.000 C 
ATOM     21  N   UNL     1      -1.061  11.430  21.513  0.00  0.00    +0.000 N 
ATOM     22  C   UNL     1      -1.491  12.114  20.402  0.00  0.00    +0.000 A 
ATOM     23  N   UNL     1      -1.133  11.438  19.329  0.00  0.00    +0.000 NA
ATOM     24  N   UNL     1      -0.502  10.290  19.734  0.00  0.00    +0.000 NA
ATOM     25  C   UNL     1      -0.484  10.273  21.048  0.00  0.00    +0.000 A 
BRANCH  22  26
ATOM     26  C   UNL     1      -2.239  13.394  20.406  0.00  0.00    +0.000 C 
BRANCH  26  27
ATOM     27  O   UNL     1      -3.519  13.162  19.824  0.00  0.00    +0.000 OA
ATOM     28  H   UNL     1      -3.347  12.897  18.902  0.00  0.00    +0.000 HD
ENDBRANCH  26  27
ENDBRANCH  22  26
ENDBRANCH  16  25
ENDBRANCH   1  18
TORSDOF 7
ENDMDL
MODEL 7
REMARK VINA RESULT:      -6.7      2.475      2.928
REMARK  Name = 
REMARK  8 active torsions:
REMARK  status: ('A' for Active; 'I' for Inactive)
REMARK    1  A    between atoms: C_1  and  N_2
REMARK    2  A    between atoms: C_3  and  C_4
REMARK    3  A    between atoms: C_4  and  O_5
REMARK    4  A    between atoms: C_8  and  C_9
REMARK    5  A    between atoms: C_11  and  N_12
REMARK    6  A    between atoms: N_12  and  C_13
REMARK    7  A    between atoms: C_18  and  C_19
REMARK    8  A    between atoms: C_19  and  C_21
REMARK                            x       y       z     vdW  Elec       q    Type
REMARK                         _______ _______ _______ _____ _____    ______ ____
ROOT
ATOM      1  N   UNL     1       3.988   7.119  17.120  0.00  0.00    +0.000 N 
ATOM      2  H   UNL     1       3.556   6.545  16.393  0.00  0.00    +0.000 HD
ENDROOT
BRANCH   1   3
ATOM      3  C   UNL     1       5.176   6.494  17.567  0.00  0.00    +0.000 A 
ATOM      4  N   UNL     1       6.314   7.232  17.531  0.00  0.00    +0.000 NA
ATOM      5  C   UNL     1       7.484   6.644  17.848  0.00  0.00    +0.000 A 
ATOM      6  C   UNL     1       7.596   5.318  18.211  0.00  0.00    +0.000 A 
ATOM      7  C   UNL     1       6.432   4.561  18.268  0.00  0.00    +0.000 A 
ATOM      8  C   UNL     1       5.197   5.136  17.929  0.00  0.00    +0.000 A 
BRANCH   8   9
ATOM      9  C   UNL     1       3.925   4.360  18.012  0.00  0.00    +0.000 C 
ATOM     10  O   UNL     1       3.398   4.044  16.936  0.00  0.00    +0.000 OA
BRANCH   9  11
ATOM     11  C   UNL     1       3.351   4.037  19.317  0.00  0.00    +0.000 A 
ATOM     12  N   UNL     1       2.560   4.831  20.014  0.00  0.00    +0.000 NA
ATOM     13  C   UNL     1       2.149   4.199  21.171  0.00  0.00    +0.000 A 
ATOM     14  C   UNL     1       2.660   2.935  21.366  0.00  0.00    +0.000 A 
ATOM     15  S   UNL     1       3.677   2.514  20.053  0.00  0.00    +0.000 S 
ENDBRANCH   9  11
ENDBRANCH   8   9
ENDBRANCH   1   3
BRANCH   1  18
ATOM     16  C   UNL     1       1.306   9.018  17.970  0.00  0.00    +0.000 C 
ATOM     17  C   UNL     1       2.826   9.235  17.685  0.00  0.00    +0.000 C 
ATOM     18  C   UNL     1       3.067   7.751  18.022  0.00  0.00    +0.000 C 
ATOM     19  C   UNL     1       1.583   7.513  17.682  0.00  0.00    +0.000 C 
BRANCH  16  25
ATOM     20  C   UNL     1      -0.464  11.406  18.975  0.00  0.00    +0.000 C 
ATOM     21  N   UNL     1       0.176  10.441  19.830  0.00  0.00    +0.000 N 
ATOM     22  C   UNL     1       0.214  10.423  21.202  0.00  0.00    +0.000 A 
ATOM     23  N   UNL     1       0.895   9.363  21.589  0.00  0.00    +0.000 NA
ATOM     24  N   UNL     1       1.337   8.704  20.471  0.00  0.00    +0.000 NA
ATOM     25  C   UNL     1       0.927   9.368  19.414  0.00  0.00    +0.000 A 
BRANCH  22  26
ATOM     26  C   UNL     1      -0.399  11.430  22.102  0.00  0.00    +0.000 C 
BRANCH  26  27
ATOM     27  O   UNL     1      -0.493  10.863  23.405  0.00  0.00    +0.000 OA
ATOM     28  H   UNL     1       0.263  10.254  23.486  0.00  0.00    +0.000 HD
ENDBRANCH  26  27
ENDBRANCH  22  26
ENDBRANCH  16  25
ENDBRANCH   1  18
TORSDOF 7
ENDMDL
MODEL 8
REMARK VINA RESULT:      -6.7      2.955      4.352
REMARK  Name = 
REMARK  8 active torsions:
REMARK  status: ('A' for Active; 'I' for Inactive)
REMARK    1  A    between atoms: C_1  and  N_2
REMARK    2  A    between atoms: C_3  and  C_4
REMARK    3  A    between atoms: C_4  and  O_5
REMARK    4  A    between atoms: C_8  and  C_9
REMARK    5  A    between atoms: C_11  and  N_12
REMARK    6  A    between atoms: N_12  and  C_13
REMARK    7  A    between atoms: C_18  and  C_19
REMARK    8  A    between atoms: C_19  and  C_21
REMARK                            x       y       z     vdW  Elec       q    Type
REMARK                         _______ _______ _______ _____ _____    ______ ____
ROOT
ATOM      1  N   UNL     1       2.504   5.885  19.832  0.00  0.00    +0.000 N 
ATOM      2  H   UNL     1       3.464   6.092  20.114  0.00  0.00    +0.000 HD
ENDROOT
BRANCH   1   3
ATOM      3  C   UNL     1       2.465   4.631  19.180  0.00  0.00    +0.000 A 
ATOM      4  N   UNL     1       1.279   3.973  19.176  0.00  0.00    +0.000 NA
ATOM      5  C   UNL     1       1.224   2.729  18.657  0.00  0.00    +0.000 A 
ATOM      6  C   UNL     1       2.316   2.078  18.123  0.00  0.00    +0.000 A 
ATOM      7  C   UNL     1       3.531   2.755  18.107  0.00  0.00    +0.000 A 
ATOM      8  C   UNL     1       3.629   4.045  18.653  0.00  0.00    +0.000 A 
BRANCH   8   9
ATOM      9  C   UNL     1       4.909   4.810  18.620  0.00  0.00    +0.000 C 
ATOM     10  O   UNL     1       5.276   5.321  19.688  0.00  0.00    +0.000 OA
BRANCH   9  11
ATOM     11  C   UNL     1       5.644   4.950  17.365  0.00  0.00    +0.000 A 
ATOM     12  N   UNL     1       6.786   4.351  17.084  0.00  0.00    +0.000 NA
ATOM     13  C   UNL     1       7.178   4.652  15.795  0.00  0.00    +0.000 A 
ATOM     14  C   UNL     1       6.348   5.512  15.111  0.00  0.00    +0.000 A 
ATOM     15  S   UNL     1       5.022   5.948  16.105  0.00  0.00    +0.000 S 
ENDBRANCH   9  11
ENDBRANCH   8   9
ENDBRANCH   1   3
BRANCH   1  18
ATOM     16  C   UNL     1       1.946   9.171  19.185  0.00  0.00    +0.000 C 
ATOM     17  C   UNL     1       1.743   8.181  20.376  0.00  0.00    +0.000 C 
ATOM     18  C   UNL     1       1.753   7.017  19.367  0.00  0.00    +0.000 C 
ATOM     19  C   UNL     1       2.531   7.948  18.417  0.00  0.00    +0.000 C 
BRANCH  16  25
ATOM     20  C   UNL     1       0.125  11.376  20.473  0.00  0.00    +0.000 C 
ATOM     21  N   UNL     1      -0.176  10.671  19.256  0.00  0.00    +0.000 N 
ATOM     22  C   UNL     1      -1.315  10.752  18.493  0.00  0.00    +0.000 A 
ATOM     23  N   UNL     1      -1.183   9.950  17.456  0.00  0.00    +0.000 NA
ATOM     24  N   UNL     1       0.027   9.312  17.557  0.00  0.00    +0.000 NA
ATOM     25  C   UNL     1       0.620   9.726  18.654  0.00  0.00    +0.000 A 
BRANCH  22  26
ATOM     26  C   UNL     1      -2.500  11.593  18.788  0.00  0.00    +0.000 C 
BRANCH  26  27
ATOM     27  O   UNL     1      -3.071  12.006  17.550  0.00  0.00    +0.000 OA
ATOM     28  H   UNL     1      -2.323  12.111  16.934  0.00  0.00    +0.000 HD
ENDBRANCH  26  27
ENDBRANCH  22  26
ENDBRANCH  16  25
ENDBRANCH   1  18
TORSDOF 7
ENDMDL
MODEL 9
REMARK VINA RESULT:      -6.7      3.354      8.135
REMARK  Name = 
REMARK  8 active torsions:
REMARK  status: ('A' for Active; 'I' for Inactive)
REMARK    1  A    between atoms: C_1  and  N_2
REMARK    2  A    between atoms: C_3  and  C_4
REMARK    3  A    between atoms: C_4  and  O_5
REMARK    4  A    between atoms: C_8  and  C_9
REMARK    5  A    between atoms: C_11  and  N_12
REMARK    6  A    between atoms: N_12  and  C_13
REMARK    7  A    between atoms: C_18  and  C_19
REMARK    8  A    between atoms: C_19  and  C_21
REMARK                            x       y       z     vdW  Elec       q    Type
REMARK                         _______ _______ _______ _____ _____    ______ ____
ROOT
ATOM      1  N   UNL     1       1.357   9.057  19.042  0.00  0.00    +0.000 N 
ATOM      2  H   UNL     1       1.456   9.864  18.422  0.00  0.00    +0.000 HD
ENDROOT
BRANCH   1   3
ATOM      3  C   UNL     1       0.829   9.481  20.283  0.00  0.00    +0.000 A 
ATOM      4  N   UNL     1       1.234   8.809  21.389  0.00  0.00    +0.000 NA
ATOM      5  C   UNL     1       0.677   9.112  22.579  0.00  0.00    +0.000 A 
ATOM      6  C   UNL     1      -0.295  10.076  22.741  0.00  0.00    +0.000 A 
ATOM      7  C   UNL     1      -0.702  10.783  21.615  0.00  0.00    +0.000 A 
ATOM      8  C   UNL     1      -0.154  10.483  20.357  0.00  0.00    +0.000 A 
BRANCH   8   9
ATOM      9  C   UNL     1      -0.545  11.245  19.134  0.00  0.00    +0.000 C 
ATOM     10  O   UNL     1       0.328  11.962  18.626  0.00  0.00    +0.000 OA
BRANCH   9  11
ATOM     11  C   UNL     1      -1.908  11.145  18.617  0.00  0.00    +0.000 A 
ATOM     12  N   UNL     1      -2.931  11.870  19.028  0.00  0.00    +0.000 NA
ATOM     13  C   UNL     1      -4.059  11.565  18.292  0.00  0.00    +0.000 A 
ATOM     14  C   UNL     1      -3.897  10.580  17.344  0.00  0.00    +0.000 A 
ATOM     15  S   UNL     1      -2.276  10.024  17.360  0.00  0.00    +0.000 S 
ENDBRANCH   9  11
ENDBRANCH   8   9
ENDBRANCH   1   3
BRANCH   1  18
ATOM     16  C   UNL     1       2.919   6.301  17.822  0.00  0.00    +0.000 C 
ATOM     17  C   UNL     1       1.887   6.638  18.945  0.00  0.00    +0.000 C 
ATOM     18  C   UNL     1       2.410   8.087  18.946  0.00  0.00    +0.000 C 
ATOM     19  C   UNL     1       2.904   7.827  17.510  0.00  0.00    +0.000 C 
BRANCH  16  25
ATOM     20  C   UNL     1       5.843   6.933  16.880  0.00  0.00    +0.000 C 
ATOM     21  N   UNL     1       5.500   6.011  17.929  0.00  0.00    +0.000 N 
ATOM     22  C   UNL     1       6.340   5.189  18.639  0.00  0.00    +0.000 A 
ATOM     23  N   UNL     1       5.625   4.513  19.515  0.00  0.00    +0.000 NA
ATOM     24  N   UNL     1       4.308   4.861  19.355  0.00  0.00    +0.000 NA
ATOM     25  C   UNL     1       4.231   5.742  18.383  0.00  0.00    +0.000 A 
BRANCH  22  26
ATOM     26  C   UNL     1       7.806   5.073  18.449  0.00  0.00    +0.000 C 
BRANCH  26  27
ATOM     27  O   UNL     1       8.046   4.125  17.413  0.00  0.00    +0.000 OA
ATOM     28  H   UNL     1       8.965   3.823  17.536  0.00  0.00    +0.000 HD
ENDBRANCH  26  27
ENDBRANCH  22  26
ENDBRANCH  16  25
ENDBRANCH   1  18
TORSDOF 7
ENDMDL
