MODEL 1
REMARK VINA RESULT:      -6.7      0.000      0.000
REMARK  Name = 
REMARK  5 active torsions:
REMARK  status: ('A' for Active; 'I' for Inactive)
REMARK    1  A    between atoms: C_1  and  O_2
REMARK    2  A    between atoms: O_2  and  C_3
REMARK    3  A    between atoms: C_3  and  C_4
REMARK    4  A    between atoms: C_6  and  C_7
REMARK    5  A    between atoms: C_18  and  O_19
REMARK                            x       y       z     vdW  Elec       q    Type
REMARK                         _______ _______ _______ _____ _____    ______ ____
ROOT
ATOM      1  C   UNL     1       6.887   5.649  18.874  0.00  0.00    +0.000 C 
ATOM      2  C   UNL     1       7.920   5.725  20.014  0.00  0.00    +0.000 C 
ATOM      3  C   UNL     1       7.083   4.215  18.304  0.00  0.00    +0.000 C 
ATOM      4  C   UNL     1       5.747   3.627  17.907  0.00  0.00    +0.000 C 
ATOM      5  C   UNL     1       4.882   3.738  19.079  0.00  0.00    +0.000 A 
ATOM      6  C   UNL     1       4.512   4.937  19.513  0.00  0.00    +0.000 A 
ATOM      7  C   UNL     1       2.941   4.721  19.296  0.00  0.00    +0.000 A 
ATOM      8  C   UNL     1       2.204   4.765  18.073  0.00  0.00    +0.000 A 
ATOM      9  C   UNL     1       1.194   3.804  17.716  0.00  0.00    +0.000 A 
ATOM     10  C   UNL     1       0.794   2.830  18.616  0.00  0.00    +0.000 A 
ATOM     11  C   UNL     1       1.392   2.787  19.858  0.00  0.00    +0.000 A 
ATOM     12  C   UNL     1       2.481   3.656  20.123  0.00  0.00    +0.000 A 
ATOM     13  O   UNL     1       3.450   3.084  20.980  0.00  0.00    +0.000 OA
ATOM     14  C   UNL     1       4.552   2.798  20.171  0.00  0.00    +0.000 A 
ATOM     15  O   UNL     1       5.313   1.885  20.436  0.00  0.00    +0.000 OA
ATOM     16  O   UNL     1       5.422   6.018  19.249  0.00  0.00    +0.000 OA
ENDROOT
BRANCH   4  17
ATOM     17  C   UNL     1       5.348   4.479  16.617  0.00  0.00    +0.000 A 
ATOM     18  C   UNL     1       5.879   4.112  15.382  0.00  0.00    +0.000 A 
ATOM     19  C   UNL     1       5.917   5.022  14.304  0.00  0.00    +0.000 A 
ATOM     20  C   UNL     1       5.401   6.331  14.412  0.00  0.00    +0.000 A 
ATOM     21  C   UNL     1       4.807   6.713  15.580  0.00  0.00    +0.000 A 
ATOM     22  C   UNL     1       4.806   5.803  16.637  0.00  0.00    +0.000 A 
ENDBRANCH   4  17
BRANCH   1  24
ATOM     23  C   UNL     1       7.799   7.732  17.856  0.00  0.00    +0.000 C 
ATOM     24  O   UNL     1       7.390   6.398  17.735  0.00  0.00    +0.000 OA
ENDBRANCH   1  24
BRANCH  10  25
ATOM     25  O   UNL     1      -0.073   1.826  18.296  0.00  0.00    +0.000 OA
ATOM     26  H   UNL     1      -0.981   2.164  18.218  0.00  0.00    +0.000 HD
ENDBRANCH  10  25
TORSDOF 3
ENDMDL
MODEL 2
REMARK VINA RESULT:      -6.5      2.170      3.203
REMARK  Name = 
REMARK  5 active torsions:
REMARK  status: ('A' for Active; 'I' for Inactive)
REMARK    1  A    between atoms: C_1  and  O_2
REMARK    2  A    between atoms: O_2  and  C_3
REMARK    3  A    between atoms: C_3  and  C_4
REMARK    4  A    between atoms: C_6  and  C_7
REMARK    5  A    between atoms: C_18  and  O_19
REMARK                            x       y       z     vdW  Elec       q    Type
REMARK                         _______ _______ _______ _____ _____    ______ ____
ROOT
ATOM      1  C   UNL     1       6.288   6.347  17.794  0.00  0.00    +0.000 C 
ATOM      2  C   UNL     1       7.622   5.856  17.200  0.00  0.00    +0.000 C 
ATOM      3  C   UNL     1       5.292   6.206  16.608  0.00  0.00    +0.000 C 
ATOM      4  C   UNL     1       3.942   5.749  17.115  0.00  0.00    +0.000 C 
ATOM      5  C   UNL     1       4.183   4.539  17.897  0.00  0.00    +0.000 A 
ATOM      6  C   UNL     1       4.869   4.614  19.032  0.00  0.00    +0.000 A 
ATOM      7  C   UNL     1       3.687   4.099  19.981  0.00  0.00    +0.000 A 
ATOM      8  C   UNL     1       2.544   4.823  20.442  0.00  0.00    +0.000 A 
ATOM      9  C   UNL     1       1.212   4.282  20.460  0.00  0.00    +0.000 A 
ATOM     10  C   UNL     1       0.981   2.956  20.133  0.00  0.00    +0.000 A 
ATOM     11  C   UNL     1       2.052   2.165  19.773  0.00  0.00    +0.000 A 
ATOM     12  C   UNL     1       3.328   2.767  19.627  0.00  0.00    +0.000 A 
ATOM     13  O   UNL     1       4.106   2.175  18.603  0.00  0.00    +0.000 OA
ATOM     14  C   UNL     1       4.127   3.101  17.558  0.00  0.00    +0.000 A 
ATOM     15  O   UNL     1       4.244   2.747  16.400  0.00  0.00    +0.000 OA
ATOM     16  O   UNL     1       5.839   5.671  19.121  0.00  0.00    +0.000 OA
ENDROOT
BRANCH   4  17
ATOM     17  C   UNL     1       3.399   7.032  17.897  0.00  0.00    +0.000 A 
ATOM     18  C   UNL     1       2.738   6.846  19.109  0.00  0.00    +0.000 A 
ATOM     19  C   UNL     1       1.889   7.841  19.638  0.00  0.00    +0.000 A 
ATOM     20  C   UNL     1       1.688   9.077  18.985  0.00  0.00    +0.000 A 
ATOM     21  C   UNL     1       2.370   9.332  17.830  0.00  0.00    +0.000 A 
ATOM     22  C   UNL     1       3.182   8.321  17.317  0.00  0.00    +0.000 A 
ENDBRANCH   4  17
BRANCH   1  24
ATOM     23  C   UNL     1       7.504   8.519  17.692  0.00  0.00    +0.000 C 
ATOM     24  O   UNL     1       6.317   7.798  17.873  0.00  0.00    +0.000 OA
ENDBRANCH   1  24
BRANCH  10  25
ATOM     25  O   UNL     1      -0.268   2.418  20.022  0.00  0.00    +0.000 OA
ATOM     26  H   UNL     1      -0.359   1.924  19.189  0.00  0.00    +0.000 HD
ENDBRANCH  10  25
TORSDOF 3
ENDMDL
MODEL 3
REMARK VINA RESULT:      -6.4      1.982      5.727
REMARK  Name = 
REMARK  5 active torsions:
REMARK  status: ('A' for Active; 'I' for Inactive)
REMARK    1  A    between atoms: C_1  and  O_2
REMARK    2  A    between atoms: O_2  and  C_3
REMARK    3  A    between atoms: C_3  and  C_4
REMARK    4  A    between atoms: C_6  and  C_7
REMARK    5  A    between atoms: C_18  and  O_19
REMARK                            x       y       z     vdW  Elec       q    Type
REMARK                         _______ _______ _______ _____ _____    ______ ____
ROOT
ATOM      1  C   UNL     1       2.388   5.757  20.213  0.00  0.00    +0.000 C 
ATOM      2  C   UNL     1       2.144   7.012  21.073  0.00  0.00    +0.000 C 
ATOM      3  C   UNL     1       1.575   6.044  18.918  0.00  0.00    +0.000 C 
ATOM      4  C   UNL     1       2.321   5.520  17.711  0.00  0.00    +0.000 C 
ATOM      5  C   UNL     1       3.660   6.100  17.769  0.00  0.00    +0.000 A 
ATOM      6  C   UNL     1       4.487   5.752  18.749  0.00  0.00    +0.000 A 
ATOM      7  C   UNL     1       5.611   5.114  17.805  0.00  0.00    +0.000 A 
ATOM      8  C   UNL     1       5.600   3.842  17.152  0.00  0.00    +0.000 A 
ATOM      9  C   UNL     1       6.005   3.643  15.787  0.00  0.00    +0.000 A 
ATOM     10  C   UNL     1       6.552   4.682  15.052  0.00  0.00    +0.000 A 
ATOM     11  C   UNL     1       6.688   5.918  15.649  0.00  0.00    +0.000 A 
ATOM     12  C   UNL     1       6.147   6.115  16.945  0.00  0.00    +0.000 A 
ATOM     13  O   UNL     1       5.648   7.424  17.145  0.00  0.00    +0.000 OA
ATOM     14  C   UNL     1       4.257   7.304  17.151  0.00  0.00    +0.000 A 
ATOM     15  O   UNL     1       3.540   8.220  16.794  0.00  0.00    +0.000 OA
ATOM     16  O   UNL     1       3.875   5.359  19.988  0.00  0.00    +0.000 OA
ENDROOT
BRANCH   4  17
ATOM     17  C   UNL     1       2.200   3.936  17.873  0.00  0.00    +0.000 A 
ATOM     18  C   UNL     1       0.944   3.382  18.112  0.00  0.00    +0.000 A 
ATOM     19  C   UNL     1       0.808   2.092  18.666  0.00  0.00    +0.000 A 
ATOM     20  C   UNL     1       1.928   1.291  18.979  0.00  0.00    +0.000 A 
ATOM     21  C   UNL     1       3.177   1.763  18.697  0.00  0.00    +0.000 A 
ATOM     22  C   UNL     1       3.283   3.052  18.173  0.00  0.00    +0.000 A 
ENDBRANCH   4  17
BRANCH   1  24
ATOM     23  C   UNL     1       2.089   3.747  21.654  0.00  0.00    +0.000 C 
ATOM     24  O   UNL     1       1.577   4.669  20.732  0.00  0.00    +0.000 OA
ENDBRANCH   1  24
BRANCH  10  25
ATOM     25  O   UNL     1       6.848   4.586  13.723  0.00  0.00    +0.000 OA
ATOM     26  H   UNL     1       6.091   4.861  13.179  0.00  0.00    +0.000 HD
ENDBRANCH  10  25
TORSDOF 3
ENDMDL
MODEL 4
REMARK VINA RESULT:      -6.4      9.925     12.025
REMARK  Name = 
REMARK  5 active torsions:
REMARK  status: ('A' for Active; 'I' for Inactive)
REMARK    1  A    between atoms: C_1  and  O_2
REMARK    2  A    between atoms: O_2  and  C_3
REMARK    3  A    between atoms: C_3  and  C_4
REMARK    4  A    between atoms: C_6  and  C_7
REMARK    5  A    between atoms: C_18  and  O_19
REMARK                            x       y       z     vdW  Elec       q    Type
REMARK                         _______ _______ _______ _____ _____    ______ ____
ROOT
ATOM      1  C   UNL     1      -4.036  12.974  22.976  0.00  0.00    +0.000 C 
ATOM      2  C   UNL     1      -4.071  13.734  24.316  0.00  0.00    +0.000 C 
ATOM      3  C   UNL     1      -3.969  14.111  21.917  0.00  0.00    +0.000 C 
ATOM      4  C   UNL     1      -3.071  13.701  20.772  0.00  0.00    +0.000 C 
ATOM      5  C   UNL     1      -1.798  13.304  21.367  0.00  0.00    +0.000 A 
ATOM      6  C   UNL     1      -1.738  12.222  22.135  0.00  0.00    +0.000 A 
ATOM      7  C   UNL     1      -0.711  11.414  21.212  0.00  0.00    +0.000 A 
ATOM      8  C   UNL     1      -0.976  10.721  19.990  0.00  0.00    +0.000 A 
ATOM      9  C   UNL     1      -0.134  10.805  18.827  0.00  0.00    +0.000 A 
ATOM     10  C   UNL     1       1.072  11.486  18.874  0.00  0.00    +0.000 A 
ATOM     11  C   UNL     1       1.444  12.097  20.053  0.00  0.00    +0.000 A 
ATOM     12  C   UNL     1       0.526  12.116  21.134  0.00  0.00    +0.000 A 
ATOM     13  O   UNL     1       0.610  13.295  21.912  0.00  0.00    +0.000 OA
ATOM     14  C   UNL     1      -0.535  14.035  21.607  0.00  0.00    +0.000 A 
ATOM     15  O   UNL     1      -0.541  15.250  21.677  0.00  0.00    +0.000 OA
ATOM     16  O   UNL     1      -2.942  11.876  22.839  0.00  0.00    +0.000 OA
ENDROOT
BRANCH   4  17
ATOM     17  C   UNL     1      -3.922  12.568  20.035  0.00  0.00    +0.000 A 
ATOM     18  C   UNL     1      -3.365  11.924  18.932  0.00  0.00    +0.000 A 
ATOM     19  C   UNL     1      -4.174  11.239  18.001  0.00  0.00    +0.000 A 
ATOM     20  C   UNL     1      -5.575  11.147  18.153  0.00  0.00    +0.000 A 
ATOM     21  C   UNL     1      -6.157  11.702  19.256  0.00  0.00    +0.000 A 
ATOM     22  C   UNL     1      -5.337  12.395  20.146  0.00  0.00    +0.000 A 
ENDBRANCH   4  17
BRANCH   1  24
ATOM     23  C   UNL     1      -6.449  12.725  23.543  0.00  0.00    +0.000 C 
ATOM     24  O   UNL     1      -5.373  12.488  22.679  0.00  0.00    +0.000 OA
ENDBRANCH   1  24
BRANCH  10  25
ATOM     25  O   UNL     1       1.857  11.696  17.778  0.00  0.00    +0.000 OA
ATOM     26  H   UNL     1       2.273  12.574  17.813  0.00  0.00    +0.000 HD
ENDBRANCH  10  25
TORSDOF 3
ENDMDL
MODEL 5
REMARK VINA RESULT:      -6.3      8.026     11.825
REMARK  Name = 
REMARK  5 active torsions:
REMARK  status: ('A' for Active; 'I' for Inactive)
REMARK    1  A    between atoms: C_1  and  O_2
REMARK    2  A    between atoms: O_2  and  C_3
REMARK    3  A    between atoms: C_3  and  C_4
REMARK    4  A    between atoms: C_6  and  C_7
REMARK    5  A    between atoms: C_18  and  O_19
REMARK                            x       y       z     vdW  Elec       q    Type
REMARK                         _______ _______ _______ _____ _____    ______ ____
ROOT
ATOM      1  C   UNL     1       9.913  16.231  22.153  0.00  0.00    +0.000 C 
ATOM      2  C   UNL     1      10.157  17.677  21.679  0.00  0.00    +0.000 C 
ATOM      3  C   UNL     1       8.385  16.035  21.938  0.00  0.00    +0.000 C 
ATOM      4  C   UNL     1       8.105  14.627  21.461  0.00  0.00    +0.000 C 
ATOM      5  C   UNL     1       8.949  14.412  20.290  0.00  0.00    +0.000 A 
ATOM      6  C   UNL     1      10.270  14.375  20.427  0.00  0.00    +0.000 A 
ATOM      7  C   UNL     1      10.453  12.870  19.914  0.00  0.00    +0.000 A 
ATOM      8  C   UNL     1      10.190  11.656  20.622  0.00  0.00    +0.000 A 
ATOM      9  C   UNL     1       9.512  10.527  20.043  0.00  0.00    +0.000 A 
ATOM     10  C   UNL     1       9.175  10.516  18.700  0.00  0.00    +0.000 A 
ATOM     11  C   UNL     1       9.488  11.615  17.927  0.00  0.00    +0.000 A 
ATOM     12  C   UNL     1      10.025  12.765  18.559  0.00  0.00    +0.000 A 
ATOM     13  O   UNL     1       9.613  13.975  17.953  0.00  0.00    +0.000 OA
ATOM     14  C   UNL     1       8.703  14.554  18.839  0.00  0.00    +0.000 A 
ATOM     15  O   UNL     1       7.809  15.280  18.445  0.00  0.00    +0.000 OA
ATOM     16  O   UNL     1      10.818  15.138  21.514  0.00  0.00    +0.000 OA
ENDROOT
BRANCH   4  17
ATOM     17  C   UNL     1       8.407  13.742  22.756  0.00  0.00    +0.000 A 
ATOM     18  C   UNL     1       8.240  12.361  22.677  0.00  0.00    +0.000 A 
ATOM     19  C   UNL     1       8.082  11.576  23.839  0.00  0.00    +0.000 A 
ATOM     20  C   UNL     1       8.111  12.141  25.133  0.00  0.00    +0.000 A 
ATOM     21  C   UNL     1       8.343  13.481  25.263  0.00  0.00    +0.000 A 
ATOM     22  C   UNL     1       8.470  14.236  24.097  0.00  0.00    +0.000 A 
ENDBRANCH   4  17
BRANCH   1  24
ATOM     23  C   UNL     1      10.590  17.189  24.351  0.00  0.00    +0.000 C 
ATOM     24  O   UNL     1       9.926  16.207  23.606  0.00  0.00    +0.000 OA
ENDBRANCH   1  24
BRANCH  10  25
ATOM     25  O   UNL     1       8.433   9.528  18.121  0.00  0.00    +0.000 OA
ATOM     26  H   UNL     1       8.789   8.651  18.346  0.00  0.00    +0.000 HD
ENDBRANCH  10  25
TORSDOF 3
ENDMDL
MODEL 6
REMARK VINA RESULT:      -6.3      2.065      3.248
REMARK  Name = 
REMARK  5 active torsions:
REMARK  status: ('A' for Active; 'I' for Inactive)
REMARK    1  A    between atoms: C_1  and  O_2
REMARK    2  A    between atoms: O_2  and  C_3
REMARK    3  A    between atoms: C_3  and  C_4
REMARK    4  A    between atoms: C_6  and  C_7
REMARK    5  A    between atoms: C_18  and  O_19
REMARK                            x       y       z     vdW  Elec       q    Type
REMARK                         _______ _______ _______ _____ _____    ______ ____
ROOT
ATOM      1  C   UNL     1       6.081   5.457  17.046  0.00  0.00    +0.000 C 
ATOM      2  C   UNL     1       7.177   4.780  16.200  0.00  0.00    +0.000 C 
ATOM      3  C   UNL     1       4.776   5.154  16.255  0.00  0.00    +0.000 C 
ATOM      4  C   UNL     1       3.638   4.886  17.215  0.00  0.00    +0.000 C 
ATOM      5  C   UNL     1       4.099   3.835  18.119  0.00  0.00    +0.000 A 
ATOM      6  C   UNL     1       5.092   4.083  18.965  0.00  0.00    +0.000 A 
ATOM      7  C   UNL     1       4.245   3.831  20.301  0.00  0.00    +0.000 A 
ATOM      8  C   UNL     1       3.294   4.699  20.920  0.00  0.00    +0.000 A 
ATOM      9  C   UNL     1       2.026   4.255  21.434  0.00  0.00    +0.000 A 
ATOM     10  C   UNL     1       1.706   2.908  21.461  0.00  0.00    +0.000 A 
ATOM     11  C   UNL     1       2.619   1.998  20.970  0.00  0.00    +0.000 A 
ATOM     12  C   UNL     1       3.795   2.481  20.341  0.00  0.00    +0.000 A 
ATOM     13  O   UNL     1       4.231   1.658  19.275  0.00  0.00    +0.000 OA
ATOM     14  C   UNL     1       3.942   2.365  18.106  0.00  0.00    +0.000 A 
ATOM     15  O   UNL     1       3.708   1.790  17.060  0.00  0.00    +0.000 OA
ATOM     16  O   UNL     1       6.046   5.075  18.554  0.00  0.00    +0.000 OA
ENDROOT
BRANCH   4  17
ATOM     17  C   UNL     1       3.355   6.325  17.847  0.00  0.00    +0.000 A 
ATOM     18  C   UNL     1       2.622   6.404  19.030  0.00  0.00    +0.000 A 
ATOM     19  C   UNL     1       1.988   7.603  19.418  0.00  0.00    +0.000 A 
ATOM     20  C   UNL     1       2.085   8.783  18.648  0.00  0.00    +0.000 A 
ATOM     21  C   UNL     1       2.851   8.773  17.518  0.00  0.00    +0.000 A 
ATOM     22  C   UNL     1       3.445   7.568  17.145  0.00  0.00    +0.000 A 
ENDBRANCH   4  17
BRANCH   1  24
ATOM     23  C   UNL     1       7.171   7.678  17.339  0.00  0.00    +0.000 C 
ATOM     24  O   UNL     1       6.134   6.891  16.820  0.00  0.00    +0.000 OA
ENDBRANCH   1  24
BRANCH  10  25
ATOM     25  O   UNL     1       0.479   2.436  21.829  0.00  0.00    +0.000 OA
ATOM     26  H   UNL     1      -0.081   2.280  21.049  0.00  0.00    +0.000 HD
ENDBRANCH  10  25
TORSDOF 3
ENDMDL
MODEL 7
REMARK VINA RESULT:      -6.2     11.323     13.465
REMARK  Name = 
REMARK  5 active torsions:
REMARK  status: ('A' for Active; 'I' for Inactive)
REMARK    1  A    between atoms: C_1  and  O_2
REMARK    2  A    between atoms: O_2  and  C_3
REMARK    3  A    between atoms: C_3  and  C_4
REMARK    4  A    between atoms: C_6  and  C_7
REMARK    5  A    between atoms: C_18  and  O_19
REMARK                            x       y       z     vdW  Elec       q    Type
REMARK                         _______ _______ _______ _____ _____    ______ ____
ROOT
ATOM      1  C   UNL     1      -6.380  12.105  20.277  0.00  0.00    +0.000 C 
ATOM      2  C   UNL     1      -7.890  12.409  20.275  0.00  0.00    +0.000 C 
ATOM      3  C   UNL     1      -5.768  13.311  19.508  0.00  0.00    +0.000 C 
ATOM      4  C   UNL     1      -4.446  13.705  20.128  0.00  0.00    +0.000 C 
ATOM      5  C   UNL     1      -4.703  13.915  21.550  0.00  0.00    +0.000 A 
ATOM      6  C   UNL     1      -5.047  12.887  22.317  0.00  0.00    +0.000 A 
ATOM      7  C   UNL     1      -3.781  12.971  23.293  0.00  0.00    +0.000 A 
ATOM      8  C   UNL     1      -2.441  12.538  23.043  0.00  0.00    +0.000 A 
ATOM      9  C   UNL     1      -1.277  13.311  23.384  0.00  0.00    +0.000 A 
ATOM     10  C   UNL     1      -1.396  14.493  24.096  0.00  0.00    +0.000 A 
ATOM     11  C   UNL     1      -2.654  14.926  24.461  0.00  0.00    +0.000 A 
ATOM     12  C   UNL     1      -3.786  14.216  23.986  0.00  0.00    +0.000 A 
ATOM     13  O   UNL     1      -4.899  15.052  23.732  0.00  0.00    +0.000 OA
ATOM     14  C   UNL     1      -5.011  15.125  22.343  0.00  0.00    +0.000 A 
ATOM     15  O   UNL     1      -5.488  16.102  21.796  0.00  0.00    +0.000 OA
ATOM     16  O   UNL     1      -5.741  11.811  21.665  0.00  0.00    +0.000 OA
ENDROOT
BRANCH   4  17
ATOM     17  C   UNL     1      -3.486  12.493  19.728  0.00  0.00    +0.000 A 
ATOM     18  C   UNL     1      -2.176  12.491  20.204  0.00  0.00    +0.000 A 
ATOM     19  C   UNL     1      -1.174  11.715  19.584  0.00  0.00    +0.000 A 
ATOM     20  C   UNL     1      -1.450  10.886  18.475  0.00  0.00    +0.000 A 
ATOM     21  C   UNL     1      -2.733  10.801  18.017  0.00  0.00    +0.000 A 
ATOM     22  C   UNL     1      -3.698  11.598  18.632  0.00  0.00    +0.000 A 
ENDBRANCH   4  17
BRANCH   1  24
ATOM     23  C   UNL     1      -6.914   9.928  19.190  0.00  0.00    +0.000 C 
ATOM     24  O   UNL     1      -6.110  11.070  19.293  0.00  0.00    +0.000 OA
ENDBRANCH   1  24
BRANCH  10  25
ATOM     25  O   UNL     1      -0.344  15.325  24.349  0.00  0.00    +0.000 OA
ATOM     26  H   UNL     1       0.447  15.042  23.858  0.00  0.00    +0.000 HD
ENDBRANCH  10  25
TORSDOF 3
ENDMDL
MODEL 8
REMARK VINA RESULT:      -6.2     11.453     12.818
REMARK  Name = 
REMARK  5 active torsions:
REMARK  status: ('A' for Active; 'I' for Inactive)
REMARK    1  A    between atoms: C_1  and  O_2
REMARK    2  A    between atoms: O_2  and  C_3
REMARK    3  A    between atoms: C_3  and  C_4
REMARK    4  A    between atoms: C_6  and  C_7
REMARK    5  A    between atoms: C_18  and  O_19
REMARK                            x       y       z     vdW  Elec       q    Type
REMARK                         _______ _______ _______ _____ _____    ______ ____
ROOT
ATOM      1  C   UNL     1      -3.390  15.480  21.749  0.00  0.00    +0.000 C 
ATOM      2  C   UNL     1      -3.626  16.429  22.939  0.00  0.00    +0.000 C 
ATOM      3  C   UNL     1      -2.836  14.191  22.419  0.00  0.00    +0.000 C 
ATOM      4  C   UNL     1      -3.373  12.966  21.712  0.00  0.00    +0.000 C 
ATOM      5  C   UNL     1      -4.827  13.105  21.692  0.00  0.00    +0.000 A 
ATOM      6  C   UNL     1      -5.387  14.076  20.979  0.00  0.00    +0.000 A 
ATOM      7  C   UNL     1      -6.208  13.115  19.996  0.00  0.00    +0.000 A 
ATOM      8  C   UNL     1      -5.720  12.366  18.881  0.00  0.00    +0.000 A 
ATOM      9  C   UNL     1      -6.086  11.000  18.618  0.00  0.00    +0.000 A 
ATOM     10  C   UNL     1      -7.046  10.363  19.387  0.00  0.00    +0.000 A 
ATOM     11  C   UNL     1      -7.636  11.058  20.422  0.00  0.00    +0.000 A 
ATOM     12  C   UNL     1      -7.150  12.351  20.743  0.00  0.00    +0.000 A 
ATOM     13  O   UNL     1      -7.212  12.639  22.127  0.00  0.00    +0.000 OA
ATOM     14  C   UNL     1      -5.893  12.599  22.583  0.00  0.00    +0.000 A 
ATOM     15  O   UNL     1      -5.628  12.297  23.732  0.00  0.00    +0.000 OA
ATOM     16  O   UNL     1      -4.599  15.264  20.794  0.00  0.00    +0.000 OA
ENDROOT
BRANCH   4  17
ATOM     17  C   UNL     1      -2.614  13.001  20.307  0.00  0.00    +0.000 A 
ATOM     18  C   UNL     1      -2.907  12.019  19.363  0.00  0.00    +0.000 A 
ATOM     19  C   UNL     1      -2.019  11.733  18.305  0.00  0.00    +0.000 A 
ATOM     20  C   UNL     1      -0.808  12.439  18.135  0.00  0.00    +0.000 A 
ATOM     21  C   UNL     1      -0.511  13.457  18.994  0.00  0.00    +0.000 A 
ATOM     22  C   UNL     1      -1.394  13.701  20.045  0.00  0.00    +0.000 A 
ENDBRANCH   4  17
BRANCH   1  24
ATOM     23  C   UNL     1      -1.608  17.152  21.263  0.00  0.00    +0.000 C 
ATOM     24  O   UNL     1      -2.181  15.891  21.055  0.00  0.00    +0.000 OA
ENDBRANCH   1  24
BRANCH  10  25
ATOM     25  O   UNL     1      -7.352   9.039  19.259  0.00  0.00    +0.000 OA
ATOM     26  H   UNL     1      -6.752   8.492  19.794  0.00  0.00    +0.000 HD
ENDBRANCH  10  25
TORSDOF 3
ENDMDL
MODEL 9
REMARK VINA RESULT:      -6.2      9.354     11.442
REMARK  Name = 
REMARK  5 active torsions:
REMARK  status: ('A' for Active; 'I' for Inactive)
REMARK    1  A    between atoms: C_1  and  O_2
REMARK    2  A    between atoms: O_2  and  C_3
REMARK    3  A    between atoms: C_3  and  C_4
REMARK    4  A    between atoms: C_6  and  C_7
REMARK    5  A    between atoms: C_18  and  O_19
REMARK                            x       y       z     vdW  Elec       q    Type
REMARK                         _______ _______ _______ _____ _____    ______ ____
ROOT
ATOM      1  C   UNL     1       9.104  15.288  19.151  0.00  0.00    +0.000 C 
ATOM      2  C   UNL     1       8.850  16.714  18.626  0.00  0.00    +0.000 C 
ATOM      3  C   UNL     1      10.397  15.442  20.001  0.00  0.00    +0.000 C 
ATOM      4  C   UNL     1      10.317  14.563  21.230  0.00  0.00    +0.000 C 
ATOM      5  C   UNL     1       9.065  14.903  21.900  0.00  0.00    +0.000 A 
ATOM      6  C   UNL     1       7.907  14.624  21.313  0.00  0.00    +0.000 A 
ATOM      7  C   UNL     1       7.378  13.623  22.445  0.00  0.00    +0.000 A 
ATOM      8  C   UNL     1       7.766  12.267  22.677  0.00  0.00    +0.000 A 
ATOM      9  C   UNL     1       8.040  11.727  23.981  0.00  0.00    +0.000 A 
ATOM     10  C   UNL     1       7.824  12.486  25.120  0.00  0.00    +0.000 A 
ATOM     11  C   UNL     1       7.353  13.774  24.981  0.00  0.00    +0.000 A 
ATOM     12  C   UNL     1       7.231  14.321  23.678  0.00  0.00    +0.000 A 
ATOM     13  O   UNL     1       7.501  15.709  23.631  0.00  0.00    +0.000 OA
ATOM     14  C   UNL     1       8.741  15.835  23.002  0.00  0.00    +0.000 A 
ATOM     15  O   UNL     1       9.482  16.769  23.243  0.00  0.00    +0.000 OA
ATOM     16  O   UNL     1       7.911  14.602  19.876  0.00  0.00    +0.000 OA
ENDROOT
BRANCH   4  17
ATOM     17  C   UNL     1      10.451  13.090  20.628  0.00  0.00    +0.000 A 
ATOM     18  C   UNL     1      11.660  12.711  20.047  0.00  0.00    +0.000 A 
ATOM     19  C   UNL     1      11.732  11.625  19.150  0.00  0.00    +0.000 A 
ATOM     20  C   UNL     1      10.596  10.854  18.817  0.00  0.00    +0.000 A 
ATOM     21  C   UNL     1       9.403  11.144  19.415  0.00  0.00    +0.000 A 
ATOM     22  C   UNL     1       9.356  12.239  20.278  0.00  0.00    +0.000 A 
ENDBRANCH   4  17
BRANCH   1  24
ATOM     23  C   UNL     1      10.761  14.915  17.328  0.00  0.00    +0.000 C 
ATOM     24  O   UNL     1       9.656  14.484  18.073  0.00  0.00    +0.000 OA
ENDBRANCH   1  24
BRANCH  10  25
ATOM     25  O   UNL     1       8.172  12.072  26.373  0.00  0.00    +0.000 OA
ATOM     26  H   UNL     1       9.065  12.380  26.605  0.00  0.00    +0.000 HD
ENDBRANCH  10  25
TORSDOF 3
ENDMDL
