MODEL 1
REMARK VINA RESULT:      -8.1      0.000      0.000
REMARK  Name = 
REMARK  3 active torsions:
REMARK  status: ('A' for Active; 'I' for Inactive)
REMARK    1  A    between atoms: C_1  and  C_2
REMARK    2  A    between atoms: N_4  and  C_5
REMARK    3  A    between atoms: P_11  and  O_13
REMARK                            x       y       z     vdW  Elec       q    Type
REMARK                         _______ _______ _______ _____ _____    ______ ____
ROOT
ATOM      1  C   UNL     1       5.186   5.311  17.139  0.00  0.00    +0.000 C 
ATOM      2  C   UNL     1       5.984   4.483  18.150  0.00  0.00    +0.000 C 
ATOM      3  S   UNL     1       4.809   4.084  19.427  0.00  0.00    +0.000 S 
ATOM      4  C   UNL     1       3.391   4.266  18.297  0.00  0.00    +0.000 C 
ATOM      5  C   UNL     1       2.274   5.060  18.990  0.00  0.00    +0.000 C 
ATOM      6  O   UNL     1       1.903   4.451  20.217  0.00  0.00    +0.000 OA
ATOM      7  P   UNL     1       1.495   2.901  20.207  0.00  0.00    +0.000 P 
ATOM      8  O   UNL     1       1.539   2.219  21.533  0.00  0.00    +0.000 OA
ATOM      9  O   UNL     1       2.314   2.169  19.037  0.00  0.00    +0.000 OA
ATOM     10  C   UNL     1       2.794   2.897  17.923  0.00  0.00    +0.000 C 
ATOM     11  O   UNL     1       3.801   4.918  17.090  0.00  0.00    +0.000 OA
ENDROOT
BRANCH   1  15
ATOM     12  C   UNL     1       5.103   3.228  12.634  0.00  0.00    +0.000 C 
ATOM     13  C   UNL     1       5.723   4.114  13.666  0.00  0.00    +0.000 A 
ATOM     14  C   UNL     1       5.165   4.372  14.855  0.00  0.00    +0.000 A 
ATOM     15  N   UNL     1       5.764   5.177  15.803  0.00  0.00    +0.000 N 
ATOM     16  C   UNL     1       7.027   5.719  15.595  0.00  0.00    +0.000 A 
ATOM     17  O   UNL     1       7.656   6.338  16.452  0.00  0.00    +0.000 OA
ATOM     18  N   UNL     1       7.573   5.494  14.364  0.00  0.00    +0.000 N 
ATOM     19  C   UNL     1       7.041   4.717  13.371  0.00  0.00    +0.000 A 
ATOM     20  O   UNL     1       7.624   4.515  12.313  0.00  0.00    +0.000 OA
ATOM     21  H   UNL     1       8.491   5.878  14.193  0.00  0.00    +0.000 HD
ENDBRANCH   1  15
BRANCH   7  22
ATOM     22  O   UNL     1      -0.004   2.961  19.654  0.00  0.00    +0.000 OA
ATOM     23  H   UNL     1      -0.195   2.106  19.220  0.00  0.00    +0.000 HD
ENDBRANCH   7  22
TORSDOF 2
ENDMDL
MODEL 2
REMARK VINA RESULT:      -6.9      4.151      7.461
REMARK  Name = 
REMARK  3 active torsions:
REMARK  status: ('A' for Active; 'I' for Inactive)
REMARK    1  A    between atoms: C_1  and  C_2
REMARK    2  A    between atoms: N_4  and  C_5
REMARK    3  A    between atoms: P_11  and  O_13
REMARK                            x       y       z     vdW  Elec       q    Type
REMARK                         _______ _______ _______ _____ _____    ______ ____
ROOT
ATOM      1  C   UNL     1       2.561   6.776  18.795  0.00  0.00    +0.000 C 
ATOM      2  C   UNL     1       3.221   5.968  19.915  0.00  0.00    +0.000 C 
ATOM      3  S   UNL     1       4.498   5.034  19.099  0.00  0.00    +0.000 S 
ATOM      4  C   UNL     1       4.615   6.229  17.729  0.00  0.00    +0.000 C 
ATOM      5  C   UNL     1       4.685   5.478  16.391  0.00  0.00    +0.000 C 
ATOM      6  O   UNL     1       5.759   4.551  16.383  0.00  0.00    +0.000 OA
ATOM      7  P   UNL     1       7.227   5.081  16.745  0.00  0.00    +0.000 P 
ATOM      8  O   UNL     1       8.208   4.029  17.141  0.00  0.00    +0.000 OA
ATOM      9  O   UNL     1       7.085   6.301  17.777  0.00  0.00    +0.000 OA
ATOM     10  C   UNL     1       5.900   7.072  17.830  0.00  0.00    +0.000 C 
ATOM     11  O   UNL     1       3.494   7.120  17.753  0.00  0.00    +0.000 OA
ENDROOT
BRANCH   1  15
ATOM     12  C   UNL     1       0.411   9.204  22.553  0.00  0.00    +0.000 C 
ATOM     13  C   UNL     1       0.897   9.123  21.142  0.00  0.00    +0.000 A 
ATOM     14  C   UNL     1       1.555   8.070  20.643  0.00  0.00    +0.000 A 
ATOM     15  N   UNL     1       1.976   8.004  19.330  0.00  0.00    +0.000 N 
ATOM     16  C   UNL     1       1.680   9.019  18.427  0.00  0.00    +0.000 A 
ATOM     17  O   UNL     1       1.923   8.955  17.222  0.00  0.00    +0.000 OA
ATOM     18  N   UNL     1       1.051  10.111  18.948  0.00  0.00    +0.000 N 
ATOM     19  C   UNL     1       0.609  10.255  20.235  0.00  0.00    +0.000 A 
ATOM     20  O   UNL     1      -0.003  11.248  20.612  0.00  0.00    +0.000 OA
ATOM     21  H   UNL     1       0.824  10.859  18.309  0.00  0.00    +0.000 HD
ENDBRANCH   1  15
BRANCH   7  22
ATOM     22  O   UNL     1       7.671   5.778  15.377  0.00  0.00    +0.000 OA
ATOM     23  H   UNL     1       8.188   6.576  15.604  0.00  0.00    +0.000 HD
ENDBRANCH   7  22
TORSDOF 2
ENDMDL
MODEL 3
REMARK VINA RESULT:      -6.8      5.630      7.580
REMARK  Name = 
REMARK  3 active torsions:
REMARK  status: ('A' for Active; 'I' for Inactive)
REMARK    1  A    between atoms: C_1  and  C_2
REMARK    2  A    between atoms: N_4  and  C_5
REMARK    3  A    between atoms: P_11  and  O_13
REMARK                            x       y       z     vdW  Elec       q    Type
REMARK                         _______ _______ _______ _____ _____    ______ ____
ROOT
ATOM      1  C   UNL     1       2.019   8.095  20.024  0.00  0.00    +0.000 C 
ATOM      2  C   UNL     1       1.102   8.235  21.242  0.00  0.00    +0.000 C 
ATOM      3  S   UNL     1       0.443   9.884  21.118  0.00  0.00    +0.000 S 
ATOM      4  C   UNL     1       0.700   9.942  19.314  0.00  0.00    +0.000 C 
ATOM      5  C   UNL     1       1.307  11.296  18.920  0.00  0.00    +0.000 C 
ATOM      6  O   UNL     1       0.499  12.369  19.378  0.00  0.00    +0.000 OA
ATOM      7  P   UNL     1      -1.055  12.375  18.986  0.00  0.00    +0.000 P 
ATOM      8  O   UNL     1      -1.923  13.251  19.825  0.00  0.00    +0.000 OA
ATOM      9  O   UNL     1      -1.550  10.854  18.852  0.00  0.00    +0.000 OA
ATOM     10  C   UNL     1      -0.634   9.817  18.555  0.00  0.00    +0.000 C 
ATOM     11  O   UNL     1       1.549   8.865  18.902  0.00  0.00    +0.000 OA
ENDROOT
BRANCH   1  15
ATOM     12  C   UNL     1       1.291   3.292  21.048  0.00  0.00    +0.000 C 
ATOM     13  C   UNL     1       1.806   4.391  20.176  0.00  0.00    +0.000 A 
ATOM     14  C   UNL     1       1.620   5.692  20.432  0.00  0.00    +0.000 A 
ATOM     15  N   UNL     1       2.123   6.692  19.625  0.00  0.00    +0.000 N 
ATOM     16  C   UNL     1       2.914   6.398  18.520  0.00  0.00    +0.000 A 
ATOM     17  O   UNL     1       3.486   7.250  17.842  0.00  0.00    +0.000 OA
ATOM     18  N   UNL     1       3.062   5.073  18.233  0.00  0.00    +0.000 N 
ATOM     19  C   UNL     1       2.591   4.024  18.977  0.00  0.00    +0.000 A 
ATOM     20  O   UNL     1       2.818   2.857  18.683  0.00  0.00    +0.000 OA
ATOM     21  H   UNL     1       3.634   4.837  17.436  0.00  0.00    +0.000 HD
ENDBRANCH   1  15
BRANCH   7  22
ATOM     22  O   UNL     1      -1.010  12.904  17.478  0.00  0.00    +0.000 OA
ATOM     23  H   UNL     1      -1.662  12.388  16.963  0.00  0.00    +0.000 HD
ENDBRANCH   7  22
TORSDOF 2
ENDMDL
MODEL 4
REMARK VINA RESULT:      -6.7      4.371      6.920
REMARK  Name = 
REMARK  3 active torsions:
REMARK  status: ('A' for Active; 'I' for Inactive)
REMARK    1  A    between atoms: C_1  and  C_2
REMARK    2  A    between atoms: N_4  and  C_5
REMARK    3  A    between atoms: P_11  and  O_13
REMARK                            x       y       z     vdW  Elec       q    Type
REMARK                         _______ _______ _______ _____ _____    ______ ____
ROOT
ATOM      1  C   UNL     1       2.668   7.342  18.753  0.00  0.00    +0.000 C 
ATOM      2  C   UNL     1       1.827   6.509  17.782  0.00  0.00    +0.000 C 
ATOM      3  S   UNL     1       2.626   4.918  17.749  0.00  0.00    +0.000 S 
ATOM      4  C   UNL     1       3.364   5.161  19.399  0.00  0.00    +0.000 C 
ATOM      5  C   UNL     1       4.833   4.716  19.379  0.00  0.00    +0.000 C 
ATOM      6  O   UNL     1       4.954   3.375  18.933  0.00  0.00    +0.000 OA
ATOM      7  P   UNL     1       4.090   2.245  19.672  0.00  0.00    +0.000 P 
ATOM      8  O   UNL     1       3.918   0.971  18.914  0.00  0.00    +0.000 OA
ATOM      9  O   UNL     1       2.729   2.911  20.200  0.00  0.00    +0.000 OA
ATOM     10  C   UNL     1       2.655   4.300  20.460  0.00  0.00    +0.000 C 
ATOM     11  O   UNL     1       3.254   6.533  19.792  0.00  0.00    +0.000 OA
ENDROOT
BRANCH   1  15
ATOM     12  C   UNL     1      -0.317   8.813  22.437  0.00  0.00    +0.000 C 
ATOM     13  C   UNL     1       0.375   9.037  21.131  0.00  0.00    +0.000 A 
ATOM     14  C   UNL     1       1.237   8.169  20.589  0.00  0.00    +0.000 A 
ATOM     15  N   UNL     1       1.849   8.384  19.371  0.00  0.00    +0.000 N 
ATOM     16  C   UNL     1       1.551   9.503  18.602  0.00  0.00    +0.000 A 
ATOM     17  O   UNL     1       1.972   9.681  17.460  0.00  0.00    +0.000 OA
ATOM     18  N   UNL     1       0.709  10.410  19.177  0.00  0.00    +0.000 N 
ATOM     19  C   UNL     1       0.069  10.274  20.379  0.00  0.00    +0.000 A 
ATOM     20  O   UNL     1      -0.721  11.110  20.800  0.00  0.00    +0.000 OA
ATOM     21  H   UNL     1       0.478  11.229  18.634  0.00  0.00    +0.000 HD
ENDBRANCH   1  15
BRANCH   7  22
ATOM     22  O   UNL     1       4.943   1.998  21.002  0.00  0.00    +0.000 OA
ATOM     23  H   UNL     1       5.444   1.167  20.883  0.00  0.00    +0.000 HD
ENDBRANCH   7  22
TORSDOF 2
ENDMDL
MODEL 5
REMARK VINA RESULT:      -6.6      1.560      1.883
REMARK  Name = 
REMARK  3 active torsions:
REMARK  status: ('A' for Active; 'I' for Inactive)
REMARK    1  A    between atoms: C_1  and  C_2
REMARK    2  A    between atoms: N_4  and  C_5
REMARK    3  A    between atoms: P_11  and  O_13
REMARK                            x       y       z     vdW  Elec       q    Type
REMARK                         _______ _______ _______ _____ _____    ______ ____
ROOT
ATOM      1  C   UNL     1       5.782   3.980  16.726  0.00  0.00    +0.000 C 
ATOM      2  C   UNL     1       4.852   2.764  16.715  0.00  0.00    +0.000 C 
ATOM      3  S   UNL     1       3.849   2.955  18.174  0.00  0.00    +0.000 S 
ATOM      4  C   UNL     1       4.094   4.761  18.208  0.00  0.00    +0.000 C 
ATOM      5  C   UNL     1       4.392   5.216  19.644  0.00  0.00    +0.000 C 
ATOM      6  O   UNL     1       3.368   4.800  20.534  0.00  0.00    +0.000 OA
ATOM      7  P   UNL     1       1.852   5.183  20.183  0.00  0.00    +0.000 P 
ATOM      8  O   UNL     1       0.809   4.377  20.884  0.00  0.00    +0.000 OA
ATOM      9  O   UNL     1       1.702   5.249  18.587  0.00  0.00    +0.000 OA
ATOM     10  C   UNL     1       2.822   5.506  17.763  0.00  0.00    +0.000 C 
ATOM     11  O   UNL     1       5.159   5.132  17.327  0.00  0.00    +0.000 OA
ENDROOT
BRANCH   1  15
ATOM     12  C   UNL     1       5.728   2.966  11.867  0.00  0.00    +0.000 C 
ATOM     13  C   UNL     1       6.186   3.769  13.041  0.00  0.00    +0.000 A 
ATOM     14  C   UNL     1       5.740   3.582  14.289  0.00  0.00    +0.000 A 
ATOM     15  N   UNL     1       6.191   4.319  15.364  0.00  0.00    +0.000 N 
ATOM     16  C   UNL     1       7.195   5.270  15.216  0.00  0.00    +0.000 A 
ATOM     17  O   UNL     1       7.719   5.865  16.157  0.00  0.00    +0.000 OA
ATOM     18  N   UNL     1       7.615   5.493  13.937  0.00  0.00    +0.000 N 
ATOM     19  C   UNL     1       7.213   4.811  12.821  0.00  0.00    +0.000 A 
ATOM     20  O   UNL     1       7.684   5.032  11.711  0.00  0.00    +0.000 OA
ATOM     21  H   UNL     1       8.346   6.178  13.807  0.00  0.00    +0.000 HD
ENDBRANCH   1  15
BRANCH   7  22
ATOM     22  O   UNL     1       1.785   6.712  20.644  0.00  0.00    +0.000 OA
ATOM     23  H   UNL     1       0.896   6.872  21.016  0.00  0.00    +0.000 HD
ENDBRANCH   7  22
TORSDOF 2
ENDMDL
MODEL 6
REMARK VINA RESULT:      -6.1      3.467      7.088
REMARK  Name = 
REMARK  3 active torsions:
REMARK  status: ('A' for Active; 'I' for Inactive)
REMARK    1  A    between atoms: C_1  and  C_2
REMARK    2  A    between atoms: N_4  and  C_5
REMARK    3  A    between atoms: P_11  and  O_13
REMARK                            x       y       z     vdW  Elec       q    Type
REMARK                         _______ _______ _______ _____ _____    ______ ____
ROOT
ATOM      1  C   UNL     1       3.769   5.189  18.998  0.00  0.00    +0.000 C 
ATOM      2  C   UNL     1       5.164   5.692  19.378  0.00  0.00    +0.000 C 
ATOM      3  S   UNL     1       6.224   5.097  18.077  0.00  0.00    +0.000 S 
ATOM      4  C   UNL     1       4.847   4.995  16.887  0.00  0.00    +0.000 C 
ATOM      5  C   UNL     1       4.928   3.671  16.113  0.00  0.00    +0.000 C 
ATOM      6  O   UNL     1       6.191   3.527  15.481  0.00  0.00    +0.000 OA
ATOM      7  P   UNL     1       6.704   4.707  14.526  0.00  0.00    +0.000 P 
ATOM      8  O   UNL     1       8.170   4.713  14.247  0.00  0.00    +0.000 OA
ATOM      9  O   UNL     1       6.110   6.095  15.071  0.00  0.00    +0.000 OA
ATOM     10  C   UNL     1       4.925   6.123  15.843  0.00  0.00    +0.000 C 
ATOM     11  O   UNL     1       3.594   5.106  17.571  0.00  0.00    +0.000 OA
ENDROOT
BRANCH   1  15
ATOM     12  C   UNL     1       1.465   9.586  19.010  0.00  0.00    +0.000 C 
ATOM     13  C   UNL     1       1.694   8.216  19.562  0.00  0.00    +0.000 A 
ATOM     14  C   UNL     1       2.527   7.324  19.013  0.00  0.00    +0.000 A 
ATOM     15  N   UNL     1       2.742   6.071  19.550  0.00  0.00    +0.000 N 
ATOM     16  C   UNL     1       2.142   5.686  20.743  0.00  0.00    +0.000 A 
ATOM     17  O   UNL     1       2.393   4.633  21.328  0.00  0.00    +0.000 OA
ATOM     18  N   UNL     1       1.257   6.577  21.276  0.00  0.00    +0.000 N 
ATOM     19  C   UNL     1       0.984   7.832  20.802  0.00  0.00    +0.000 A 
ATOM     20  O   UNL     1       0.218   8.598  21.373  0.00  0.00    +0.000 OA
ATOM     21  H   UNL     1       0.811   6.318  22.144  0.00  0.00    +0.000 HD
ENDBRANCH   1  15
BRANCH   7  22
ATOM     22  O   UNL     1       5.877   4.429  13.187  0.00  0.00    +0.000 OA
ATOM     23  H   UNL     1       5.191   5.122  13.112  0.00  0.00    +0.000 HD
ENDBRANCH   7  22
TORSDOF 2
ENDMDL
MODEL 7
REMARK VINA RESULT:      -6.1     10.127     10.853
REMARK  Name = 
REMARK  3 active torsions:
REMARK  status: ('A' for Active; 'I' for Inactive)
REMARK    1  A    between atoms: C_1  and  C_2
REMARK    2  A    between atoms: N_4  and  C_5
REMARK    3  A    between atoms: P_11  and  O_13
REMARK                            x       y       z     vdW  Elec       q    Type
REMARK                         _______ _______ _______ _____ _____    ______ ____
ROOT
ATOM      1  C   UNL     1       8.516  14.367  20.886  0.00  0.00    +0.000 C 
ATOM      2  C   UNL     1       9.529  14.628  22.003  0.00  0.00    +0.000 C 
ATOM      3  S   UNL     1       8.664  14.197  23.499  0.00  0.00    +0.000 S 
ATOM      4  C   UNL     1       7.531  13.072  22.620  0.00  0.00    +0.000 C 
ATOM      5  C   UNL     1       6.094  13.297  23.113  0.00  0.00    +0.000 C 
ATOM      6  O   UNL     1       6.008  13.147  24.521  0.00  0.00    +0.000 OA
ATOM      7  P   UNL     1       6.567  11.796  25.179  0.00  0.00    +0.000 P 
ATOM      8  O   UNL     1       6.850  11.866  26.642  0.00  0.00    +0.000 OA
ATOM      9  O   UNL     1       7.778  11.255  24.276  0.00  0.00    +0.000 OA
ATOM     10  C   UNL     1       7.872  11.599  22.907  0.00  0.00    +0.000 C 
ATOM     11  O   UNL     1       7.622  13.284  21.207  0.00  0.00    +0.000 OA
ENDROOT
BRANCH   1  15
ATOM     12  C   UNL     1      11.826  11.626  18.400  0.00  0.00    +0.000 C 
ATOM     13  C   UNL     1      10.845  12.750  18.488  0.00  0.00    +0.000 A 
ATOM     14  C   UNL     1      10.092  12.997  19.566  0.00  0.00    +0.000 A 
ATOM     15  N   UNL     1       9.207  14.054  19.636  0.00  0.00    +0.000 N 
ATOM     16  C   UNL     1       9.095  14.969  18.596  0.00  0.00    +0.000 A 
ATOM     17  O   UNL     1       8.416  15.994  18.656  0.00  0.00    +0.000 OA
ATOM     18  N   UNL     1       9.828  14.690  17.479  0.00  0.00    +0.000 N 
ATOM     19  C   UNL     1      10.719  13.662  17.330  0.00  0.00    +0.000 A 
ATOM     20  O   UNL     1      11.385  13.514  16.312  0.00  0.00    +0.000 OA
ATOM     21  H   UNL     1       9.762  15.344  16.712  0.00  0.00    +0.000 HD
ENDBRANCH   1  15
BRANCH   7  22
ATOM     22  O   UNL     1       5.375  10.772  24.885  0.00  0.00    +0.000 OA
ATOM     23  H   UNL     1       4.875  10.651  25.716  0.00  0.00    +0.000 HD
ENDBRANCH   7  22
TORSDOF 2
ENDMDL
MODEL 8
REMARK VINA RESULT:      -6.0     10.031     11.936
REMARK  Name = 
REMARK  3 active torsions:
REMARK  status: ('A' for Active; 'I' for Inactive)
REMARK    1  A    between atoms: C_1  and  C_2
REMARK    2  A    between atoms: N_4  and  C_5
REMARK    3  A    between atoms: P_11  and  O_13
REMARK                            x       y       z     vdW  Elec       q    Type
REMARK                         _______ _______ _______ _____ _____    ______ ____
ROOT
ATOM      1  C   UNL     1      -1.467  11.578  18.064  0.00  0.00    +0.000 C 
ATOM      2  C   UNL     1      -1.073  10.608  19.181  0.00  0.00    +0.000 C 
ATOM      3  S   UNL     1       0.526  11.175  19.722  0.00  0.00    +0.000 S 
ATOM      4  C   UNL     1       0.217  12.873  19.135  0.00  0.00    +0.000 C 
ATOM      5  C   UNL     1       1.456  13.400  18.397  0.00  0.00    +0.000 C 
ATOM      6  O   UNL     1       2.610  13.322  19.220  0.00  0.00    +0.000 OA
ATOM      7  P   UNL     1       2.557  13.997  20.673  0.00  0.00    +0.000 P 
ATOM      8  O   UNL     1       3.595  13.526  21.635  0.00  0.00    +0.000 OA
ATOM      9  O   UNL     1       1.047  13.924  21.211  0.00  0.00    +0.000 OA
ATOM     10  C   UNL     1      -0.040  13.833  20.311  0.00  0.00    +0.000 C 
ATOM     11  O   UNL     1      -0.932  12.898  18.280  0.00  0.00    +0.000 OA
ENDROOT
BRANCH   1  15
ATOM     12  C   UNL     1      -5.882  12.176  20.254  0.00  0.00    +0.000 C 
ATOM     13  C   UNL     1      -5.030  11.907  19.056  0.00  0.00    +0.000 A 
ATOM     14  C   UNL     1      -3.692  11.942  19.073  0.00  0.00    +0.000 A 
ATOM     15  N   UNL     1      -2.922  11.669  17.960  0.00  0.00    +0.000 N 
ATOM     16  C   UNL     1      -3.504  11.276  16.760  0.00  0.00    +0.000 A 
ATOM     17  O   UNL     1      -2.863  10.904  15.778  0.00  0.00    +0.000 OA
ATOM     18  N   UNL     1      -4.868  11.287  16.731  0.00  0.00    +0.000 N 
ATOM     19  C   UNL     1      -5.700  11.552  17.785  0.00  0.00    +0.000 A 
ATOM     20  O   UNL     1      -6.919  11.482  17.693  0.00  0.00    +0.000 OA
ATOM     21  H   UNL     1      -5.311  11.002  15.870  0.00  0.00    +0.000 HD
ENDBRANCH   1  15
BRANCH   7  22
ATOM     22  O   UNL     1       2.772  15.542  20.325  0.00  0.00    +0.000 OA
ATOM     23  H   UNL     1       3.615  15.823  20.731  0.00  0.00    +0.000 HD
ENDBRANCH   7  22
TORSDOF 2
ENDMDL
MODEL 9
REMARK VINA RESULT:      -5.9      5.081      7.488
REMARK  Name = 
REMARK  3 active torsions:
REMARK  status: ('A' for Active; 'I' for Inactive)
REMARK    1  A    between atoms: C_1  and  C_2
REMARK    2  A    between atoms: N_4  and  C_5
REMARK    3  A    between atoms: P_11  and  O_13
REMARK                            x       y       z     vdW  Elec       q    Type
REMARK                         _______ _______ _______ _____ _____    ______ ____
ROOT
ATOM      1  C   UNL     1       2.025   8.717  19.193  0.00  0.00    +0.000 C 
ATOM      2  C   UNL     1       2.583   8.795  17.770  0.00  0.00    +0.000 C 
ATOM      3  S   UNL     1       3.553   7.313  17.588  0.00  0.00    +0.000 S 
ATOM      4  C   UNL     1       2.602   6.433  18.870  0.00  0.00    +0.000 C 
ATOM      5  C   UNL     1       3.563   5.677  19.800  0.00  0.00    +0.000 C 
ATOM      6  O   UNL     1       4.403   4.803  19.063  0.00  0.00    +0.000 OA
ATOM      7  P   UNL     1       3.719   3.746  18.071  0.00  0.00    +0.000 P 
ATOM      8  O   UNL     1       4.619   3.171  17.029  0.00  0.00    +0.000 OA
ATOM      9  O   UNL     1       2.353   4.380  17.517  0.00  0.00    +0.000 OA
ATOM     10  C   UNL     1       1.668   5.378  18.249  0.00  0.00    +0.000 C 
ATOM     11  O   UNL     1       1.800   7.357  19.613  0.00  0.00    +0.000 OA
ENDROOT
BRANCH   1  15
ATOM     12  C   UNL     1      -2.037  10.542  16.998  0.00  0.00    +0.000 C 
ATOM     13  C   UNL     1      -1.148  10.363  18.186  0.00  0.00    +0.000 A 
ATOM     14  C   UNL     1      -0.055   9.591  18.186  0.00  0.00    +0.000 A 
ATOM     15  N   UNL     1       0.766   9.455  19.287  0.00  0.00    +0.000 N 
ATOM     16  C   UNL     1       0.532  10.174  20.454  0.00  0.00    +0.000 A 
ATOM     17  O   UNL     1       1.298  10.186  21.417  0.00  0.00    +0.000 OA
ATOM     18  N   UNL     1      -0.608  10.925  20.468  0.00  0.00    +0.000 N 
ATOM     19  C   UNL     1      -1.474  11.104  19.424  0.00  0.00    +0.000 A 
ATOM     20  O   UNL     1      -2.447  11.845  19.499  0.00  0.00    +0.000 OA
ATOM     21  H   UNL     1      -0.796  11.457  21.306  0.00  0.00    +0.000 HD
ENDBRANCH   1  15
BRANCH   7  22
ATOM     22  O   UNL     1       3.235   2.609  19.086  0.00  0.00    +0.000 OA
ATOM     23  H   UNL     1       3.625   2.807  19.961  0.00  0.00    +0.000 HD
ENDBRANCH   7  22
TORSDOF 2
ENDMDL
