MODEL 1
REMARK VINA RESULT:      -8.8      0.000      0.000
REMARK  Name = 
REMARK  1 active torsions:
REMARK  status: ('A' for Active; 'I' for Inactive)
REMARK    1  A    between atoms: C_5  and  C_6
REMARK                            x       y       z     vdW  Elec       q    Type
REMARK                         _______ _______ _______ _____ _____    ______ ____
ROOT
ATOM      1  C   UNL     1       0.979   9.424  19.620  0.00  0.00    +0.000 A 
ATOM      2  C   UNL     1       1.429   9.865  18.381  0.00  0.00    +0.000 A 
ATOM      3  N   UNL     1       2.272   9.157  17.589  0.00  0.00    +0.000 NA
ATOM      4  C   UNL     1       2.712   7.990  18.078  0.00  0.00    +0.000 A 
ATOM      5  C   UNL     1       3.613   7.254  17.321  0.00  0.00    +0.000 A 
ATOM      6  C   UNL     1       4.142   6.094  17.850  0.00  0.00    +0.000 A 
ATOM      7  C   UNL     1       3.758   5.639  19.113  0.00  0.00    +0.000 A 
ATOM      8  C   UNL     1       2.832   6.339  19.865  0.00  0.00    +0.000 A 
ATOM      9  C   UNL     1       2.301   7.527  19.364  0.00  0.00    +0.000 A 
ATOM     10  N   UNL     1       1.434   8.239  20.115  0.00  0.00    +0.000 NA
ATOM     11  C   UNL     1       4.542   4.388  19.438  0.00  0.00    +0.000 C 
ATOM     12  C   UNL     1       3.857   3.139  18.829  0.00  0.00    +0.000 C 
ATOM     13  N   UNL     1       4.337   2.793  17.479  0.00  0.00    +0.000 NA
ATOM     14  C   UNL     1       4.519   3.954  16.593  0.00  0.00    +0.000 C 
ATOM     15  C   UNL     1       5.190   5.166  17.285  0.00  0.00    +0.000 C 
ATOM     16  C   UNL     1       5.817   4.716  18.625  0.00  0.00    +0.000 C 
ATOM     17  H   UNL     1       3.729   2.100  17.046  0.00  0.00    +0.000 HD
ENDROOT
BRANCH   1  22
ATOM     18 CL   UNL     1      -2.506  12.495  23.481  0.00  0.00    +0.000 Cl
ATOM     19  C   UNL     1      -1.529  11.626  22.364  0.00  0.00    +0.000 A 
ATOM     20  C   UNL     1      -0.720  10.591  22.809  0.00  0.00    +0.000 A 
ATOM     21  C   UNL     1       0.077   9.894  21.894  0.00  0.00    +0.000 A 
ATOM     22  C   UNL     1       0.084  10.200  20.512  0.00  0.00    +0.000 A 
ATOM     23  C   UNL     1      -0.780  11.237  20.095  0.00  0.00    +0.000 A 
ATOM     24 CL   UNL     1      -1.011  11.675  18.432  0.00  0.00    +0.000 Cl
ATOM     25  C   UNL     1      -1.564  11.952  21.015  0.00  0.00    +0.000 A 
ENDBRANCH   1  22
TORSDOF 1
ENDMDL
MODEL 2
REMARK VINA RESULT:      -8.8      1.959      2.902
REMARK  Name = 
REMARK  1 active torsions:
REMARK  status: ('A' for Active; 'I' for Inactive)
REMARK    1  A    between atoms: C_5  and  C_6
REMARK                            x       y       z     vdW  Elec       q    Type
REMARK                         _______ _______ _______ _____ _____    ______ ____
ROOT
ATOM      1  C   UNL     1       1.129   9.784  19.656  0.00  0.00    +0.000 A 
ATOM      2  C   UNL     1       0.752   9.048  20.774  0.00  0.00    +0.000 A 
ATOM      3  N   UNL     1       1.129   7.764  20.994  0.00  0.00    +0.000 NA
ATOM      4  C   UNL     1       1.869   7.188  20.038  0.00  0.00    +0.000 A 
ATOM      5  C   UNL     1       2.239   5.859  20.201  0.00  0.00    +0.000 A 
ATOM      6  C   UNL     1       2.927   5.226  19.185  0.00  0.00    +0.000 A 
ATOM      7  C   UNL     1       3.282   5.911  18.021  0.00  0.00    +0.000 A 
ATOM      8  C   UNL     1       2.956   7.246  17.859  0.00  0.00    +0.000 A 
ATOM      9  C   UNL     1       2.240   7.902  18.860  0.00  0.00    +0.000 A 
ATOM     10  N   UNL     1       1.877   9.190  18.685  0.00  0.00    +0.000 NA
ATOM     11  C   UNL     1       3.970   4.948  17.081  0.00  0.00    +0.000 C 
ATOM     12  C   UNL     1       5.477   4.834  17.420  0.00  0.00    +0.000 C 
ATOM     13  N   UNL     1       5.796   3.752  18.368  0.00  0.00    +0.000 NA
ATOM     14  C   UNL     1       4.849   3.639  19.489  0.00  0.00    +0.000 C 
ATOM     15  C   UNL     1       3.366   3.787  19.067  0.00  0.00    +0.000 C 
ATOM     16  C   UNL     1       3.248   3.656  17.531  0.00  0.00    +0.000 C 
ATOM     17  H   UNL     1       6.751   3.840  18.710  0.00  0.00    +0.000 HD
ENDROOT
BRANCH   1  22
ATOM     18 CL   UNL     1      -0.362  15.548  18.636  0.00  0.00    +0.000 Cl
ATOM     19  C   UNL     1       0.039  13.900  18.923  0.00  0.00    +0.000 A 
ATOM     20  C   UNL     1       1.122  13.580  19.728  0.00  0.00    +0.000 A 
ATOM     21  C   UNL     1       1.446  12.236  19.950  0.00  0.00    +0.000 A 
ATOM     22  C   UNL     1       0.697  11.176  19.385  0.00  0.00    +0.000 A 
ATOM     23  C   UNL     1      -0.419  11.545  18.601  0.00  0.00    +0.000 A 
ATOM     24 CL   UNL     1      -1.534  10.397  17.931  0.00  0.00    +0.000 Cl
ATOM     25  C   UNL     1      -0.732  12.892  18.360  0.00  0.00    +0.000 A 
ENDBRANCH   1  22
TORSDOF 1
ENDMDL
MODEL 3
REMARK VINA RESULT:      -8.7      3.323      8.318
REMARK  Name = 
REMARK  1 active torsions:
REMARK  status: ('A' for Active; 'I' for Inactive)
REMARK    1  A    between atoms: C_5  and  C_6
REMARK                            x       y       z     vdW  Elec       q    Type
REMARK                         _______ _______ _______ _____ _____    ______ ____
ROOT
ATOM      1  C   UNL     1       2.632   7.009  18.690  0.00  0.00    +0.000 A 
ATOM      2  C   UNL     1       2.237   6.719  19.991  0.00  0.00    +0.000 A 
ATOM      3  N   UNL     1       1.512   7.565  20.765  0.00  0.00    +0.000 NA
ATOM      4  C   UNL     1       1.216   8.756  20.231  0.00  0.00    +0.000 A 
ATOM      5  C   UNL     1       0.514   9.671  21.005  0.00  0.00    +0.000 A 
ATOM      6  C   UNL     1       0.278  10.934  20.501  0.00  0.00    +0.000 A 
ATOM      7  C   UNL     1       0.703  11.287  19.218  0.00  0.00    +0.000 A 
ATOM      8  C   UNL     1       1.368  10.375  18.417  0.00  0.00    +0.000 A 
ATOM      9  C   UNL     1       1.641   9.102  18.913  0.00  0.00    +0.000 A 
ATOM     10  N   UNL     1       2.333   8.225  18.154  0.00  0.00    +0.000 NA
ATOM     11  C   UNL     1       0.353  12.737  18.972  0.00  0.00    +0.000 C 
ATOM     12  C   UNL     1      -1.109  12.871  18.477  0.00  0.00    +0.000 C 
ATOM     13  N   UNL     1      -2.090  13.073  19.558  0.00  0.00    +0.000 NA
ATOM     14  C   UNL     1      -1.860  12.227  20.741  0.00  0.00    +0.000 C 
ATOM     15  C   UNL     1      -0.371  12.130  21.155  0.00  0.00    +0.000 C 
ATOM     16  C   UNL     1       0.441  13.231  20.435  0.00  0.00    +0.000 C 
ATOM     17  H   UNL     1      -3.041  12.957  19.211  0.00  0.00    +0.000 HD
ENDROOT
BRANCH   1  22
ATOM     18 CL   UNL     1       6.198   3.534  15.269  0.00  0.00    +0.000 Cl
ATOM     19  C   UNL     1       5.164   4.509  16.238  0.00  0.00    +0.000 A 
ATOM     20  C   UNL     1       5.467   5.846  16.448  0.00  0.00    +0.000 A 
ATOM     21  C   UNL     1       4.624   6.630  17.244  0.00  0.00    +0.000 A 
ATOM     22  C   UNL     1       3.453   6.109  17.844  0.00  0.00    +0.000 A 
ATOM     23  C   UNL     1       3.161   4.753  17.576  0.00  0.00    +0.000 A 
ATOM     24 CL   UNL     1       1.710   3.967  18.111  0.00  0.00    +0.000 Cl
ATOM     25  C   UNL     1       4.017   3.960  16.796  0.00  0.00    +0.000 A 
ENDBRANCH   1  22
TORSDOF 1
ENDMDL
MODEL 4
REMARK VINA RESULT:      -8.6      1.058      1.499
REMARK  Name = 
REMARK  1 active torsions:
REMARK  status: ('A' for Active; 'I' for Inactive)
REMARK    1  A    between atoms: C_5  and  C_6
REMARK                            x       y       z     vdW  Elec       q    Type
REMARK                         _______ _______ _______ _____ _____    ______ ____
ROOT
ATOM      1  C   UNL     1       0.914   9.547  19.582  0.00  0.00    +0.000 A 
ATOM      2  C   UNL     1       1.394   9.967  18.347  0.00  0.00    +0.000 A 
ATOM      3  N   UNL     1       2.236   9.236  17.576  0.00  0.00    +0.000 NA
ATOM      4  C   UNL     1       2.644   8.065  18.083  0.00  0.00    +0.000 A 
ATOM      5  C   UNL     1       3.543   7.304  17.348  0.00  0.00    +0.000 A 
ATOM      6  C   UNL     1       4.040   6.139  17.897  0.00  0.00    +0.000 A 
ATOM      7  C   UNL     1       3.626   5.704  19.157  0.00  0.00    +0.000 A 
ATOM      8  C   UNL     1       2.701   6.429  19.887  0.00  0.00    +0.000 A 
ATOM      9  C   UNL     1       2.203   7.622  19.366  0.00  0.00    +0.000 A 
ATOM     10  N   UNL     1       1.337   8.359  20.095  0.00  0.00    +0.000 NA
ATOM     11  C   UNL     1       4.379   4.441  19.507  0.00  0.00    +0.000 C 
ATOM     12  C   UNL     1       3.680   3.200  18.898  0.00  0.00    +0.000 C 
ATOM     13  N   UNL     1       4.176   2.831  17.560  0.00  0.00    +0.000 NA
ATOM     14  C   UNL     1       4.396   3.980  16.666  0.00  0.00    +0.000 C 
ATOM     15  C   UNL     1       5.079   5.185  17.359  0.00  0.00    +0.000 C 
ATOM     16  C   UNL     1       5.674   4.736  18.713  0.00  0.00    +0.000 C 
ATOM     17  H   UNL     1       3.562   2.146  17.123  0.00  0.00    +0.000 HD
ENDROOT
BRANCH   1  22
ATOM     18 CL   UNL     1      -2.888  12.881  22.886  0.00  0.00    +0.000 Cl
ATOM     19  C   UNL     1      -1.791  11.930  21.964  0.00  0.00    +0.000 A 
ATOM     20  C   UNL     1      -1.736  12.073  20.586  0.00  0.00    +0.000 A 
ATOM     21  C   UNL     1      -0.846  11.290  19.843  0.00  0.00    +0.000 A 
ATOM     22  C   UNL     1       0.021  10.350  20.451  0.00  0.00    +0.000 A 
ATOM     23  C   UNL     1      -0.041  10.260  21.860  0.00  0.00    +0.000 A 
ATOM     24 CL   UNL     1       1.026   9.265  22.799  0.00  0.00    +0.000 Cl
ATOM     25  C   UNL     1      -0.949  11.029  22.604  0.00  0.00    +0.000 A 
ENDBRANCH   1  22
TORSDOF 1
ENDMDL
MODEL 5
REMARK VINA RESULT:      -8.6      1.474      1.689
REMARK  Name = 
REMARK  1 active torsions:
REMARK  status: ('A' for Active; 'I' for Inactive)
REMARK    1  A    between atoms: C_5  and  C_6
REMARK                            x       y       z     vdW  Elec       q    Type
REMARK                         _______ _______ _______ _____ _____    ______ ____
ROOT
ATOM      1  C   UNL     1       1.151   9.184  19.970  0.00  0.00    +0.000 A 
ATOM      2  C   UNL     1       1.689   9.321  18.696  0.00  0.00    +0.000 A 
ATOM      3  N   UNL     1       2.253   8.302  18.001  0.00  0.00    +0.000 NA
ATOM      4  C   UNL     1       2.318   7.119  18.626  0.00  0.00    +0.000 A 
ATOM      5  C   UNL     1       2.928   6.058  17.969  0.00  0.00    +0.000 A 
ATOM      6  C   UNL     1       3.081   4.858  18.634  0.00  0.00    +0.000 A 
ATOM      7  C   UNL     1       2.602   4.690  19.934  0.00  0.00    +0.000 A 
ATOM      8  C   UNL     1       1.956   5.724  20.589  0.00  0.00    +0.000 A 
ATOM      9  C   UNL     1       1.811   6.953  19.950  0.00  0.00    +0.000 A 
ATOM     10  N   UNL     1       1.225   7.980  20.602  0.00  0.00    +0.000 NA
ATOM     11  C   UNL     1       2.964   3.302  20.410  0.00  0.00    +0.000 C 
ATOM     12  C   UNL     1       1.912   2.268  19.937  0.00  0.00    +0.000 C 
ATOM     13  N   UNL     1       2.231   1.641  18.642  0.00  0.00    +0.000 NA
ATOM     14  C   UNL     1       2.746   2.581  17.633  0.00  0.00    +0.000 C 
ATOM     15  C   UNL     1       3.776   3.592  18.194  0.00  0.00    +0.000 C 
ATOM     16  C   UNL     1       4.260   3.123  19.584  0.00  0.00    +0.000 C 
ATOM     17  H   UNL     1       1.428   1.128  18.281  0.00  0.00    +0.000 HD
ENDROOT
BRANCH   1  22
ATOM     18 CL   UNL     1      -1.310  13.520  23.381  0.00  0.00    +0.000 Cl
ATOM     19  C   UNL     1      -0.608  12.301  22.392  0.00  0.00    +0.000 A 
ATOM     20  C   UNL     1      -0.887  10.964  22.634  0.00  0.00    +0.000 A 
ATOM     21  C   UNL     1      -0.305   9.979  21.828  0.00  0.00    +0.000 A 
ATOM     22  C   UNL     1       0.562  10.296  20.755  0.00  0.00    +0.000 A 
ATOM     23  C   UNL     1       0.792  11.670  20.520  0.00  0.00    +0.000 A 
ATOM     24 CL   UNL     1       1.718  12.265  19.179  0.00  0.00    +0.000 Cl
ATOM     25  C   UNL     1       0.227  12.658  21.341  0.00  0.00    +0.000 A 
ENDBRANCH   1  22
TORSDOF 1
ENDMDL
MODEL 6
REMARK VINA RESULT:      -8.5      1.574      2.604
REMARK  Name = 
REMARK  1 active torsions:
REMARK  status: ('A' for Active; 'I' for Inactive)
REMARK    1  A    between atoms: C_5  and  C_6
REMARK                            x       y       z     vdW  Elec       q    Type
REMARK                         _______ _______ _______ _____ _____    ______ ____
ROOT
ATOM      1  C   UNL     1       1.399   7.759  20.477  0.00  0.00    +0.000 A 
ATOM      2  C   UNL     1       1.320   6.444  20.920  0.00  0.00    +0.000 A 
ATOM      3  N   UNL     1       2.049   5.427  20.397  0.00  0.00    +0.000 NA
ATOM      4  C   UNL     1       2.848   5.734  19.367  0.00  0.00    +0.000 A 
ATOM      5  C   UNL     1       3.578   4.714  18.770  0.00  0.00    +0.000 A 
ATOM      6  C   UNL     1       4.337   4.999  17.653  0.00  0.00    +0.000 A 
ATOM      7  C   UNL     1       4.406   6.296  17.142  0.00  0.00    +0.000 A 
ATOM      8  C   UNL     1       3.716   7.333  17.747  0.00  0.00    +0.000 A 
ATOM      9  C   UNL     1       2.922   7.067  18.861  0.00  0.00    +0.000 A 
ATOM     10  N   UNL     1       2.209   8.064  19.425  0.00  0.00    +0.000 NA
ATOM     11  C   UNL     1       5.261   6.283  15.895  0.00  0.00    +0.000 C 
ATOM     12  C   UNL     1       6.762   6.396  16.260  0.00  0.00    +0.000 C 
ATOM     13  N   UNL     1       7.433   5.095  16.437  0.00  0.00    +0.000 NA
ATOM     14  C   UNL     1       6.636   4.108  17.183  0.00  0.00    +0.000 C 
ATOM     15  C   UNL     1       5.144   4.076  16.773  0.00  0.00    +0.000 C 
ATOM     16  C   UNL     1       4.955   4.836  15.441  0.00  0.00    +0.000 C 
ATOM     17  H   UNL     1       8.350   5.217  16.865  0.00  0.00    +0.000 HD
ENDROOT
BRANCH   1  22
ATOM     18 CL   UNL     1      -1.804  12.252  22.937  0.00  0.00    +0.000 Cl
ATOM     19  C   UNL     1      -0.904  10.976  22.216  0.00  0.00    +0.000 A 
ATOM     20  C   UNL     1      -0.350   9.982  23.010  0.00  0.00    +0.000 A 
ATOM     21  C   UNL     1       0.386   8.951  22.415  0.00  0.00    +0.000 A 
ATOM     22  C   UNL     1       0.584   8.875  21.016  0.00  0.00    +0.000 A 
ATOM     23  C   UNL     1      -0.027   9.886  20.240  0.00  0.00    +0.000 A 
ATOM     24 CL   UNL     1      -0.009   9.897  18.506  0.00  0.00    +0.000 Cl
ATOM     25  C   UNL     1      -0.747  10.933  20.837  0.00  0.00    +0.000 A 
ENDBRANCH   1  22
TORSDOF 1
ENDMDL
MODEL 7
REMARK VINA RESULT:      -8.5      1.750      2.116
REMARK  Name = 
REMARK  1 active torsions:
REMARK  status: ('A' for Active; 'I' for Inactive)
REMARK    1  A    between atoms: C_5  and  C_6
REMARK                            x       y       z     vdW  Elec       q    Type
REMARK                         _______ _______ _______ _____ _____    ______ ____
ROOT
ATOM      1  C   UNL     1       1.251   9.288  19.874  0.00  0.00    +0.000 A 
ATOM      2  C   UNL     1       1.753   9.382  18.581  0.00  0.00    +0.000 A 
ATOM      3  N   UNL     1       2.270   8.334  17.894  0.00  0.00    +0.000 NA
ATOM      4  C   UNL     1       2.327   7.164  18.544  0.00  0.00    +0.000 A 
ATOM      5  C   UNL     1       2.891   6.074  17.894  0.00  0.00    +0.000 A 
ATOM      6  C   UNL     1       3.036   4.886  18.582  0.00  0.00    +0.000 A 
ATOM      7  C   UNL     1       2.594   4.760  19.900  0.00  0.00    +0.000 A 
ATOM      8  C   UNL     1       1.993   5.824  20.550  0.00  0.00    +0.000 A 
ATOM      9  C   UNL     1       1.857   7.042  19.886  0.00  0.00    +0.000 A 
ATOM     10  N   UNL     1       1.317   8.097  20.532  0.00  0.00    +0.000 NA
ATOM     11  C   UNL     1       2.938   3.374  20.398  0.00  0.00    +0.000 C 
ATOM     12  C   UNL     1       1.847   2.356  19.981  0.00  0.00    +0.000 C 
ATOM     13  N   UNL     1       2.111   1.692  18.692  0.00  0.00    +0.000 NA
ATOM     14  C   UNL     1       2.617   2.595  17.646  0.00  0.00    +0.000 C 
ATOM     15  C   UNL     1       3.687   3.594  18.151  0.00  0.00    +0.000 C 
ATOM     16  C   UNL     1       4.203   3.145  19.537  0.00  0.00    +0.000 C 
ATOM     17  H   UNL     1       1.285   1.190  18.368  0.00  0.00    +0.000 HD
ENDROOT
BRANCH   1  22
ATOM     18 CL   UNL     1      -0.867  14.122  22.811  0.00  0.00    +0.000 Cl
ATOM     19  C   UNL     1      -0.267  12.733  21.995  0.00  0.00    +0.000 A 
ATOM     20  C   UNL     1       0.610  12.878  20.930  0.00  0.00    +0.000 A 
ATOM     21  C   UNL     1       1.087  11.741  20.267  0.00  0.00    +0.000 A 
ATOM     22  C   UNL     1       0.714  10.431  20.650  0.00  0.00    +0.000 A 
ATOM     23  C   UNL     1      -0.152  10.325  21.762  0.00  0.00    +0.000 A 
ATOM     24 CL   UNL     1      -0.621   8.810  22.464  0.00  0.00    +0.000 Cl
ATOM     25  C   UNL     1      -0.649  11.465  22.414  0.00  0.00    +0.000 A 
ENDBRANCH   1  22
TORSDOF 1
ENDMDL
MODEL 8
REMARK VINA RESULT:      -8.2      1.662      2.827
REMARK  Name = 
REMARK  1 active torsions:
REMARK  status: ('A' for Active; 'I' for Inactive)
REMARK    1  A    between atoms: C_5  and  C_6
REMARK                            x       y       z     vdW  Elec       q    Type
REMARK                         _______ _______ _______ _____ _____    ______ ____
ROOT
ATOM      1  C   UNL     1       1.095   8.533  20.176  0.00  0.00    +0.000 A 
ATOM      2  C   UNL     1       1.087   7.379  20.953  0.00  0.00    +0.000 A 
ATOM      3  N   UNL     1       1.884   6.307  20.719  0.00  0.00    +0.000 NA
ATOM      4  C   UNL     1       2.681   6.379  19.645  0.00  0.00    +0.000 A 
ATOM      5  C   UNL     1       3.481   5.285  19.342  0.00  0.00    +0.000 A 
ATOM      6  C   UNL     1       4.242   5.310  18.191  0.00  0.00    +0.000 A 
ATOM      7  C   UNL     1       4.243   6.428  17.354  0.00  0.00    +0.000 A 
ATOM      8  C   UNL     1       3.482   7.542  17.661  0.00  0.00    +0.000 A 
ATOM      9  C   UNL     1       2.686   7.532  18.805  0.00  0.00    +0.000 A 
ATOM     10  N   UNL     1       1.905   8.598  19.083  0.00  0.00    +0.000 NA
ATOM     11  C   UNL     1       5.119   6.138  16.157  0.00  0.00    +0.000 C 
ATOM     12  C   UNL     1       6.605   6.435  16.481  0.00  0.00    +0.000 C 
ATOM     13  N   UNL     1       7.348   5.272  16.998  0.00  0.00    +0.000 NA
ATOM     14  C   UNL     1       6.598   4.470  17.977  0.00  0.00    +0.000 C 
ATOM     15  C   UNL     1       5.117   4.238  17.588  0.00  0.00    +0.000 C 
ATOM     16  C   UNL     1       4.908   4.606  16.101  0.00  0.00    +0.000 C 
ATOM     17  H   UNL     1       8.248   5.559  17.379  0.00  0.00    +0.000 HD
ENDROOT
BRANCH   1  22
ATOM     18 CL   UNL     1      -2.606  13.265  20.800  0.00  0.00    +0.000 Cl
ATOM     19  C   UNL     1      -1.544  11.922  20.645  0.00  0.00    +0.000 A 
ATOM     20  C   UNL     1      -1.123  11.512  19.388  0.00  0.00    +0.000 A 
ATOM     21  C   UNL     1      -0.264  10.413  19.271  0.00  0.00    +0.000 A 
ATOM     22  C   UNL     1       0.207   9.699  20.399  0.00  0.00    +0.000 A 
ATOM     23  C   UNL     1      -0.216  10.171  21.662  0.00  0.00    +0.000 A 
ATOM     24 CL   UNL     1       0.351   9.514  23.164  0.00  0.00    +0.000 Cl
ATOM     25  C   UNL     1      -1.095  11.259  21.780  0.00  0.00    +0.000 A 
ENDBRANCH   1  22
TORSDOF 1
ENDMDL
MODEL 9
REMARK VINA RESULT:      -8.2      1.539      2.484
REMARK  Name = 
REMARK  1 active torsions:
REMARK  status: ('A' for Active; 'I' for Inactive)
REMARK    1  A    between atoms: C_5  and  C_6
REMARK                            x       y       z     vdW  Elec       q    Type
REMARK                         _______ _______ _______ _____ _____    ______ ____
ROOT
ATOM      1  C   UNL     1       1.020   8.892  19.962  0.00  0.00    +0.000 A 
ATOM      2  C   UNL     1       0.992   7.809  20.833  0.00  0.00    +0.000 A 
ATOM      3  N   UNL     1       1.782   6.714  20.700  0.00  0.00    +0.000 NA
ATOM      4  C   UNL     1       2.592   6.689  19.634  0.00  0.00    +0.000 A 
ATOM      5  C   UNL     1       3.385   5.567  19.433  0.00  0.00    +0.000 A 
ATOM      6  C   UNL     1       4.159   5.489  18.293  0.00  0.00    +0.000 A 
ATOM      7  C   UNL     1       4.180   6.531  17.365  0.00  0.00    +0.000 A 
ATOM      8  C   UNL     1       3.426   7.674  17.568  0.00  0.00    +0.000 A 
ATOM      9  C   UNL     1       2.617   7.767  18.699  0.00  0.00    +0.000 A 
ATOM     10  N   UNL     1       1.842   8.859  18.877  0.00  0.00    +0.000 NA
ATOM     11  C   UNL     1       5.067   6.135  16.207  0.00  0.00    +0.000 C 
ATOM     12  C   UNL     1       6.552   6.446  16.523  0.00  0.00    +0.000 C 
ATOM     13  N   UNL     1       7.279   5.325  17.145  0.00  0.00    +0.000 NA
ATOM     14  C   UNL     1       6.510   4.614  18.180  0.00  0.00    +0.000 C 
ATOM     15  C   UNL     1       5.031   4.363  17.793  0.00  0.00    +0.000 C 
ATOM     16  C   UNL     1       4.843   4.606  16.279  0.00  0.00    +0.000 C 
ATOM     17  H   UNL     1       8.177   5.635  17.512  0.00  0.00    +0.000 HD
ENDROOT
BRANCH   1  22
ATOM     18 CL   UNL     1      -2.406  13.819  20.651  0.00  0.00    +0.000 Cl
ATOM     19  C   UNL     1      -1.446  12.409  20.439  0.00  0.00    +0.000 A 
ATOM     20  C   UNL     1      -0.641  11.954  21.473  0.00  0.00    +0.000 A 
ATOM     21  C   UNL     1       0.142  10.809  21.288  0.00  0.00    +0.000 A 
ATOM     22  C   UNL     1       0.140  10.080  20.075  0.00  0.00    +0.000 A 
ATOM     23  C   UNL     1      -0.721  10.555  19.059  0.00  0.00    +0.000 A 
ATOM     24 CL   UNL     1      -0.962   9.731  17.553  0.00  0.00    +0.000 Cl
ATOM     25  C   UNL     1      -1.490  11.716  19.235  0.00  0.00    +0.000 A 
ENDBRANCH   1  22
TORSDOF 1
ENDMDL
