MODEL 1
REMARK VINA RESULT:      -7.6      0.000      0.000
REMARK  Name = 
REMARK  3 active torsions:
REMARK  status: ('A' for Active; 'I' for Inactive)
REMARK    1  A    between atoms: C_1  and  C_2
REMARK    2  A    between atoms: C_2  and  N_3
REMARK    3  A    between atoms: N_13  and  C_14
REMARK                            x       y       z     vdW  Elec       q    Type
REMARK                         _______ _______ _______ _____ _____    ______ ____
ROOT
ATOM      1  N   UNL     1       1.839   8.365  19.315  0.00  0.00    +0.000 N 
ATOM      2  C   UNL     1       1.056   8.233  20.434  0.00  0.00    +0.000 A 
ATOM      3  N   UNL     1       1.183   7.044  20.984  0.00  0.00    +0.000 NA
ATOM      4  C   UNL     1       2.084   6.397  20.187  0.00  0.00    +0.000 A 
ATOM      5  C   UNL     1       2.584   5.061  20.316  0.00  0.00    +0.000 A 
ATOM      6  C   UNL     1       2.139   4.211  21.331  0.00  0.00    +0.000 A 
ATOM      7  C   UNL     1       2.620   2.910  21.387  0.00  0.00    +0.000 A 
ATOM      8  C   UNL     1       3.522   2.510  20.420  0.00  0.00    +0.000 A 
ATOM      9  N   UNL     1       3.974   3.317  19.434  0.00  0.00    +0.000 NA
ATOM     10  C   UNL     1       3.524   4.600  19.380  0.00  0.00    +0.000 A 
ATOM     11  N   UNL     1       3.980   5.476  18.322  0.00  0.00    +0.000 N 
ATOM     12  C   UNL     1       3.475   6.782  18.156  0.00  0.00    +0.000 A 
ATOM     13  O   UNL     1       3.838   7.562  17.278  0.00  0.00    +0.000 OA
ATOM     14  C   UNL     1       2.512   7.182  19.147  0.00  0.00    +0.000 A 
ENDROOT
BRANCH  11  15
ATOM     15  C   UNL     1       4.989   4.984  17.438  0.00  0.00    +0.000 A 
ATOM     16  C   UNL     1       6.350   5.094  17.762  0.00  0.00    +0.000 A 
ATOM     17  C   UNL     1       7.334   4.650  16.877  0.00  0.00    +0.000 A 
ATOM     18  C   UNL     1       6.971   4.081  15.660  0.00  0.00    +0.000 A 
ATOM     19  C   UNL     1       5.625   3.969  15.321  0.00  0.00    +0.000 A 
ATOM     20  C   UNL     1       4.640   4.429  16.199  0.00  0.00    +0.000 A 
ENDBRANCH  11  15
BRANCH   1  22
ATOM     21  C   UNL     1       0.658  10.416  18.613  0.00  0.00    +0.000 C 
ATOM     22  C   UNL     1       1.893   9.544  18.474  0.00  0.00    +0.000 C 
ENDBRANCH   1  22
TORSDOF 2
ENDMDL
MODEL 2
REMARK VINA RESULT:      -7.6      0.171      1.042
REMARK  Name = 
REMARK  3 active torsions:
REMARK  status: ('A' for Active; 'I' for Inactive)
REMARK    1  A    between atoms: C_1  and  C_2
REMARK    2  A    between atoms: C_2  and  N_3
REMARK    3  A    between atoms: N_13  and  C_14
REMARK                            x       y       z     vdW  Elec       q    Type
REMARK                         _______ _______ _______ _____ _____    ______ ____
ROOT
ATOM      1  N   UNL     1       1.780   8.316  19.430  0.00  0.00    +0.000 N 
ATOM      2  C   UNL     1       1.010   8.137  20.552  0.00  0.00    +0.000 A 
ATOM      3  N   UNL     1       1.166   6.938  21.070  0.00  0.00    +0.000 NA
ATOM      4  C   UNL     1       2.075   6.332  20.249  0.00  0.00    +0.000 A 
ATOM      5  C   UNL     1       2.605   5.004  20.340  0.00  0.00    +0.000 A 
ATOM      6  C   UNL     1       2.186   4.118  21.337  0.00  0.00    +0.000 A 
ATOM      7  C   UNL     1       2.697   2.827  21.355  0.00  0.00    +0.000 A 
ATOM      8  C   UNL     1       3.599   2.473  20.371  0.00  0.00    +0.000 A 
ATOM      9  N   UNL     1       4.026   3.314  19.403  0.00  0.00    +0.000 NA
ATOM     10  C   UNL     1       3.548   4.588  19.386  0.00  0.00    +0.000 A 
ATOM     11  N   UNL     1       3.976   5.500  18.348  0.00  0.00    +0.000 N 
ATOM     12  C   UNL     1       3.442   6.799  18.218  0.00  0.00    +0.000 A 
ATOM     13  O   UNL     1       3.780   7.608  17.359  0.00  0.00    +0.000 OA
ATOM     14  C   UNL     1       2.478   7.152  19.227  0.00  0.00    +0.000 A 
ENDROOT
BRANCH  11  15
ATOM     15  C   UNL     1       4.988   5.053  17.444  0.00  0.00    +0.000 A 
ATOM     16  C   UNL     1       4.653   4.451  16.222  0.00  0.00    +0.000 A 
ATOM     17  C   UNL     1       5.644   3.979  15.361  0.00  0.00    +0.000 A 
ATOM     18  C   UNL     1       6.986   4.109  15.705  0.00  0.00    +0.000 A 
ATOM     19  C   UNL     1       7.337   4.701  16.916  0.00  0.00    +0.000 A 
ATOM     20  C   UNL     1       6.344   5.159  17.786  0.00  0.00    +0.000 A 
ENDBRANCH  11  15
BRANCH   1  22
ATOM     21  C   UNL     1       0.414   9.953  18.188  0.00  0.00    +0.000 C 
ATOM     22  C   UNL     1       1.802   9.516  18.620  0.00  0.00    +0.000 C 
ENDBRANCH   1  22
TORSDOF 2
ENDMDL
MODEL 3
REMARK VINA RESULT:      -6.7      1.928      5.880
REMARK  Name = 
REMARK  3 active torsions:
REMARK  status: ('A' for Active; 'I' for Inactive)
REMARK    1  A    between atoms: C_1  and  C_2
REMARK    2  A    between atoms: C_2  and  N_3
REMARK    3  A    between atoms: N_13  and  C_14
REMARK                            x       y       z     vdW  Elec       q    Type
REMARK                         _______ _______ _______ _____ _____    ______ ____
ROOT
ATOM      1  N   UNL     1       5.513   4.925  15.602  0.00  0.00    +0.000 N 
ATOM      2  C   UNL     1       5.814   6.145  15.051  0.00  0.00    +0.000 A 
ATOM      3  N   UNL     1       5.168   7.125  15.646  0.00  0.00    +0.000 NA
ATOM      4  C   UNL     1       4.434   6.505  16.617  0.00  0.00    +0.000 A 
ATOM      5  C   UNL     1       3.534   7.097  17.563  0.00  0.00    +0.000 A 
ATOM      6  C   UNL     1       3.275   8.470  17.563  0.00  0.00    +0.000 A 
ATOM      7  C   UNL     1       2.362   8.988  18.470  0.00  0.00    +0.000 A 
ATOM      8  C   UNL     1       1.738   8.110  19.334  0.00  0.00    +0.000 A 
ATOM      9  N   UNL     1       1.978   6.780  19.360  0.00  0.00    +0.000 NA
ATOM     10  C   UNL     1       2.887   6.263  18.489  0.00  0.00    +0.000 A 
ATOM     11  N   UNL     1       3.146   4.840  18.484  0.00  0.00    +0.000 N 
ATOM     12  C   UNL     1       4.000   4.232  17.541  0.00  0.00    +0.000 A 
ATOM     13  O   UNL     1       4.255   3.031  17.504  0.00  0.00    +0.000 OA
ATOM     14  C   UNL     1       4.622   5.147  16.621  0.00  0.00    +0.000 A 
ENDROOT
BRANCH  11  15
ATOM     15  C   UNL     1       2.517   4.045  19.491  0.00  0.00    +0.000 A 
ATOM     16  C   UNL     1       1.237   3.506  19.292  0.00  0.00    +0.000 A 
ATOM     17  C   UNL     1       0.609   2.764  20.294  0.00  0.00    +0.000 A 
ATOM     18  C   UNL     1       1.255   2.544  21.507  0.00  0.00    +0.000 A 
ATOM     19  C   UNL     1       2.524   3.076  21.723  0.00  0.00    +0.000 A 
ATOM     20  C   UNL     1       3.146   3.832  20.726  0.00  0.00    +0.000 A 
ENDBRANCH  11  15
BRANCH   1  22
ATOM     21  C   UNL     1       6.222   3.609  13.638  0.00  0.00    +0.000 C 
ATOM     22  C   UNL     1       6.039   3.655  15.144  0.00  0.00    +0.000 C 
ENDBRANCH   1  22
TORSDOF 2
ENDMDL
MODEL 4
REMARK VINA RESULT:      -6.7      1.921      5.783
REMARK  Name = 
REMARK  3 active torsions:
REMARK  status: ('A' for Active; 'I' for Inactive)
REMARK    1  A    between atoms: C_1  and  C_2
REMARK    2  A    between atoms: C_2  and  N_3
REMARK    3  A    between atoms: N_13  and  C_14
REMARK                            x       y       z     vdW  Elec       q    Type
REMARK                         _______ _______ _______ _____ _____    ______ ____
ROOT
ATOM      1  N   UNL     1       5.529   4.950  15.650  0.00  0.00    +0.000 N 
ATOM      2  C   UNL     1       5.835   6.169  15.095  0.00  0.00    +0.000 A 
ATOM      3  N   UNL     1       5.183   7.151  15.679  0.00  0.00    +0.000 NA
ATOM      4  C   UNL     1       4.439   6.535  16.646  0.00  0.00    +0.000 A 
ATOM      5  C   UNL     1       3.530   7.131  17.579  0.00  0.00    +0.000 A 
ATOM      6  C   UNL     1       3.271   8.504  17.570  0.00  0.00    +0.000 A 
ATOM      7  C   UNL     1       2.348   9.027  18.465  0.00  0.00    +0.000 A 
ATOM      8  C   UNL     1       1.715   8.153  19.328  0.00  0.00    +0.000 A 
ATOM      9  N   UNL     1       1.956   6.823  19.362  0.00  0.00    +0.000 NA
ATOM     10  C   UNL     1       2.874   6.302  18.503  0.00  0.00    +0.000 A 
ATOM     11  N   UNL     1       3.133   4.879  18.508  0.00  0.00    +0.000 N 
ATOM     12  C   UNL     1       3.997   4.266  17.576  0.00  0.00    +0.000 A 
ATOM     13  O   UNL     1       4.252   3.066  17.548  0.00  0.00    +0.000 OA
ATOM     14  C   UNL     1       4.628   5.178  16.658  0.00  0.00    +0.000 A 
ENDROOT
BRANCH  11  15
ATOM     15  C   UNL     1       2.494   4.088  19.512  0.00  0.00    +0.000 A 
ATOM     16  C   UNL     1       3.133   3.812  20.730  0.00  0.00    +0.000 A 
ATOM     17  C   UNL     1       2.523   3.006  21.692  0.00  0.00    +0.000 A 
ATOM     18  C   UNL     1       1.261   2.470  21.453  0.00  0.00    +0.000 A 
ATOM     19  C   UNL     1       0.614   2.730  20.248  0.00  0.00    +0.000 A 
ATOM     20  C   UNL     1       1.232   3.524  19.277  0.00  0.00    +0.000 A 
ENDBRANCH  11  15
BRANCH   1  22
ATOM     21  C   UNL     1       6.227   3.614  13.696  0.00  0.00    +0.000 C 
ATOM     22  C   UNL     1       6.060   3.679  15.203  0.00  0.00    +0.000 C 
ENDBRANCH   1  22
TORSDOF 2
ENDMDL
MODEL 5
REMARK VINA RESULT:      -6.5      1.824      5.768
REMARK  Name = 
REMARK  3 active torsions:
REMARK  status: ('A' for Active; 'I' for Inactive)
REMARK    1  A    between atoms: C_1  and  C_2
REMARK    2  A    between atoms: C_2  and  N_3
REMARK    3  A    between atoms: N_13  and  C_14
REMARK                            x       y       z     vdW  Elec       q    Type
REMARK                         _______ _______ _______ _____ _____    ______ ____
ROOT
ATOM      1  N   UNL     1       2.899   2.662  19.892  0.00  0.00    +0.000 N 
ATOM      2  C   UNL     1       4.015   1.892  19.676  0.00  0.00    +0.000 A 
ATOM      3  N   UNL     1       4.984   2.580  19.111  0.00  0.00    +0.000 NA
ATOM      4  C   UNL     1       4.466   3.836  18.967  0.00  0.00    +0.000 A 
ATOM      5  C   UNL     1       5.091   4.992  18.396  0.00  0.00    +0.000 A 
ATOM      6  C   UNL     1       6.380   4.935  17.859  0.00  0.00    +0.000 A 
ATOM      7  C   UNL     1       6.923   6.072  17.277  0.00  0.00    +0.000 A 
ATOM      8  C   UNL     1       6.152   7.217  17.248  0.00  0.00    +0.000 A 
ATOM      9  N   UNL     1       4.908   7.300  17.769  0.00  0.00    +0.000 NA
ATOM     10  C   UNL     1       4.371   6.198  18.360  0.00  0.00    +0.000 A 
ATOM     11  N   UNL     1       3.033   6.257  18.907  0.00  0.00    +0.000 N 
ATOM     12  C   UNL     1       2.386   5.124  19.441  0.00  0.00    +0.000 A 
ATOM     13  O   UNL     1       1.256   5.129  19.922  0.00  0.00    +0.000 OA
ATOM     14  C   UNL     1       3.182   3.925  19.439  0.00  0.00    +0.000 A 
ENDROOT
BRANCH  11  15
ATOM     15  C   UNL     1       2.370   7.523  18.910  0.00  0.00    +0.000 A 
ATOM     16  C   UNL     1       1.862   8.070  20.097  0.00  0.00    +0.000 A 
ATOM     17  C   UNL     1       1.178   9.287  20.090  0.00  0.00    +0.000 A 
ATOM     18  C   UNL     1       1.001   9.979  18.895  0.00  0.00    +0.000 A 
ATOM     19  C   UNL     1       1.495   9.449  17.707  0.00  0.00    +0.000 A 
ATOM     20  C   UNL     1       2.165   8.221  17.711  0.00  0.00    +0.000 A 
ENDBRANCH  11  15
BRANCH   1  22
ATOM     21  C   UNL     1       1.562   2.457  21.956  0.00  0.00    +0.000 C 
ATOM     22  C   UNL     1       1.659   2.182  20.467  0.00  0.00    +0.000 C 
ENDBRANCH   1  22
TORSDOF 2
ENDMDL
MODEL 6
REMARK VINA RESULT:      -6.4      1.837      5.811
REMARK  Name = 
REMARK  3 active torsions:
REMARK  status: ('A' for Active; 'I' for Inactive)
REMARK    1  A    between atoms: C_1  and  C_2
REMARK    2  A    between atoms: C_2  and  N_3
REMARK    3  A    between atoms: N_13  and  C_14
REMARK                            x       y       z     vdW  Elec       q    Type
REMARK                         _______ _______ _______ _____ _____    ______ ____
ROOT
ATOM      1  N   UNL     1       2.969   2.661  19.986  0.00  0.00    +0.000 N 
ATOM      2  C   UNL     1       4.101   1.909  19.788  0.00  0.00    +0.000 A 
ATOM      3  N   UNL     1       5.056   2.604  19.209  0.00  0.00    +0.000 NA
ATOM      4  C   UNL     1       4.514   3.846  19.036  0.00  0.00    +0.000 A 
ATOM      5  C   UNL     1       5.116   5.002  18.441  0.00  0.00    +0.000 A 
ATOM      6  C   UNL     1       6.406   4.959  17.906  0.00  0.00    +0.000 A 
ATOM      7  C   UNL     1       6.927   6.093  17.300  0.00  0.00    +0.000 A 
ATOM      8  C   UNL     1       6.134   7.222  17.245  0.00  0.00    +0.000 A 
ATOM      9  N   UNL     1       4.887   7.291  17.763  0.00  0.00    +0.000 NA
ATOM     10  C   UNL     1       4.372   6.191  18.378  0.00  0.00    +0.000 A 
ATOM     11  N   UNL     1       3.032   6.236  18.922  0.00  0.00    +0.000 N 
ATOM     12  C   UNL     1       2.408   5.101  19.481  0.00  0.00    +0.000 A 
ATOM     13  O   UNL     1       1.277   5.095  19.960  0.00  0.00    +0.000 OA
ATOM     14  C   UNL     1       3.228   3.919  19.505  0.00  0.00    +0.000 A 
ENDROOT
BRANCH  11  15
ATOM     15  C   UNL     1       2.344   7.488  18.897  0.00  0.00    +0.000 A 
ATOM     16  C   UNL     1       2.182   8.200  17.699  0.00  0.00    +0.000 A 
ATOM     17  C   UNL     1       1.545   9.442  17.685  0.00  0.00    +0.000 A 
ATOM     18  C   UNL     1       1.054   9.986  18.868  0.00  0.00    +0.000 A 
ATOM     19  C   UNL     1       1.210   9.295  20.067  0.00  0.00    +0.000 A 
ATOM     20  C   UNL     1       1.862   8.059  20.084  0.00  0.00    +0.000 A 
ENDBRANCH  11  15
BRANCH   1  22
ATOM     21  C   UNL     1       1.615   2.511  22.044  0.00  0.00    +0.000 C 
ATOM     22  C   UNL     1       1.738   2.169  20.570  0.00  0.00    +0.000 C 
ENDBRANCH   1  22
TORSDOF 2
ENDMDL
MODEL 7
REMARK VINA RESULT:      -6.4      1.827      4.597
REMARK  Name = 
REMARK  3 active torsions:
REMARK  status: ('A' for Active; 'I' for Inactive)
REMARK    1  A    between atoms: C_1  and  C_2
REMARK    2  A    between atoms: C_2  and  N_3
REMARK    3  A    between atoms: N_13  and  C_14
REMARK                            x       y       z     vdW  Elec       q    Type
REMARK                         _______ _______ _______ _____ _____    ______ ____
ROOT
ATOM      1  N   UNL     1       1.302   9.701  19.248  0.00  0.00    +0.000 N 
ATOM      2  C   UNL     1       1.865  10.458  18.251  0.00  0.00    +0.000 A 
ATOM      3  N   UNL     1       2.693   9.755  17.508  0.00  0.00    +0.000 NA
ATOM      4  C   UNL     1       2.650   8.501  18.050  0.00  0.00    +0.000 A 
ATOM      5  C   UNL     1       3.369   7.332  17.638  0.00  0.00    +0.000 A 
ATOM      6  C   UNL     1       4.281   7.372  16.579  0.00  0.00    +0.000 A 
ATOM      7  C   UNL     1       4.986   6.223  16.248  0.00  0.00    +0.000 A 
ATOM      8  C   UNL     1       4.757   5.084  16.995  0.00  0.00    +0.000 A 
ATOM      9  N   UNL     1       3.874   5.018  18.017  0.00  0.00    +0.000 NA
ATOM     10  C   UNL     1       3.162   6.133  18.338  0.00  0.00    +0.000 A 
ATOM     11  N   UNL     1       2.227   6.092  19.441  0.00  0.00    +0.000 N 
ATOM     12  C   UNL     1       1.535   7.238  19.885  0.00  0.00    +0.000 A 
ATOM     13  O   UNL     1       0.727   7.249  20.810  0.00  0.00    +0.000 OA
ATOM     14  C   UNL     1       1.802   8.430  19.124  0.00  0.00    +0.000 A 
ENDROOT
BRANCH  11  15
ATOM     15  C   UNL     1       1.999   4.833  20.076  0.00  0.00    +0.000 A 
ATOM     16  C   UNL     1       1.137   3.882  19.508  0.00  0.00    +0.000 A 
ATOM     17  C   UNL     1       0.885   2.670  20.152  0.00  0.00    +0.000 A 
ATOM     18  C   UNL     1       1.498   2.387  21.369  0.00  0.00    +0.000 A 
ATOM     19  C   UNL     1       2.353   3.320  21.948  0.00  0.00    +0.000 A 
ATOM     20  C   UNL     1       2.593   4.541  21.312  0.00  0.00    +0.000 A 
ENDBRANCH  11  15
BRANCH   1  22
ATOM     21  C   UNL     1      -0.901  10.744  19.637  0.00  0.00    +0.000 C 
ATOM     22  C   UNL     1       0.378  10.199  20.246  0.00  0.00    +0.000 C 
ENDBRANCH   1  22
TORSDOF 2
ENDMDL
MODEL 8
REMARK VINA RESULT:      -6.4      1.826      4.472
REMARK  Name = 
REMARK  3 active torsions:
REMARK  status: ('A' for Active; 'I' for Inactive)
REMARK    1  A    between atoms: C_1  and  C_2
REMARK    2  A    between atoms: C_2  and  N_3
REMARK    3  A    between atoms: N_13  and  C_14
REMARK                            x       y       z     vdW  Elec       q    Type
REMARK                         _______ _______ _______ _____ _____    ______ ____
ROOT
ATOM      1  N   UNL     1       1.375   9.702  19.199  0.00  0.00    +0.000 N 
ATOM      2  C   UNL     1       1.957  10.424  18.186  0.00  0.00    +0.000 A 
ATOM      3  N   UNL     1       2.767   9.685  17.459  0.00  0.00    +0.000 NA
ATOM      4  C   UNL     1       2.695   8.444  18.028  0.00  0.00    +0.000 A 
ATOM      5  C   UNL     1       3.386   7.250  17.642  0.00  0.00    +0.000 A 
ATOM      6  C   UNL     1       4.298   7.245  16.584  0.00  0.00    +0.000 A 
ATOM      7  C   UNL     1       4.975   6.073  16.278  0.00  0.00    +0.000 A 
ATOM      8  C   UNL     1       4.719   4.956  17.049  0.00  0.00    +0.000 A 
ATOM      9  N   UNL     1       3.835   4.934  18.071  0.00  0.00    +0.000 NA
ATOM     10  C   UNL     1       3.150   6.072  18.368  0.00  0.00    +0.000 A 
ATOM     11  N   UNL     1       2.213   6.077  19.471  0.00  0.00    +0.000 N 
ATOM     12  C   UNL     1       1.549   7.249  19.890  0.00  0.00    +0.000 A 
ATOM     13  O   UNL     1       0.742   7.298  20.814  0.00  0.00    +0.000 OA
ATOM     14  C   UNL     1       1.845   8.417  19.103  0.00  0.00    +0.000 A 
ENDROOT
BRANCH  11  15
ATOM     15  C   UNL     1       1.956   4.837  20.132  0.00  0.00    +0.000 A 
ATOM     16  C   UNL     1       2.577   4.524  21.350  0.00  0.00    +0.000 A 
ATOM     17  C   UNL     1       2.355   3.295  21.973  0.00  0.00    +0.000 A 
ATOM     18  C   UNL     1       1.501   2.364  21.390  0.00  0.00    +0.000 A 
ATOM     19  C   UNL     1       0.879   2.655  20.179  0.00  0.00    +0.000 A 
ATOM     20  C   UNL     1       1.114   3.880  19.547  0.00  0.00    +0.000 A 
ENDBRANCH  11  15
BRANCH   1  22
ATOM     21  C   UNL     1      -0.934  10.456  19.633  0.00  0.00    +0.000 C 
ATOM     22  C   UNL     1       0.463  10.243  20.186  0.00  0.00    +0.000 C 
ENDBRANCH   1  22
TORSDOF 2
ENDMDL
MODEL 9
REMARK VINA RESULT:      -6.4      1.465      5.360
REMARK  Name = 
REMARK  3 active torsions:
REMARK  status: ('A' for Active; 'I' for Inactive)
REMARK    1  A    between atoms: C_1  and  C_2
REMARK    2  A    between atoms: C_2  and  N_3
REMARK    3  A    between atoms: N_13  and  C_14
REMARK                            x       y       z     vdW  Elec       q    Type
REMARK                         _______ _______ _______ _____ _____    ______ ____
ROOT
ATOM      1  N   UNL     1       5.229   4.795  16.321  0.00  0.00    +0.000 N 
ATOM      2  C   UNL     1       5.317   3.426  16.290  0.00  0.00    +0.000 A 
ATOM      3  N   UNL     1       4.483   2.861  17.137  0.00  0.00    +0.000 NA
ATOM      4  C   UNL     1       3.837   3.911  17.725  0.00  0.00    +0.000 A 
ATOM      5  C   UNL     1       2.824   3.874  18.738  0.00  0.00    +0.000 A 
ATOM      6  C   UNL     1       2.387   2.667  19.289  0.00  0.00    +0.000 A 
ATOM      7  C   UNL     1       1.436   2.687  20.300  0.00  0.00    +0.000 A 
ATOM      8  C   UNL     1       0.966   3.915  20.724  0.00  0.00    +0.000 A 
ATOM      9  N   UNL     1       1.366   5.095  20.200  0.00  0.00    +0.000 NA
ATOM     10  C   UNL     1       2.284   5.087  19.195  0.00  0.00    +0.000 A 
ATOM     11  N   UNL     1       2.741   6.339  18.632  0.00  0.00    +0.000 N 
ATOM     12  C   UNL     1       3.761   6.401  17.660  0.00  0.00    +0.000 A 
ATOM     13  O   UNL     1       4.175   7.439  17.150  0.00  0.00    +0.000 OA
ATOM     14  C   UNL     1       4.270   5.120  17.246  0.00  0.00    +0.000 A 
ENDROOT
BRANCH  11  15
ATOM     15  C   UNL     1       2.111   7.541  19.080  0.00  0.00    +0.000 A 
ATOM     16  C   UNL     1       1.862   7.763  20.443  0.00  0.00    +0.000 A 
ATOM     17  C   UNL     1       1.209   8.919  20.872  0.00  0.00    +0.000 A 
ATOM     18  C   UNL     1       0.802   9.874  19.945  0.00  0.00    +0.000 A 
ATOM     19  C   UNL     1       1.036   9.668  18.589  0.00  0.00    +0.000 A 
ATOM     20  C   UNL     1       1.675   8.502  18.157  0.00  0.00    +0.000 A 
ENDBRANCH  11  15
BRANCH   1  22
ATOM     21  C   UNL     1       7.007   4.964  14.617  0.00  0.00    +0.000 C 
ATOM     22  C   UNL     1       6.041   5.697  15.529  0.00  0.00    +0.000 C 
ENDBRANCH   1  22
TORSDOF 2
ENDMDL
