MODEL 1
REMARK VINA RESULT:      -7.0      0.000      0.000
REMARK  Name = 
REMARK  15 active torsions:
REMARK  status: ('A' for Active; 'I' for Inactive)
REMARK    1  A    between atoms: C_1  and  O_2
REMARK    2  A    between atoms: O_2  and  C_3
REMARK    3  A    between atoms: C_6  and  O_7
REMARK    4  A    between atoms: O_7  and  C_8
REMARK    5  A    between atoms: C_9  and  C_10
REMARK    6  A    between atoms: C_10  and  C_12
REMARK    7  A    between atoms: C_12  and  C_13
REMARK    8  A    between atoms: C_13  and  C_14
REMARK    9  A    between atoms: C_14  and  C_15
REMARK   10  A    between atoms: C_15  and  C_16
REMARK   11  A    between atoms: C_16  and  C_18
REMARK   12  A    between atoms: C_20  and  O_21
REMARK   13  A    between atoms: O_21  and  C_22
REMARK   14  A    between atoms: C_25  and  O_26
REMARK   15  A    between atoms: O_26  and  C_27
REMARK                            x       y       z     vdW  Elec       q    Type
REMARK                         _______ _______ _______ _____ _____    ______ ____
ROOT
ATOM      1  C   UNL     1       2.697   5.533  18.980  0.00  0.00    +0.000 C 
ENDROOT
BRANCH   1   2
ATOM      2  C   UNL     1       2.494   4.291  18.097  0.00  0.00    +0.000 C 
BRANCH   2   3
ATOM      3  C   UNL     1       3.782   3.517  17.937  0.00  0.00    +0.000 C 
ATOM      4  O   UNL     1       3.901   2.394  18.443  0.00  0.00    +0.000 OA
BRANCH   3   9
ATOM      5  C   UNL     1       5.729   4.501  14.883  0.00  0.00    +0.000 A 
ATOM      6  C   UNL     1       6.924   4.971  15.403  0.00  0.00    +0.000 A 
ATOM      7  C   UNL     1       7.129   5.013  16.781  0.00  0.00    +0.000 A 
ATOM      8  C   UNL     1       6.156   4.542  17.679  0.00  0.00    +0.000 A 
ATOM      9  C   UNL     1       4.936   4.071  17.158  0.00  0.00    +0.000 A 
ATOM     10  C   UNL     1       4.739   4.070  15.761  0.00  0.00    +0.000 A 
BRANCH   5  12
ATOM     11  C   UNL     1       6.264   3.417  12.844  0.00  0.00    +0.000 C 
ATOM     12  O   UNL     1       5.643   4.504  13.521  0.00  0.00    +0.000 OA
ENDBRANCH   5  12
BRANCH   8  13
ATOM     13  O   UNL     1       6.364   4.558  19.034  0.00  0.00    +0.000 OA
ATOM     14  C   UNL     1       7.220   5.599  19.516  0.00  0.00    +0.000 C 
ENDBRANCH   8  13
ENDBRANCH   3   9
ENDBRANCH   2   3
ENDBRANCH   1   2
BRANCH   1  15
ATOM     15  C   UNL     1       2.610   6.848  18.202  0.00  0.00    +0.000 C 
BRANCH  15  16
ATOM     16  C   UNL     1       2.031   7.961  19.068  0.00  0.00    +0.000 C 
BRANCH  16  17
ATOM     17  C   UNL     1       1.609   9.202  18.297  0.00  0.00    +0.000 C 
ATOM     18  O   UNL     1       2.221   9.576  17.305  0.00  0.00    +0.000 OA
BRANCH  17  19
ATOM     19  C   UNL     1       0.466   9.992  18.866  0.00  0.00    +0.000 A 
ATOM     20  C   UNL     1       0.660  10.476  20.184  0.00  0.00    +0.000 A 
ATOM     21  C   UNL     1      -0.324  11.184  20.870  0.00  0.00    +0.000 A 
ATOM     22  C   UNL     1      -1.492  11.521  20.214  0.00  0.00    +0.000 A 
ATOM     23  C   UNL     1      -1.702  11.056  18.916  0.00  0.00    +0.000 A 
ATOM     24  C   UNL     1      -0.758  10.261  18.235  0.00  0.00    +0.000 A 
BRANCH  21  25
ATOM     25  O   UNL     1      -0.031  11.503  22.167  0.00  0.00    +0.000 OA
ATOM     26  C   UNL     1      -1.169  11.664  23.013  0.00  0.00    +0.000 C 
ENDBRANCH  21  25
BRANCH  24  27
ATOM     27  O   UNL     1      -1.310   9.805  17.075  0.00  0.00    +0.000 OA
ATOM     28  C   UNL     1      -2.699   9.878  16.827  0.00  0.00    +0.000 C 
ENDBRANCH  24  27
ENDBRANCH  17  19
ENDBRANCH  16  17
ENDBRANCH  15  16
ENDBRANCH   1  15
TORSDOF 11
ENDMDL
MODEL 2
REMARK VINA RESULT:      -6.9      5.434      7.418
REMARK  Name = 
REMARK  15 active torsions:
REMARK  status: ('A' for Active; 'I' for Inactive)
REMARK    1  A    between atoms: C_1  and  O_2
REMARK    2  A    between atoms: O_2  and  C_3
REMARK    3  A    between atoms: C_6  and  O_7
REMARK    4  A    between atoms: O_7  and  C_8
REMARK    5  A    between atoms: C_9  and  C_10
REMARK    6  A    between atoms: C_10  and  C_12
REMARK    7  A    between atoms: C_12  and  C_13
REMARK    8  A    between atoms: C_13  and  C_14
REMARK    9  A    between atoms: C_14  and  C_15
REMARK   10  A    between atoms: C_15  and  C_16
REMARK   11  A    between atoms: C_16  and  C_18
REMARK   12  A    between atoms: C_20  and  O_21
REMARK   13  A    between atoms: O_21  and  C_22
REMARK   14  A    between atoms: C_25  and  O_26
REMARK   15  A    between atoms: O_26  and  C_27
REMARK                            x       y       z     vdW  Elec       q    Type
REMARK                         _______ _______ _______ _____ _____    ______ ____
ROOT
ATOM      1  C   UNL     1       7.245   7.936  17.784  0.00  0.00    +0.000 C 
ENDROOT
BRANCH   1   2
ATOM      2  C   UNL     1       8.095   6.817  18.408  0.00  0.00    +0.000 C 
BRANCH   2   3
ATOM      3  C   UNL     1       7.224   5.774  19.069  0.00  0.00    +0.000 C 
ATOM      4  O   UNL     1       7.518   5.337  20.190  0.00  0.00    +0.000 OA
BRANCH   3   9
ATOM      5  C   UNL     1       3.571   4.995  18.705  0.00  0.00    +0.000 A 
ATOM      6  C   UNL     1       3.504   4.336  17.488  0.00  0.00    +0.000 A 
ATOM      7  C   UNL     1       4.653   4.146  16.721  0.00  0.00    +0.000 A 
ATOM      8  C   UNL     1       5.912   4.574  17.174  0.00  0.00    +0.000 A 
ATOM      9  C   UNL     1       5.986   5.251  18.406  0.00  0.00    +0.000 A 
ATOM     10  C   UNL     1       4.805   5.462  19.149  0.00  0.00    +0.000 A 
BRANCH   5  12
ATOM     11  C   UNL     1       1.694   3.911  19.665  0.00  0.00    +0.000 C 
ATOM     12  O   UNL     1       2.385   5.119  19.368  0.00  0.00    +0.000 OA
ENDBRANCH   5  12
BRANCH   8  13
ATOM     13  O   UNL     1       7.048   4.366  16.434  0.00  0.00    +0.000 OA
ATOM     14  C   UNL     1       6.945   4.683  15.042  0.00  0.00    +0.000 C 
ENDBRANCH   8  13
ENDBRANCH   3   9
ENDBRANCH   2   3
ENDBRANCH   1   2
BRANCH   1  15
ATOM     15  C   UNL     1       8.038   9.218  17.517  0.00  0.00    +0.000 C 
BRANCH  15  16
ATOM     16  C   UNL     1       8.872   9.609  18.731  0.00  0.00    +0.000 C 
BRANCH  16  17
ATOM     17  C   UNL     1       9.600  10.937  18.590  0.00  0.00    +0.000 C 
ATOM     18  O   UNL     1      10.493  11.092  17.766  0.00  0.00    +0.000 OA
BRANCH  17  19
ATOM     19  C   UNL     1       9.235  12.014  19.571  0.00  0.00    +0.000 A 
ATOM     20  C   UNL     1       9.180  11.606  20.927  0.00  0.00    +0.000 A 
ATOM     21  C   UNL     1       8.809  12.472  21.952  0.00  0.00    +0.000 A 
ATOM     22  C   UNL     1       8.585  13.804  21.659  0.00  0.00    +0.000 A 
ATOM     23  C   UNL     1       8.635  14.226  20.331  0.00  0.00    +0.000 A 
ATOM     24  C   UNL     1       8.920  13.347  19.267  0.00  0.00    +0.000 A 
BRANCH  21  25
ATOM     25  O   UNL     1       8.709  11.914  23.196  0.00  0.00    +0.000 OA
ATOM     26  C   UNL     1       8.301  12.816  24.223  0.00  0.00    +0.000 C 
ENDBRANCH  21  25
BRANCH  24  27
ATOM     27  O   UNL     1       8.715  13.993  18.084  0.00  0.00    +0.000 OA
ATOM     28  C   UNL     1       7.991  15.204  18.009  0.00  0.00    +0.000 C 
ENDBRANCH  24  27
ENDBRANCH  17  19
ENDBRANCH  16  17
ENDBRANCH  15  16
ENDBRANCH   1  15
TORSDOF 11
ENDMDL
MODEL 3
REMARK VINA RESULT:      -6.8      1.277      2.752
REMARK  Name = 
REMARK  15 active torsions:
REMARK  status: ('A' for Active; 'I' for Inactive)
REMARK    1  A    between atoms: C_1  and  O_2
REMARK    2  A    between atoms: O_2  and  C_3
REMARK    3  A    between atoms: C_6  and  O_7
REMARK    4  A    between atoms: O_7  and  C_8
REMARK    5  A    between atoms: C_9  and  C_10
REMARK    6  A    between atoms: C_10  and  C_12
REMARK    7  A    between atoms: C_12  and  C_13
REMARK    8  A    between atoms: C_13  and  C_14
REMARK    9  A    between atoms: C_14  and  C_15
REMARK   10  A    between atoms: C_15  and  C_16
REMARK   11  A    between atoms: C_16  and  C_18
REMARK   12  A    between atoms: C_20  and  O_21
REMARK   13  A    between atoms: O_21  and  C_22
REMARK   14  A    between atoms: C_25  and  O_26
REMARK   15  A    between atoms: O_26  and  C_27
REMARK                            x       y       z     vdW  Elec       q    Type
REMARK                         _______ _______ _______ _____ _____    ______ ____
ROOT
ATOM      1  C   UNL     1       3.551   6.893  18.556  0.00  0.00    +0.000 C 
ENDROOT
BRANCH   1   2
ATOM      2  C   UNL     1       3.492   5.613  19.405  0.00  0.00    +0.000 C 
BRANCH   2   3
ATOM      3  C   UNL     1       3.937   4.408  18.610  0.00  0.00    +0.000 C 
ATOM      4  O   UNL     1       3.368   3.319  18.758  0.00  0.00    +0.000 OA
BRANCH   3   9
ATOM      5  C   UNL     1       5.563   4.360  15.227  0.00  0.00    +0.000 A 
ATOM      6  C   UNL     1       6.906   4.536  15.515  0.00  0.00    +0.000 A 
ATOM      7  C   UNL     1       7.332   4.708  16.832  0.00  0.00    +0.000 A 
ATOM      8  C   UNL     1       6.425   4.664  17.904  0.00  0.00    +0.000 A 
ATOM      9  C   UNL     1       5.058   4.494  17.618  0.00  0.00    +0.000 A 
ATOM     10  C   UNL     1       4.646   4.357  16.275  0.00  0.00    +0.000 A 
BRANCH   5  12
ATOM     11  C   UNL     1       6.260   3.577  13.102  0.00  0.00    +0.000 C 
ATOM     12  O   UNL     1       5.264   4.199  13.905  0.00  0.00    +0.000 OA
ENDBRANCH   5  12
BRANCH   8  13
ATOM     13  O   UNL     1       6.844   4.808  19.202  0.00  0.00    +0.000 OA
ATOM     14  C   UNL     1       7.923   5.724  19.406  0.00  0.00    +0.000 C 
ENDBRANCH   8  13
ENDBRANCH   3   9
ENDBRANCH   2   3
ENDBRANCH   1   2
BRANCH   1  15
ATOM     15  C   UNL     1       2.187   7.312  18.000  0.00  0.00    +0.000 C 
BRANCH  15  16
ATOM     16  C   UNL     1       1.971   8.813  18.152  0.00  0.00    +0.000 C 
BRANCH  16  17
ATOM     17  C   UNL     1       1.264   9.219  19.435  0.00  0.00    +0.000 C 
ATOM     18  O   UNL     1       1.373   8.559  20.461  0.00  0.00    +0.000 OA
BRANCH  17  19
ATOM     19  C   UNL     1       0.355  10.411  19.356  0.00  0.00    +0.000 A 
ATOM     20  C   UNL     1      -0.667  10.330  18.378  0.00  0.00    +0.000 A 
ATOM     21  C   UNL     1      -1.561  11.373  18.145  0.00  0.00    +0.000 A 
ATOM     22  C   UNL     1      -1.523  12.486  18.962  0.00  0.00    +0.000 A 
ATOM     23  C   UNL     1      -0.527  12.585  19.932  0.00  0.00    +0.000 A 
ATOM     24  C   UNL     1       0.445  11.582  20.124  0.00  0.00    +0.000 A 
BRANCH  21  25
ATOM     25  O   UNL     1      -2.431  11.190  17.107  0.00  0.00    +0.000 OA
ATOM     26  C   UNL     1      -2.371   9.901  16.498  0.00  0.00    +0.000 C 
ENDBRANCH  21  25
BRANCH  24  27
ATOM     27  O   UNL     1       1.389  12.033  20.999  0.00  0.00    +0.000 OA
ATOM     28  C   UNL     1       2.199  13.155  20.712  0.00  0.00    +0.000 C 
ENDBRANCH  24  27
ENDBRANCH  17  19
ENDBRANCH  16  17
ENDBRANCH  15  16
ENDBRANCH   1  15
TORSDOF 11
ENDMDL
MODEL 4
REMARK VINA RESULT:      -6.8      5.959      8.068
REMARK  Name = 
REMARK  15 active torsions:
REMARK  status: ('A' for Active; 'I' for Inactive)
REMARK    1  A    between atoms: C_1  and  O_2
REMARK    2  A    between atoms: O_2  and  C_3
REMARK    3  A    between atoms: C_6  and  O_7
REMARK    4  A    between atoms: O_7  and  C_8
REMARK    5  A    between atoms: C_9  and  C_10
REMARK    6  A    between atoms: C_10  and  C_12
REMARK    7  A    between atoms: C_12  and  C_13
REMARK    8  A    between atoms: C_13  and  C_14
REMARK    9  A    between atoms: C_14  and  C_15
REMARK   10  A    between atoms: C_15  and  C_16
REMARK   11  A    between atoms: C_16  and  C_18
REMARK   12  A    between atoms: C_20  and  O_21
REMARK   13  A    between atoms: O_21  and  C_22
REMARK   14  A    between atoms: C_25  and  O_26
REMARK   15  A    between atoms: O_26  and  C_27
REMARK                            x       y       z     vdW  Elec       q    Type
REMARK                         _______ _______ _______ _____ _____    ______ ____
ROOT
ATOM      1  C   UNL     1       7.943   8.656  17.700  0.00  0.00    +0.000 C 
ENDROOT
BRANCH   1   2
ATOM      2  C   UNL     1       7.743   7.188  18.110  0.00  0.00    +0.000 C 
BRANCH   2   3
ATOM      3  C   UNL     1       7.142   6.381  16.982  0.00  0.00    +0.000 C 
ATOM      4  O   UNL     1       7.748   6.265  15.909  0.00  0.00    +0.000 OA
BRANCH   3   9
ATOM      5  C   UNL     1       3.641   5.868  18.232  0.00  0.00    +0.000 A 
ATOM      6  C   UNL     1       3.276   4.654  17.672  0.00  0.00    +0.000 A 
ATOM      7  C   UNL     1       4.155   3.967  16.835  0.00  0.00    +0.000 A 
ATOM      8  C   UNL     1       5.445   4.457  16.571  0.00  0.00    +0.000 A 
ATOM      9  C   UNL     1       5.819   5.694  17.129  0.00  0.00    +0.000 A 
ATOM     10  C   UNL     1       4.900   6.388  17.946  0.00  0.00    +0.000 A 
BRANCH   5  12
ATOM     11  C   UNL     1       2.168   5.634  20.074  0.00  0.00    +0.000 C 
ATOM     12  O   UNL     1       2.702   6.447  19.035  0.00  0.00    +0.000 OA
ENDBRANCH   5  12
BRANCH   8  13
ATOM     13  O   UNL     1       6.321   3.772  15.769  0.00  0.00    +0.000 OA
ATOM     14  C   UNL     1       6.059   3.845  14.364  0.00  0.00    +0.000 C 
ENDBRANCH   8  13
ENDBRANCH   3   9
ENDBRANCH   2   3
ENDBRANCH   1   2
BRANCH   1  15
ATOM     15  C   UNL     1       8.728   9.469  18.732  0.00  0.00    +0.000 C 
BRANCH  15  16
ATOM     16  C   UNL     1       9.540  10.571  18.060  0.00  0.00    +0.000 C 
BRANCH  16  17
ATOM     17  C   UNL     1       8.924  11.957  18.165  0.00  0.00    +0.000 C 
ATOM     18  O   UNL     1       8.078  12.343  17.367  0.00  0.00    +0.000 OA
BRANCH  17  19
ATOM     19  C   UNL     1       9.471  12.858  19.234  0.00  0.00    +0.000 A 
ATOM     20  C   UNL     1       9.047  12.560  20.553  0.00  0.00    +0.000 A 
ATOM     21  C   UNL     1       9.426  13.330  21.650  0.00  0.00    +0.000 A 
ATOM     22  C   UNL     1      10.329  14.360  21.469  0.00  0.00    +0.000 A 
ATOM     23  C   UNL     1      10.760  14.669  20.180  0.00  0.00    +0.000 A 
ATOM     24  C   UNL     1      10.318  13.960  19.044  0.00  0.00    +0.000 A 
BRANCH  21  25
ATOM     25  O   UNL     1       8.863  12.979  22.846  0.00  0.00    +0.000 OA
ATOM     26  C   UNL     1       8.119  11.762  22.821  0.00  0.00    +0.000 C 
ENDBRANCH  21  25
BRANCH  24  27
ATOM     27  O   UNL     1      10.752  14.599  17.920  0.00  0.00    +0.000 OA
ATOM     28  C   UNL     1      10.156  15.794  17.461  0.00  0.00    +0.000 C 
ENDBRANCH  24  27
ENDBRANCH  17  19
ENDBRANCH  16  17
ENDBRANCH  15  16
ENDBRANCH   1  15
TORSDOF 11
ENDMDL
MODEL 5
REMARK VINA RESULT:      -6.8      5.547      7.414
REMARK  Name = 
REMARK  15 active torsions:
REMARK  status: ('A' for Active; 'I' for Inactive)
REMARK    1  A    between atoms: C_1  and  O_2
REMARK    2  A    between atoms: O_2  and  C_3
REMARK    3  A    between atoms: C_6  and  O_7
REMARK    4  A    between atoms: O_7  and  C_8
REMARK    5  A    between atoms: C_9  and  C_10
REMARK    6  A    between atoms: C_10  and  C_12
REMARK    7  A    between atoms: C_12  and  C_13
REMARK    8  A    between atoms: C_13  and  C_14
REMARK    9  A    between atoms: C_14  and  C_15
REMARK   10  A    between atoms: C_15  and  C_16
REMARK   11  A    between atoms: C_16  and  C_18
REMARK   12  A    between atoms: C_20  and  O_21
REMARK   13  A    between atoms: O_21  and  C_22
REMARK   14  A    between atoms: C_25  and  O_26
REMARK   15  A    between atoms: O_26  and  C_27
REMARK                            x       y       z     vdW  Elec       q    Type
REMARK                         _______ _______ _______ _____ _____    ______ ____
ROOT
ATOM      1  C   UNL     1       7.405   8.110  17.852  0.00  0.00    +0.000 C 
ENDROOT
BRANCH   1   2
ATOM      2  C   UNL     1       8.187   6.913  18.417  0.00  0.00    +0.000 C 
BRANCH   2   3
ATOM      3  C   UNL     1       7.252   5.831  18.906  0.00  0.00    +0.000 C 
ATOM      4  O   UNL     1       7.339   5.412  20.067  0.00  0.00    +0.000 OA
BRANCH   3   9
ATOM      5  C   UNL     1       5.841   4.190  15.840  0.00  0.00    +0.000 A 
ATOM      6  C   UNL     1       4.480   4.150  16.096  0.00  0.00    +0.000 A 
ATOM      7  C   UNL     1       3.971   4.632  17.302  0.00  0.00    +0.000 A 
ATOM      8  C   UNL     1       4.810   5.212  18.268  0.00  0.00    +0.000 A 
ATOM      9  C   UNL     1       6.195   5.249  18.018  0.00  0.00    +0.000 A 
ATOM     10  C   UNL     1       6.690   4.723  16.805  0.00  0.00    +0.000 A 
BRANCH   5  12
ATOM     11  C   UNL     1       7.039   4.537  13.825  0.00  0.00    +0.000 C 
ATOM     12  O   UNL     1       6.222   3.693  14.628  0.00  0.00    +0.000 OA
ENDBRANCH   5  12
BRANCH   8  13
ATOM     13  O   UNL     1       4.311   5.711  19.444  0.00  0.00    +0.000 OA
ATOM     14  C   UNL     1       3.228   4.973  20.018  0.00  0.00    +0.000 C 
ENDBRANCH   8  13
ENDBRANCH   3   9
ENDBRANCH   2   3
ENDBRANCH   1   2
BRANCH   1  15
ATOM     15  C   UNL     1       8.277   9.348  17.624  0.00  0.00    +0.000 C 
BRANCH  15  16
ATOM     16  C   UNL     1       9.023   9.734  18.897  0.00  0.00    +0.000 C 
BRANCH  16  17
ATOM     17  C   UNL     1       9.685  11.102  18.845  0.00  0.00    +0.000 C 
ATOM     18  O   UNL     1      10.413  11.425  17.915  0.00  0.00    +0.000 OA
BRANCH  17  19
ATOM     19  C   UNL     1       9.475  11.997  20.033  0.00  0.00    +0.000 A 
ATOM     20  C   UNL     1       8.938  11.364  21.181  0.00  0.00    +0.000 A 
ATOM     21  C   UNL     1       8.640  12.065  22.348  0.00  0.00    +0.000 A 
ATOM     22  C   UNL     1       8.972  13.403  22.432  0.00  0.00    +0.000 A 
ATOM     23  C   UNL     1       9.504  14.044  21.314  0.00  0.00    +0.000 A 
ATOM     24  C   UNL     1       9.729  13.375  20.094  0.00  0.00    +0.000 A 
BRANCH  21  25
ATOM     25  O   UNL     1       8.038  11.341  23.339  0.00  0.00    +0.000 OA
ATOM     26  C   UNL     1       8.318  11.794  24.663  0.00  0.00    +0.000 C 
ENDBRANCH  21  25
BRANCH  24  27
ATOM     27  O   UNL     1      10.070  14.287  19.139  0.00  0.00    +0.000 OA
ATOM     28  C   UNL     1      10.128  15.672  19.413  0.00  0.00    +0.000 C 
ENDBRANCH  24  27
ENDBRANCH  17  19
ENDBRANCH  16  17
ENDBRANCH  15  16
ENDBRANCH   1  15
TORSDOF 11
ENDMDL
MODEL 6
REMARK VINA RESULT:      -6.7      6.006      9.237
REMARK  Name = 
REMARK  15 active torsions:
REMARK  status: ('A' for Active; 'I' for Inactive)
REMARK    1  A    between atoms: C_1  and  O_2
REMARK    2  A    between atoms: O_2  and  C_3
REMARK    3  A    between atoms: C_6  and  O_7
REMARK    4  A    between atoms: O_7  and  C_8
REMARK    5  A    between atoms: C_9  and  C_10
REMARK    6  A    between atoms: C_10  and  C_12
REMARK    7  A    between atoms: C_12  and  C_13
REMARK    8  A    between atoms: C_13  and  C_14
REMARK    9  A    between atoms: C_14  and  C_15
REMARK   10  A    between atoms: C_15  and  C_16
REMARK   11  A    between atoms: C_16  and  C_18
REMARK   12  A    between atoms: C_20  and  O_21
REMARK   13  A    between atoms: O_21  and  C_22
REMARK   14  A    between atoms: C_25  and  O_26
REMARK   15  A    between atoms: O_26  and  C_27
REMARK                            x       y       z     vdW  Elec       q    Type
REMARK                         _______ _______ _______ _____ _____    ______ ____
ROOT
ATOM      1  C   UNL     1       8.575   9.579  18.615  0.00  0.00    +0.000 C 
ENDROOT
BRANCH   1   2
ATOM      2  C   UNL     1       9.625  10.591  18.129  0.00  0.00    +0.000 C 
BRANCH   2   3
ATOM      3  C   UNL     1       9.113  12.008  18.243  0.00  0.00    +0.000 C 
ATOM      4  O   UNL     1       8.252  12.424  17.456  0.00  0.00    +0.000 OA
BRANCH   3   9
ATOM      5  C   UNL     1       9.364  13.510  21.673  0.00  0.00    +0.000 A 
ATOM      6  C   UNL     1      10.273  14.542  21.505  0.00  0.00    +0.000 A 
ATOM      7  C   UNL     1      10.865  14.769  20.263  0.00  0.00    +0.000 A 
ATOM      8  C   UNL     1      10.528  13.994  19.141  0.00  0.00    +0.000 A 
ATOM      9  C   UNL     1       9.612  12.938  19.307  0.00  0.00    +0.000 A 
ATOM     10  C   UNL     1       9.051  12.706  20.581  0.00  0.00    +0.000 A 
BRANCH   5  12
ATOM     11  C   UNL     1       8.391  12.090  23.302  0.00  0.00    +0.000 C 
ATOM     12  O   UNL     1       8.848  13.385  22.930  0.00  0.00    +0.000 OA
ENDBRANCH   5  12
BRANCH   8  13
ATOM     13  O   UNL     1      11.089  14.231  17.912  0.00  0.00    +0.000 OA
ATOM     14  C   UNL     1      10.816  15.516  17.345  0.00  0.00    +0.000 C 
ENDBRANCH   8  13
ENDBRANCH   3   9
ENDBRANCH   2   3
ENDBRANCH   1   2
BRANCH   1  15
ATOM     15  C   UNL     1       8.095   8.631  17.513  0.00  0.00    +0.000 C 
BRANCH  15  16
ATOM     16  C   UNL     1       7.778   7.251  18.077  0.00  0.00    +0.000 C 
BRANCH  16  17
ATOM     17  C   UNL     1       6.878   6.402  17.192  0.00  0.00    +0.000 C 
ATOM     18  O   UNL     1       7.284   5.926  16.139  0.00  0.00    +0.000 OA
BRANCH  17  19
ATOM     19  C   UNL     1       5.449   6.258  17.627  0.00  0.00    +0.000 A 
ATOM     20  C   UNL     1       4.595   7.331  17.271  0.00  0.00    +0.000 A 
ATOM     21  C   UNL     1       3.253   7.371  17.642  0.00  0.00    +0.000 A 
ATOM     22  C   UNL     1       2.702   6.283  18.291  0.00  0.00    +0.000 A 
ATOM     23  C   UNL     1       3.524   5.215  18.648  0.00  0.00    +0.000 A 
ATOM     24  C   UNL     1       4.904   5.194  18.363  0.00  0.00    +0.000 A 
BRANCH  21  25
ATOM     25  O   UNL     1       2.578   8.513  17.311  0.00  0.00    +0.000 OA
ATOM     26  C   UNL     1       1.710   9.010  18.328  0.00  0.00    +0.000 C 
ENDBRANCH  21  25
BRANCH  24  27
ATOM     27  O   UNL     1       5.476   4.128  18.991  0.00  0.00    +0.000 OA
ATOM     28  C   UNL     1       4.704   3.073  19.528  0.00  0.00    +0.000 C 
ENDBRANCH  24  27
ENDBRANCH  17  19
ENDBRANCH  16  17
ENDBRANCH  15  16
ENDBRANCH   1  15
TORSDOF 11
ENDMDL
MODEL 7
REMARK VINA RESULT:      -6.6      1.047      9.147
REMARK  Name = 
REMARK  15 active torsions:
REMARK  status: ('A' for Active; 'I' for Inactive)
REMARK    1  A    between atoms: C_1  and  O_2
REMARK    2  A    between atoms: O_2  and  C_3
REMARK    3  A    between atoms: C_6  and  O_7
REMARK    4  A    between atoms: O_7  and  C_8
REMARK    5  A    between atoms: C_9  and  C_10
REMARK    6  A    between atoms: C_10  and  C_12
REMARK    7  A    between atoms: C_12  and  C_13
REMARK    8  A    between atoms: C_13  and  C_14
REMARK    9  A    between atoms: C_14  and  C_15
REMARK   10  A    between atoms: C_15  and  C_16
REMARK   11  A    between atoms: C_16  and  C_18
REMARK   12  A    between atoms: C_20  and  O_21
REMARK   13  A    between atoms: O_21  and  C_22
REMARK   14  A    between atoms: C_25  and  O_26
REMARK   15  A    between atoms: O_26  and  C_27
REMARK                            x       y       z     vdW  Elec       q    Type
REMARK                         _______ _______ _______ _____ _____    ______ ____
ROOT
ATOM      1  C   UNL     1       1.948   7.598  18.750  0.00  0.00    +0.000 C 
ENDROOT
BRANCH   1   2
ATOM      2  C   UNL     1       2.369   8.615  17.678  0.00  0.00    +0.000 C 
BRANCH   2   3
ATOM      3  C   UNL     1       1.835   9.993  17.991  0.00  0.00    +0.000 C 
ATOM      4  O   UNL     1       2.576  10.981  17.916  0.00  0.00    +0.000 OA
BRANCH   3   9
ATOM      5  C   UNL     1      -1.891  10.073  17.547  0.00  0.00    +0.000 A 
ATOM      6  C   UNL     1      -2.348  10.558  18.761  0.00  0.00    +0.000 A 
ATOM      7  C   UNL     1      -1.453  10.851  19.789  0.00  0.00    +0.000 A 
ATOM      8  C   UNL     1      -0.067  10.708  19.612  0.00  0.00    +0.000 A 
ATOM      9  C   UNL     1       0.404  10.208  18.384  0.00  0.00    +0.000 A 
ATOM     10  C   UNL     1      -0.523   9.885  17.371  0.00  0.00    +0.000 A 
BRANCH   5  12
ATOM     11  C   UNL     1      -2.783  10.574  15.409  0.00  0.00    +0.000 C 
ATOM     12  O   UNL     1      -2.857   9.824  16.616  0.00  0.00    +0.000 OA
ENDBRANCH   5  12
BRANCH   8  13
ATOM     13  O   UNL     1       0.819  11.020  20.613  0.00  0.00    +0.000 OA
ATOM     14  C   UNL     1       0.858  10.104  21.711  0.00  0.00    +0.000 C 
ENDBRANCH   8  13
ENDBRANCH   3   9
ENDBRANCH   2   3
ENDBRANCH   1   2
BRANCH   1  15
ATOM     15  C   UNL     1       3.008   6.524  19.014  0.00  0.00    +0.000 C 
BRANCH  15  16
ATOM     16  C   UNL     1       2.586   5.182  18.426  0.00  0.00    +0.000 C 
BRANCH  16  17
ATOM     17  C   UNL     1       3.664   4.111  18.472  0.00  0.00    +0.000 C 
ATOM     18  O   UNL     1       3.594   3.167  19.250  0.00  0.00    +0.000 OA
BRANCH  17  19
ATOM     19  C   UNL     1       4.858   4.317  17.585  0.00  0.00    +0.000 A 
ATOM     20  C   UNL     1       4.616   4.164  16.198  0.00  0.00    +0.000 A 
ATOM     21  C   UNL     1       5.629   4.274  15.248  0.00  0.00    +0.000 A 
ATOM     22  C   UNL     1       6.895   4.650  15.655  0.00  0.00    +0.000 A 
ATOM     23  C   UNL     1       7.153   4.808  17.016  0.00  0.00    +0.000 A 
ATOM     24  C   UNL     1       6.165   4.612  18.002  0.00  0.00    +0.000 A 
BRANCH  21  25
ATOM     25  O   UNL     1       5.266   4.007  13.957  0.00  0.00    +0.000 OA
ATOM     26  C   UNL     1       6.357   3.848  13.051  0.00  0.00    +0.000 C 
ENDBRANCH  21  25
BRANCH  24  27
ATOM     27  O   UNL     1       6.747   4.649  19.234  0.00  0.00    +0.000 OA
ATOM     28  C   UNL     1       7.608   5.700  19.623  0.00  0.00    +0.000 C 
ENDBRANCH  24  27
ENDBRANCH  17  19
ENDBRANCH  16  17
ENDBRANCH  15  16
ENDBRANCH   1  15
TORSDOF 11
ENDMDL
MODEL 8
REMARK VINA RESULT:      -6.6      2.169      9.030
REMARK  Name = 
REMARK  15 active torsions:
REMARK  status: ('A' for Active; 'I' for Inactive)
REMARK    1  A    between atoms: C_1  and  O_2
REMARK    2  A    between atoms: O_2  and  C_3
REMARK    3  A    between atoms: C_6  and  O_7
REMARK    4  A    between atoms: O_7  and  C_8
REMARK    5  A    between atoms: C_9  and  C_10
REMARK    6  A    between atoms: C_10  and  C_12
REMARK    7  A    between atoms: C_12  and  C_13
REMARK    8  A    between atoms: C_13  and  C_14
REMARK    9  A    between atoms: C_14  and  C_15
REMARK   10  A    between atoms: C_15  and  C_16
REMARK   11  A    between atoms: C_16  and  C_18
REMARK   12  A    between atoms: C_20  and  O_21
REMARK   13  A    between atoms: O_21  and  C_22
REMARK   14  A    between atoms: C_25  and  O_26
REMARK   15  A    between atoms: O_26  and  C_27
REMARK                            x       y       z     vdW  Elec       q    Type
REMARK                         _______ _______ _______ _____ _____    ______ ____
ROOT
ATOM      1  C   UNL     1       0.828   9.076  20.977  0.00  0.00    +0.000 C 
ENDROOT
BRANCH   1   2
ATOM      2  C   UNL     1       0.782   9.554  19.517  0.00  0.00    +0.000 C 
BRANCH   2   3
ATOM      3  C   UNL     1       0.036  10.862  19.393  0.00  0.00    +0.000 C 
ATOM      4  O   UNL     1       0.533  11.908  19.831  0.00  0.00    +0.000 OA
BRANCH   3   9
ATOM      5  C   UNL     1      -2.550  10.221  16.750  0.00  0.00    +0.000 A 
ATOM      6  C   UNL     1      -3.654  10.926  17.203  0.00  0.00    +0.000 A 
ATOM      7  C   UNL     1      -3.604  11.617  18.413  0.00  0.00    +0.000 A 
ATOM      8  C   UNL     1      -2.429  11.659  19.183  0.00  0.00    +0.000 A 
ATOM      9  C   UNL     1      -1.307  10.938  18.732  0.00  0.00    +0.000 A 
ATOM     10  C   UNL     1      -1.392  10.218  17.522  0.00  0.00    +0.000 A 
BRANCH   5  12
ATOM     11  C   UNL     1      -3.642  10.171  14.646  0.00  0.00    +0.000 C 
ATOM     12  O   UNL     1      -2.714   9.586  15.553  0.00  0.00    +0.000 OA
ENDBRANCH   5  12
BRANCH   8  13
ATOM     13  O   UNL     1      -2.369  12.359  20.361  0.00  0.00    +0.000 OA
ATOM     14  C   UNL     1      -3.364  13.374  20.528  0.00  0.00    +0.000 C 
ENDBRANCH   8  13
ENDBRANCH   3   9
ENDBRANCH   2   3
ENDBRANCH   1   2
BRANCH   1  15
ATOM     15  C   UNL     1       1.067   7.570  21.111  0.00  0.00    +0.000 C 
BRANCH  15  16
ATOM     16  C   UNL     1       1.986   7.060  20.007  0.00  0.00    +0.000 C 
BRANCH  16  17
ATOM     17  C   UNL     1       2.332   5.582  20.111  0.00  0.00    +0.000 C 
ATOM     18  O   UNL     1       2.052   4.929  21.108  0.00  0.00    +0.000 OA
BRANCH  17  19
ATOM     19  C   UNL     1       3.113   4.992  18.973  0.00  0.00    +0.000 A 
ATOM     20  C   UNL     1       4.424   5.503  18.807  0.00  0.00    +0.000 A 
ATOM     21  C   UNL     1       5.258   5.094  17.769  0.00  0.00    +0.000 A 
ATOM     22  C   UNL     1       4.840   4.080  16.929  0.00  0.00    +0.000 A 
ATOM     23  C   UNL     1       3.554   3.562  17.077  0.00  0.00    +0.000 A 
ATOM     24  C   UNL     1       2.659   4.024  18.063  0.00  0.00    +0.000 A 
BRANCH  21  25
ATOM     25  O   UNL     1       6.458   5.743  17.680  0.00  0.00    +0.000 OA
ATOM     26  C   UNL     1       6.374   7.091  17.218  0.00  0.00    +0.000 C 
ENDBRANCH  21  25
BRANCH  24  27
ATOM     27  O   UNL     1       1.430   3.475  17.847  0.00  0.00    +0.000 OA
ATOM     28  C   UNL     1       0.897   2.476  18.691  0.00  0.00    +0.000 C 
ENDBRANCH  24  27
ENDBRANCH  17  19
ENDBRANCH  16  17
ENDBRANCH  15  16
ENDBRANCH   1  15
TORSDOF 11
ENDMDL
MODEL 9
REMARK VINA RESULT:      -6.5      1.458      2.023
REMARK  Name = 
REMARK  15 active torsions:
REMARK  status: ('A' for Active; 'I' for Inactive)
REMARK    1  A    between atoms: C_1  and  O_2
REMARK    2  A    between atoms: O_2  and  C_3
REMARK    3  A    between atoms: C_6  and  O_7
REMARK    4  A    between atoms: O_7  and  C_8
REMARK    5  A    between atoms: C_9  and  C_10
REMARK    6  A    between atoms: C_10  and  C_12
REMARK    7  A    between atoms: C_12  and  C_13
REMARK    8  A    between atoms: C_13  and  C_14
REMARK    9  A    between atoms: C_14  and  C_15
REMARK   10  A    between atoms: C_15  and  C_16
REMARK   11  A    between atoms: C_16  and  C_18
REMARK   12  A    between atoms: C_20  and  O_21
REMARK   13  A    between atoms: O_21  and  C_22
REMARK   14  A    between atoms: C_25  and  O_26
REMARK   15  A    between atoms: O_26  and  C_27
REMARK                            x       y       z     vdW  Elec       q    Type
REMARK                         _______ _______ _______ _____ _____    ______ ____
ROOT
ATOM      1  C   UNL     1       2.735   6.260  19.341  0.00  0.00    +0.000 C 
ENDROOT
BRANCH   1   2
ATOM      2  C   UNL     1       2.632   4.943  18.555  0.00  0.00    +0.000 C 
BRANCH   2   3
ATOM      3  C   UNL     1       3.914   4.149  18.647  0.00  0.00    +0.000 C 
ATOM      4  O   UNL     1       4.063   3.307  19.543  0.00  0.00    +0.000 OA
BRANCH   3   9
ATOM      5  C   UNL     1       5.537   4.333  15.268  0.00  0.00    +0.000 A 
ATOM      6  C   UNL     1       6.868   4.576  15.565  0.00  0.00    +0.000 A 
ATOM      7  C   UNL     1       7.284   4.720  16.889  0.00  0.00    +0.000 A 
ATOM      8  C   UNL     1       6.382   4.579  17.956  0.00  0.00    +0.000 A 
ATOM      9  C   UNL     1       5.027   4.341  17.662  0.00  0.00    +0.000 A 
ATOM     10  C   UNL     1       4.623   4.233  16.314  0.00  0.00    +0.000 A 
BRANCH   5  12
ATOM     11  C   UNL     1       6.289   3.706  13.109  0.00  0.00    +0.000 C 
ATOM     12  O   UNL     1       5.248   4.208  13.941  0.00  0.00    +0.000 OA
ENDBRANCH   5  12
BRANCH   8  13
ATOM     13  O   UNL     1       6.792   4.695  19.260  0.00  0.00    +0.000 OA
ATOM     14  C   UNL     1       7.601   5.838  19.555  0.00  0.00    +0.000 C 
ENDBRANCH   8  13
ENDBRANCH   3   9
ENDBRANCH   2   3
ENDBRANCH   1   2
BRANCH   1  15
ATOM     15  C   UNL     1       1.601   6.452  20.351  0.00  0.00    +0.000 C 
BRANCH  15  16
ATOM     16  C   UNL     1       1.651   7.842  20.974  0.00  0.00    +0.000 C 
BRANCH  16  17
ATOM     17  C   UNL     1       0.287   8.455  21.252  0.00  0.00    +0.000 C 
ATOM     18  O   UNL     1      -0.667   7.764  21.588  0.00  0.00    +0.000 OA
BRANCH  17  19
ATOM     19  C   UNL     1       0.147   9.929  21.003  0.00  0.00    +0.000 A 
ATOM     20  C   UNL     1      -0.161  10.710  22.144  0.00  0.00    +0.000 A 
ATOM     21  C   UNL     1      -0.372  12.085  22.072  0.00  0.00    +0.000 A 
ATOM     22  C   UNL     1      -0.172  12.734  20.869  0.00  0.00    +0.000 A 
ATOM     23  C   UNL     1       0.134  11.984  19.734  0.00  0.00    +0.000 A 
ATOM     24  C   UNL     1       0.262  10.580  19.765  0.00  0.00    +0.000 A 
BRANCH  21  25
ATOM     25  O   UNL     1      -0.755  12.690  23.236  0.00  0.00    +0.000 OA
ATOM     26  C   UNL     1      -1.008  14.090  23.126  0.00  0.00    +0.000 C 
ENDBRANCH  21  25
BRANCH  24  27
ATOM     27  O   UNL     1       0.374  10.111  18.490  0.00  0.00    +0.000 OA
ATOM     28  C   UNL     1       1.621   9.752  17.931  0.00  0.00    +0.000 C 
ENDBRANCH  24  27
ENDBRANCH  17  19
ENDBRANCH  16  17
ENDBRANCH  15  16
ENDBRANCH   1  15
TORSDOF 11
ENDMDL
