MODEL 1
REMARK VINA RESULT:      -7.9      0.000      0.000
REMARK  Name = 
REMARK  6 active torsions:
REMARK  status: ('A' for Active; 'I' for Inactive)
REMARK    1  A    between atoms: C_1  and  C_2
REMARK    2  A    between atoms: C_2  and  N_3
REMARK    3  A    between atoms: C_5  and  C_6
REMARK    4  A    between atoms: C_11  and  N_12
REMARK    5  A    between atoms: C_22  and  N_23
REMARK    6  A    between atoms: N_26  and  C_27
REMARK                            x       y       z     vdW  Elec       q    Type
REMARK                         _______ _______ _______ _____ _____    ______ ____
ROOT
ATOM      1  N   UNL     1      -0.820  10.677  18.706  0.00  0.00    +0.000 N 
ATOM      2  C   UNL     1       0.216   9.771  18.577  0.00  0.00    +0.000 A 
ATOM      3  C   UNL     1       1.006   9.293  19.548  0.00  0.00    +0.000 A 
ATOM      4  C   UNL     1       0.754   9.797  20.920  0.00  0.00    +0.000 A 
ATOM      5  O   UNL     1       1.471   9.466  21.863  0.00  0.00    +0.000 OA
ATOM      6  C   UNL     1      -0.399  10.731  21.105  0.00  0.00    +0.000 A 
ATOM      7  C   UNL     1      -0.709  11.176  22.393  0.00  0.00    +0.000 A 
ATOM      8  C   UNL     1      -1.751  12.081  22.579  0.00  0.00    +0.000 A 
ATOM      9  F   UNL     1      -1.975  12.537  23.824  0.00  0.00    +0.000 F 
ATOM     10  C   UNL     1      -2.505  12.588  21.500  0.00  0.00    +0.000 A 
ATOM     11  C   UNL     1      -2.185  12.085  20.227  0.00  0.00    +0.000 A 
ATOM     12  C   UNL     1      -1.143  11.159  19.989  0.00  0.00    +0.000 A 
ENDROOT
BRANCH   3  13
ATOM     13  C   UNL     1       1.941   8.289  19.201  0.00  0.00    +0.000 A 
ATOM     14  N   UNL     1       2.667   8.218  18.102  0.00  0.00    +0.000 NA
ATOM     15  C   UNL     1       3.304   7.016  18.151  0.00  0.00    +0.000 A 
ATOM     16  C   UNL     1       4.049   6.382  17.156  0.00  0.00    +0.000 A 
ATOM     17  C   UNL     1       4.598   5.129  17.438  0.00  0.00    +0.000 A 
ATOM     18  C   UNL     1       4.468   4.544  18.704  0.00  0.00    +0.000 A 
ATOM     19  C   UNL     1       3.767   5.210  19.727  0.00  0.00    +0.000 A 
ATOM     20  C   UNL     1       3.116   6.400  19.381  0.00  0.00    +0.000 A 
ATOM     21  N   UNL     1       2.179   7.197  20.009  0.00  0.00    +0.000 N 
ATOM     22  H   UNL     1       1.660   6.969  20.847  0.00  0.00    +0.000 HD
BRANCH  18  23
ATOM     23  N   UNL     1       5.217   3.393  18.994  0.00  0.00    +0.000 N 
ATOM     24  H   UNL     1       4.721   2.529  18.792  0.00  0.00    +0.000 HD
ATOM     25  H   UNL     1       5.654   3.390  19.909  0.00  0.00    +0.000 HD
ENDBRANCH  18  23
ENDBRANCH   3  13
BRANCH  10  26
ATOM     26  N   UNL     1      -3.445  13.597  21.673  0.00  0.00    +0.000 N 
ATOM     27  C   UNL     1      -3.199  14.957  21.167  0.00  0.00    +0.000 C 
ATOM     28  C   UNL     1      -3.961  15.978  22.039  0.00  0.00    +0.000 C 
ATOM     29  N   UNL     1      -5.416  15.711  22.088  0.00  0.00    +0.000 NA
ATOM     30  C   UNL     1      -6.071  16.672  22.975  0.00  0.00    +0.000 C 
ATOM     31  C   UNL     1      -5.642  14.323  22.564  0.00  0.00    +0.000 C 
ATOM     32  C   UNL     1      -4.881  13.255  21.734  0.00  0.00    +0.000 C 
ENDBRANCH  10  26
BRANCH   1  34
ATOM     33  C   UNL     1      -2.253  10.012  16.827  0.00  0.00    +0.000 C 
ATOM     34  C   UNL     1      -1.522  11.160  17.505  0.00  0.00    +0.000 C 
ENDBRANCH   1  34
TORSDOF 4
ENDMDL
MODEL 2
REMARK VINA RESULT:      -7.9      2.254      2.851
REMARK  Name = 
REMARK  6 active torsions:
REMARK  status: ('A' for Active; 'I' for Inactive)
REMARK    1  A    between atoms: C_1  and  C_2
REMARK    2  A    between atoms: C_2  and  N_3
REMARK    3  A    between atoms: C_5  and  C_6
REMARK    4  A    between atoms: C_11  and  N_12
REMARK    5  A    between atoms: C_22  and  N_23
REMARK    6  A    between atoms: N_26  and  C_27
REMARK                            x       y       z     vdW  Elec       q    Type
REMARK                         _______ _______ _______ _____ _____    ______ ____
ROOT
ATOM      1  N   UNL     1       1.244  10.463  18.820  0.00  0.00    +0.000 N 
ATOM      2  C   UNL     1       1.957   9.386  18.329  0.00  0.00    +0.000 A 
ATOM      3  C   UNL     1       2.158   8.202  18.922  0.00  0.00    +0.000 A 
ATOM      4  C   UNL     1       1.558   8.021  20.268  0.00  0.00    +0.000 A 
ATOM      5  O   UNL     1       1.746   6.994  20.917  0.00  0.00    +0.000 OA
ATOM      6  C   UNL     1       0.730   9.145  20.803  0.00  0.00    +0.000 A 
ATOM      7  C   UNL     1       0.095   8.988  22.038  0.00  0.00    +0.000 A 
ATOM      8  C   UNL     1      -0.645  10.040  22.574  0.00  0.00    +0.000 A 
ATOM      9  F   UNL     1      -1.184   9.873  23.794  0.00  0.00    +0.000 F 
ATOM     10  C   UNL     1      -0.764  11.282  21.917  0.00  0.00    +0.000 A 
ATOM     11  C   UNL     1      -0.142  11.383  20.660  0.00  0.00    +0.000 A 
ATOM     12  C   UNL     1       0.610  10.342  20.072  0.00  0.00    +0.000 A 
ENDROOT
BRANCH   3  13
ATOM     13  C   UNL     1       2.836   7.201  18.186  0.00  0.00    +0.000 A 
ATOM     14  N   UNL     1       2.575   5.908  18.167  0.00  0.00    +0.000 NA
ATOM     15  C   UNL     1       3.571   5.337  17.435  0.00  0.00    +0.000 A 
ATOM     16  C   UNL     1       3.858   3.983  17.261  0.00  0.00    +0.000 A 
ATOM     17  C   UNL     1       4.956   3.636  16.468  0.00  0.00    +0.000 A 
ATOM     18  C   UNL     1       5.714   4.610  15.807  0.00  0.00    +0.000 A 
ATOM     19  C   UNL     1       5.389   5.974  15.935  0.00  0.00    +0.000 A 
ATOM     20  C   UNL     1       4.369   6.302  16.837  0.00  0.00    +0.000 A 
ATOM     21  N   UNL     1       3.927   7.487  17.392  0.00  0.00    +0.000 N 
ATOM     22  H   UNL     1       4.387   8.386  17.337  0.00  0.00    +0.000 HD
BRANCH  18  23
ATOM     23  N   UNL     1       6.665   4.196  14.861  0.00  0.00    +0.000 N 
ATOM     24  H   UNL     1       6.784   4.854  14.095  0.00  0.00    +0.000 HD
ATOM     25  H   UNL     1       6.559   3.240  14.544  0.00  0.00    +0.000 HD
ENDBRANCH  18  23
ENDBRANCH   3  13
BRANCH  10  26
ATOM     26  N   UNL     1      -1.381  12.373  22.519  0.00  0.00    +0.000 N 
ATOM     27  C   UNL     1      -0.741  13.698  22.520  0.00  0.00    +0.000 C 
ATOM     28  C   UNL     1      -1.203  14.492  23.761  0.00  0.00    +0.000 C 
ATOM     29  N   UNL     1      -2.673  14.639  23.829  0.00  0.00    +0.000 NA
ATOM     30  C   UNL     1      -3.049  15.345  25.054  0.00  0.00    +0.000 C 
ATOM     31  C   UNL     1      -3.301  13.294  23.788  0.00  0.00    +0.000 C 
ATOM     32  C   UNL     1      -2.855  12.443  22.569  0.00  0.00    +0.000 C 
ENDBRANCH  10  26
BRANCH   1  34
ATOM     33  C   UNL     1       2.555  12.429  18.156  0.00  0.00    +0.000 C 
ATOM     34  C   UNL     1       1.210  11.724  18.061  0.00  0.00    +0.000 C 
ENDBRANCH   1  34
TORSDOF 4
ENDMDL
MODEL 3
REMARK VINA RESULT:      -7.5      3.418      4.432
REMARK  Name = 
REMARK  6 active torsions:
REMARK  status: ('A' for Active; 'I' for Inactive)
REMARK    1  A    between atoms: C_1  and  C_2
REMARK    2  A    between atoms: C_2  and  N_3
REMARK    3  A    between atoms: C_5  and  C_6
REMARK    4  A    between atoms: C_11  and  N_12
REMARK    5  A    between atoms: C_22  and  N_23
REMARK    6  A    between atoms: N_26  and  C_27
REMARK                            x       y       z     vdW  Elec       q    Type
REMARK                         _______ _______ _______ _____ _____    ______ ____
ROOT
ATOM      1  N   UNL     1       0.567  10.061  21.214  0.00  0.00    +0.000 N 
ATOM      2  C   UNL     1       0.934   8.742  21.024  0.00  0.00    +0.000 A 
ATOM      3  C   UNL     1       1.625   8.228  19.998  0.00  0.00    +0.000 A 
ATOM      4  C   UNL     1       2.040   9.174  18.934  0.00  0.00    +0.000 A 
ATOM      5  O   UNL     1       2.618   8.783  17.922  0.00  0.00    +0.000 OA
ATOM      6  C   UNL     1       1.712  10.619  19.138  0.00  0.00    +0.000 A 
ATOM      7  C   UNL     1       2.143  11.550  18.189  0.00  0.00    +0.000 A 
ATOM      8  C   UNL     1       1.809  12.895  18.339  0.00  0.00    +0.000 A 
ATOM      9  F   UNL     1       2.184  13.749  17.370  0.00  0.00    +0.000 F 
ATOM     10  C   UNL     1       1.026  13.356  19.417  0.00  0.00    +0.000 A 
ATOM     11  C   UNL     1       0.647  12.392  20.368  0.00  0.00    +0.000 A 
ATOM     12  C   UNL     1       0.969  11.020  20.264  0.00  0.00    +0.000 A 
ENDROOT
BRANCH   3  13
ATOM     13  C   UNL     1       1.980   6.859  20.062  0.00  0.00    +0.000 A 
ATOM     14  N   UNL     1       1.310   5.888  20.652  0.00  0.00    +0.000 NA
ATOM     15  C   UNL     1       2.105   4.785  20.573  0.00  0.00    +0.000 A 
ATOM     16  C   UNL     1       1.941   3.546  21.193  0.00  0.00    +0.000 A 
ATOM     17  C   UNL     1       2.908   2.562  20.971  0.00  0.00    +0.000 A 
ATOM     18  C   UNL     1       3.982   2.779  20.098  0.00  0.00    +0.000 A 
ATOM     19  C   UNL     1       4.116   4.009  19.427  0.00  0.00    +0.000 A 
ATOM     20  C   UNL     1       3.209   5.021  19.766  0.00  0.00    +0.000 A 
ATOM     21  N   UNL     1       3.148   6.377  19.513  0.00  0.00    +0.000 N 
ATOM     22  H   UNL     1       3.881   6.947  19.110  0.00  0.00    +0.000 HD
BRANCH  18  23
ATOM     23  N   UNL     1       4.798   1.691  19.750  0.00  0.00    +0.000 N 
ATOM     24  H   UNL     1       4.306   0.803  19.750  0.00  0.00    +0.000 HD
ATOM     25  H   UNL     1       5.683   1.650  20.242  0.00  0.00    +0.000 HD
ENDBRANCH  18  23
ENDBRANCH   3  13
BRANCH  10  26
ATOM     26  N   UNL     1       0.575  14.669  19.486  0.00  0.00    +0.000 N 
ATOM     27  C   UNL     1      -0.781  14.980  19.965  0.00  0.00    +0.000 C 
ATOM     28  C   UNL     1      -1.270  16.292  19.313  0.00  0.00    +0.000 C 
ATOM     29  N   UNL     1      -0.365  17.432  19.580  0.00  0.00    +0.000 NA
ATOM     30  C   UNL     1      -0.849  18.627  18.888  0.00  0.00    +0.000 C 
ATOM     31  C   UNL     1       1.005  17.084  19.126  0.00  0.00    +0.000 C 
ATOM     32  C   UNL     1       1.539  15.760  19.735  0.00  0.00    +0.000 C 
ENDBRANCH  10  26
BRANCH   1  34
ATOM     33  C   UNL     1      -0.025   9.475  23.523  0.00  0.00    +0.000 C 
ATOM     34  C   UNL     1      -0.278  10.426  22.363  0.00  0.00    +0.000 C 
ENDBRANCH   1  34
TORSDOF 4
ENDMDL
MODEL 4
REMARK VINA RESULT:      -7.5      2.041      3.031
REMARK  Name = 
REMARK  6 active torsions:
REMARK  status: ('A' for Active; 'I' for Inactive)
REMARK    1  A    between atoms: C_1  and  C_2
REMARK    2  A    between atoms: C_2  and  N_3
REMARK    3  A    between atoms: C_5  and  C_6
REMARK    4  A    between atoms: C_11  and  N_12
REMARK    5  A    between atoms: C_22  and  N_23
REMARK    6  A    between atoms: N_26  and  C_27
REMARK                            x       y       z     vdW  Elec       q    Type
REMARK                         _______ _______ _______ _____ _____    ______ ____
ROOT
ATOM      1  N   UNL     1       0.315   9.010  20.985  0.00  0.00    +0.000 N 
ATOM      2  C   UNL     1       1.220   8.173  20.361  0.00  0.00    +0.000 A 
ATOM      3  C   UNL     1       1.826   8.362  19.182  0.00  0.00    +0.000 A 
ATOM      4  C   UNL     1       1.483   9.606  18.448  0.00  0.00    +0.000 A 
ATOM      5  O   UNL     1       1.937   9.832  17.328  0.00  0.00    +0.000 OA
ATOM      6  C   UNL     1       0.553  10.562  19.123  0.00  0.00    +0.000 A 
ATOM      7  C   UNL     1       0.256  11.774  18.494  0.00  0.00    +0.000 A 
ATOM      8  C   UNL     1      -0.643  12.658  19.085  0.00  0.00    +0.000 A 
ATOM      9  F   UNL     1      -0.954  13.782  18.416  0.00  0.00    +0.000 F 
ATOM     10  C   UNL     1      -1.290  12.365  20.304  0.00  0.00    +0.000 A 
ATOM     11  C   UNL     1      -0.933  11.153  20.922  0.00  0.00    +0.000 A 
ATOM     12  C   UNL     1      -0.020  10.229  20.365  0.00  0.00    +0.000 A 
ENDROOT
BRANCH   3  13
ATOM     13  C   UNL     1       2.803   7.418  18.783  0.00  0.00    +0.000 A 
ATOM     14  N   UNL     1       3.125   6.295  19.396  0.00  0.00    +0.000 NA
ATOM     15  C   UNL     1       4.202   5.800  18.725  0.00  0.00    +0.000 A 
ATOM     16  C   UNL     1       5.029   4.731  19.073  0.00  0.00    +0.000 A 
ATOM     17  C   UNL     1       6.094   4.417  18.225  0.00  0.00    +0.000 A 
ATOM     18  C   UNL     1       6.296   5.105  17.022  0.00  0.00    +0.000 A 
ATOM     19  C   UNL     1       5.426   6.145  16.642  0.00  0.00    +0.000 A 
ATOM     20  C   UNL     1       4.449   6.526  17.569  0.00  0.00    +0.000 A 
ATOM     21  N   UNL     1       3.589   7.602  17.666  0.00  0.00    +0.000 N 
ATOM     22  H   UNL     1       3.609   8.441  17.099  0.00  0.00    +0.000 HD
BRANCH  18  23
ATOM     23  N   UNL     1       7.245   4.609  16.114  0.00  0.00    +0.000 N 
ATOM     24  H   UNL     1       7.143   3.616  15.927  0.00  0.00    +0.000 HD
ATOM     25  H   UNL     1       8.202   4.876  16.312  0.00  0.00    +0.000 HD
ENDBRANCH  18  23
ENDBRANCH   3  13
BRANCH  10  26
ATOM     26  N   UNL     1      -2.291  13.182  20.817  0.00  0.00    +0.000 N 
ATOM     27  C   UNL     1      -1.985  14.531  21.318  0.00  0.00    +0.000 C 
ATOM     28  C   UNL     1      -3.004  14.919  22.411  0.00  0.00    +0.000 C 
ATOM     29  N   UNL     1      -4.403  14.862  21.932  0.00  0.00    +0.000 NA
ATOM     30  C   UNL     1      -5.320  15.180  23.026  0.00  0.00    +0.000 C 
ATOM     31  C   UNL     1      -4.680  13.506  21.395  0.00  0.00    +0.000 C 
ATOM     32  C   UNL     1      -3.671  13.055  20.305  0.00  0.00    +0.000 C 
ENDBRANCH  10  26
BRANCH   1  34
ATOM     33  C   UNL     1       0.231   9.397  23.408  0.00  0.00    +0.000 C 
ATOM     34  C   UNL     1      -0.322   8.588  22.244  0.00  0.00    +0.000 C 
ENDBRANCH   1  34
TORSDOF 4
ENDMDL
MODEL 5
REMARK VINA RESULT:      -7.5      2.094      3.099
REMARK  Name = 
REMARK  6 active torsions:
REMARK  status: ('A' for Active; 'I' for Inactive)
REMARK    1  A    between atoms: C_1  and  C_2
REMARK    2  A    between atoms: C_2  and  N_3
REMARK    3  A    between atoms: C_5  and  C_6
REMARK    4  A    between atoms: C_11  and  N_12
REMARK    5  A    between atoms: C_22  and  N_23
REMARK    6  A    between atoms: N_26  and  C_27
REMARK                            x       y       z     vdW  Elec       q    Type
REMARK                         _______ _______ _______ _____ _____    ______ ____
ROOT
ATOM      1  N   UNL     1       0.133   9.350  21.023  0.00  0.00    +0.000 N 
ATOM      2  C   UNL     1       0.963   8.410  20.442  0.00  0.00    +0.000 A 
ATOM      3  C   UNL     1       1.630   8.515  19.285  0.00  0.00    +0.000 A 
ATOM      4  C   UNL     1       1.453   9.779  18.527  0.00  0.00    +0.000 A 
ATOM      5  O   UNL     1       1.971   9.938  17.423  0.00  0.00    +0.000 OA
ATOM      6  C   UNL     1       0.610  10.841  19.157  0.00  0.00    +0.000 A 
ATOM      7  C   UNL     1       0.472  12.069  18.505  0.00  0.00    +0.000 A 
ATOM      8  C   UNL     1      -0.345  13.055  19.053  0.00  0.00    +0.000 A 
ATOM      9  F   UNL     1      -0.504  14.198  18.362  0.00  0.00    +0.000 F 
ATOM     10  C   UNL     1      -1.064  12.852  20.249  0.00  0.00    +0.000 A 
ATOM     11  C   UNL     1      -0.867  11.617  20.891  0.00  0.00    +0.000 A 
ATOM     12  C   UNL     1      -0.042  10.590  20.379  0.00  0.00    +0.000 A 
ENDROOT
BRANCH   3  13
ATOM     13  C   UNL     1       2.509   7.464  18.933  0.00  0.00    +0.000 A 
ATOM     14  N   UNL     1       2.751   6.362  19.617  0.00  0.00    +0.000 NA
ATOM     15  C   UNL     1       3.762   5.729  18.960  0.00  0.00    +0.000 A 
ATOM     16  C   UNL     1       4.503   4.618  19.364  0.00  0.00    +0.000 A 
ATOM     17  C   UNL     1       5.513   4.154  18.518  0.00  0.00    +0.000 A 
ATOM     18  C   UNL     1       5.741   4.737  17.265  0.00  0.00    +0.000 A 
ATOM     19  C   UNL     1       4.953   5.821  16.831  0.00  0.00    +0.000 A 
ATOM     20  C   UNL     1       4.039   6.350  17.750  0.00  0.00    +0.000 A 
ATOM     21  N   UNL     1       3.277   7.501  17.789  0.00  0.00    +0.000 N 
ATOM     22  H   UNL     1       3.354   8.294  17.164  0.00  0.00    +0.000 HD
BRANCH  18  23
ATOM     23  N   UNL     1       6.618   4.100  16.373  0.00  0.00    +0.000 N 
ATOM     24  H   UNL     1       7.586   4.117  16.680  0.00  0.00    +0.000 HD
ATOM     25  H   UNL     1       6.508   4.371  15.404  0.00  0.00    +0.000 HD
ENDBRANCH  18  23
ENDBRANCH   3  13
BRANCH  10  26
ATOM     26  N   UNL     1      -1.987  13.781  20.715  0.00  0.00    +0.000 N 
ATOM     27  C   UNL     1      -3.365  13.380  21.043  0.00  0.00    +0.000 C 
ATOM     28  C   UNL     1      -4.313  14.582  20.842  0.00  0.00    +0.000 C 
ATOM     29  N   UNL     1      -3.922  15.758  21.651  0.00  0.00    +0.000 NA
ATOM     30  C   UNL     1      -4.820  16.878  21.372  0.00  0.00    +0.000 C 
ATOM     31  C   UNL     1      -2.518  16.122  21.335  0.00  0.00    +0.000 C 
ATOM     32  C   UNL     1      -1.522  14.943  21.500  0.00  0.00    +0.000 C 
ENDBRANCH  10  26
BRANCH   1  34
ATOM     33  C   UNL     1       0.197   9.489  23.473  0.00  0.00    +0.000 C 
ATOM     34  C   UNL     1      -0.592   9.019  22.261  0.00  0.00    +0.000 C 
ENDBRANCH   1  34
TORSDOF 4
ENDMDL
MODEL 6
REMARK VINA RESULT:      -7.5      2.526      9.909
REMARK  Name = 
REMARK  6 active torsions:
REMARK  status: ('A' for Active; 'I' for Inactive)
REMARK    1  A    between atoms: C_1  and  C_2
REMARK    2  A    between atoms: C_2  and  N_3
REMARK    3  A    between atoms: C_5  and  C_6
REMARK    4  A    between atoms: C_11  and  N_12
REMARK    5  A    between atoms: C_22  and  N_23
REMARK    6  A    between atoms: N_26  and  C_27
REMARK                            x       y       z     vdW  Elec       q    Type
REMARK                         _______ _______ _______ _____ _____    ______ ____
ROOT
ATOM      1  N   UNL     1       0.996  10.965  19.434  0.00  0.00    +0.000 N 
ATOM      2  C   UNL     1       0.243  11.766  20.272  0.00  0.00    +0.000 A 
ATOM      3  C   UNL     1      -0.330  11.420  21.432  0.00  0.00    +0.000 A 
ATOM      4  C   UNL     1      -0.152  10.013  21.869  0.00  0.00    +0.000 A 
ATOM      5  O   UNL     1      -0.699   9.587  22.885  0.00  0.00    +0.000 OA
ATOM      6  C   UNL     1       0.706   9.136  21.016  0.00  0.00    +0.000 A 
ATOM      7  C   UNL     1       0.951   7.823  21.428  0.00  0.00    +0.000 A 
ATOM      8  C   UNL     1       1.712   6.977  20.625  0.00  0.00    +0.000 A 
ATOM      9  F   UNL     1       1.869   5.702  21.024  0.00  0.00    +0.000 F 
ATOM     10  C   UNL     1       2.237   7.394  19.385  0.00  0.00    +0.000 A 
ATOM     11  C   UNL     1       1.999   8.733  19.027  0.00  0.00    +0.000 A 
ATOM     12  C   UNL     1       1.242   9.631  19.812  0.00  0.00    +0.000 A 
ENDROOT
BRANCH   3  13
ATOM     13  C   UNL     1      -0.970  12.437  22.180  0.00  0.00    +0.000 A 
ATOM     14  N   UNL     1      -0.401  13.319  22.979  0.00  0.00    +0.000 NA
ATOM     15  C   UNL     1      -1.421  13.990  23.581  0.00  0.00    +0.000 A 
ATOM     16  C   UNL     1      -1.363  14.900  24.638  0.00  0.00    +0.000 A 
ATOM     17  C   UNL     1      -2.559  15.453  25.101  0.00  0.00    +0.000 A 
ATOM     18  C   UNL     1      -3.783  15.162  24.486  0.00  0.00    +0.000 A 
ATOM     19  C   UNL     1      -3.836  14.290  23.381  0.00  0.00    +0.000 A 
ATOM     20  C   UNL     1      -2.644  13.649  23.021  0.00  0.00    +0.000 A 
ATOM     21  N   UNL     1      -2.339  12.598  22.179  0.00  0.00    +0.000 N 
ATOM     22  H   UNL     1      -2.999  11.971  21.736  0.00  0.00    +0.000 HD
BRANCH  18  23
ATOM     23  N   UNL     1      -4.916  15.906  24.852  0.00  0.00    +0.000 N 
ATOM     24  H   UNL     1      -4.849  16.890  24.606  0.00  0.00    +0.000 HD
ATOM     25  H   UNL     1      -5.229  15.761  25.805  0.00  0.00    +0.000 HD
ENDBRANCH  18  23
ENDBRANCH   3  13
BRANCH  10  26
ATOM     26  N   UNL     1       2.871   6.507  18.522  0.00  0.00    +0.000 N 
ATOM     27  C   UNL     1       2.197   5.280  18.067  0.00  0.00    +0.000 C 
ATOM     28  C   UNL     1       3.252   4.197  17.757  0.00  0.00    +0.000 C 
ATOM     29  N   UNL     1       4.240   4.636  16.746  0.00  0.00    +0.000 NA
ATOM     30  C   UNL     1       5.243   3.593  16.541  0.00  0.00    +0.000 C 
ATOM     31  C   UNL     1       4.881   5.894  17.205  0.00  0.00    +0.000 C 
ATOM     32  C   UNL     1       3.863   7.014  17.552  0.00  0.00    +0.000 C 
ENDBRANCH  10  26
BRANCH   1  34
ATOM     33  C   UNL     1       2.356  12.713  18.375  0.00  0.00    +0.000 C 
ATOM     34  C   UNL     1       1.470  11.497  18.146  0.00  0.00    +0.000 C 
ENDBRANCH   1  34
TORSDOF 4
ENDMDL
MODEL 7
REMARK VINA RESULT:      -7.4      0.777      1.178
REMARK  Name = 
REMARK  6 active torsions:
REMARK  status: ('A' for Active; 'I' for Inactive)
REMARK    1  A    between atoms: C_1  and  C_2
REMARK    2  A    between atoms: C_2  and  N_3
REMARK    3  A    between atoms: C_5  and  C_6
REMARK    4  A    between atoms: C_11  and  N_12
REMARK    5  A    between atoms: C_22  and  N_23
REMARK    6  A    between atoms: N_26  and  C_27
REMARK                            x       y       z     vdW  Elec       q    Type
REMARK                         _______ _______ _______ _____ _____    ______ ____
ROOT
ATOM      1  N   UNL     1      -1.337  11.104  18.898  0.00  0.00    +0.000 N 
ATOM      2  C   UNL     1      -0.290  10.216  18.743  0.00  0.00    +0.000 A 
ATOM      3  C   UNL     1       0.602   9.838  19.668  0.00  0.00    +0.000 A 
ATOM      4  C   UNL     1       0.464  10.447  21.014  0.00  0.00    +0.000 A 
ATOM      5  O   UNL     1       1.277  10.212  21.907  0.00  0.00    +0.000 OA
ATOM      6  C   UNL     1      -0.695  11.365  21.233  0.00  0.00    +0.000 A 
ATOM      7  C   UNL     1      -0.896  11.908  22.505  0.00  0.00    +0.000 A 
ATOM      8  C   UNL     1      -1.944  12.801  22.718  0.00  0.00    +0.000 A 
ATOM      9  F   UNL     1      -2.064  13.352  23.938  0.00  0.00    +0.000 F 
ATOM     10  C   UNL     1      -2.811  13.199  21.679  0.00  0.00    +0.000 A 
ATOM     11  C   UNL     1      -2.596  12.600  20.425  0.00  0.00    +0.000 A 
ATOM     12  C   UNL     1      -1.554  11.683  20.164  0.00  0.00    +0.000 A 
ENDROOT
BRANCH   3  13
ATOM     13  C   UNL     1       1.532   8.831  19.315  0.00  0.00    +0.000 A 
ATOM     14  N   UNL     1       2.294   8.789  18.239  0.00  0.00    +0.000 NA
ATOM     15  C   UNL     1       2.908   7.574  18.263  0.00  0.00    +0.000 A 
ATOM     16  C   UNL     1       3.676   6.966  17.270  0.00  0.00    +0.000 A 
ATOM     17  C   UNL     1       4.195   5.693  17.521  0.00  0.00    +0.000 A 
ATOM     18  C   UNL     1       4.011   5.062  18.758  0.00  0.00    +0.000 A 
ATOM     19  C   UNL     1       3.285   5.701  19.782  0.00  0.00    +0.000 A 
ATOM     20  C   UNL     1       2.667   6.915  19.460  0.00  0.00    +0.000 A 
ATOM     21  N   UNL     1       1.722   7.704  20.086  0.00  0.00    +0.000 N 
ATOM     22  H   UNL     1       1.171   7.453  20.897  0.00  0.00    +0.000 HD
BRANCH  18  23
ATOM     23  N   UNL     1       4.729   3.887  19.028  0.00  0.00    +0.000 N 
ATOM     24  H   UNL     1       5.199   3.505  18.212  0.00  0.00    +0.000 HD
ATOM     25  H   UNL     1       4.214   3.186  19.548  0.00  0.00    +0.000 HD
ENDBRANCH  18  23
ENDBRANCH   3  13
BRANCH  10  26
ATOM     26  N   UNL     1      -3.762  14.196  21.861  0.00  0.00    +0.000 N 
ATOM     27  C   UNL     1      -5.000  13.934  22.613  0.00  0.00    +0.000 C 
ATOM     28  C   UNL     1      -6.123  14.860  22.097  0.00  0.00    +0.000 C 
ATOM     29  N   UNL     1      -5.767  16.293  22.192  0.00  0.00    +0.000 NA
ATOM     30  C   UNL     1      -6.842  17.113  21.634  0.00  0.00    +0.000 C 
ATOM     31  C   UNL     1      -4.497  16.530  21.461  0.00  0.00    +0.000 C 
ATOM     32  C   UNL     1      -3.337  15.609  21.925  0.00  0.00    +0.000 C 
ENDBRANCH  10  26
BRANCH   1  34
ATOM     33  C   UNL     1      -2.233  10.309  16.755  0.00  0.00    +0.000 C 
ATOM     34  C   UNL     1      -2.163  11.470  17.735  0.00  0.00    +0.000 C 
ENDBRANCH   1  34
TORSDOF 4
ENDMDL
MODEL 8
REMARK VINA RESULT:      -7.4      3.254      9.977
REMARK  Name = 
REMARK  6 active torsions:
REMARK  status: ('A' for Active; 'I' for Inactive)
REMARK    1  A    between atoms: C_1  and  C_2
REMARK    2  A    between atoms: C_2  and  N_3
REMARK    3  A    between atoms: C_5  and  C_6
REMARK    4  A    between atoms: C_11  and  N_12
REMARK    5  A    between atoms: C_22  and  N_23
REMARK    6  A    between atoms: N_26  and  C_27
REMARK                            x       y       z     vdW  Elec       q    Type
REMARK                         _______ _______ _______ _____ _____    ______ ____
ROOT
ATOM      1  N   UNL     1       0.310   9.570  20.840  0.00  0.00    +0.000 N 
ATOM      2  C   UNL     1       0.060  10.924  20.722  0.00  0.00    +0.000 A 
ATOM      3  C   UNL     1       0.552  11.768  19.805  0.00  0.00    +0.000 A 
ATOM      4  C   UNL     1       1.483  11.193  18.803  0.00  0.00    +0.000 A 
ATOM      5  O   UNL     1       2.037  11.903  17.966  0.00  0.00    +0.000 OA
ATOM      6  C   UNL     1       1.729   9.720  18.865  0.00  0.00    +0.000 A 
ATOM      7  C   UNL     1       2.549   9.130  17.899  0.00  0.00    +0.000 A 
ATOM      8  C   UNL     1       2.825   7.766  17.965  0.00  0.00    +0.000 A 
ATOM      9  F   UNL     1       3.672   7.250  17.058  0.00  0.00    +0.000 F 
ATOM     10  C   UNL     1       2.317   6.949  18.996  0.00  0.00    +0.000 A 
ATOM     11  C   UNL     1       1.466   7.575  19.925  0.00  0.00    +0.000 A 
ATOM     12  C   UNL     1       1.150   8.951  19.893  0.00  0.00    +0.000 A 
ENDROOT
BRANCH   3  13
ATOM     13  C   UNL     1       0.074  13.100  19.811  0.00  0.00    +0.000 A 
ATOM     14  N   UNL     1      -0.671  13.677  20.734  0.00  0.00    +0.000 NA
ATOM     15  C   UNL     1      -0.993  14.904  20.241  0.00  0.00    +0.000 A 
ATOM     16  C   UNL     1      -1.902  15.836  20.744  0.00  0.00    +0.000 A 
ATOM     17  C   UNL     1      -2.077  17.033  20.046  0.00  0.00    +0.000 A 
ATOM     18  C   UNL     1      -1.318  17.331  18.907  0.00  0.00    +0.000 A 
ATOM     19  C   UNL     1      -0.358  16.417  18.433  0.00  0.00    +0.000 A 
ATOM     20  C   UNL     1      -0.295  15.173  19.071  0.00  0.00    +0.000 A 
ATOM     21  N   UNL     1       0.324  13.974  18.775  0.00  0.00    +0.000 N 
ATOM     22  H   UNL     1       0.774  13.730  17.902  0.00  0.00    +0.000 HD
BRANCH  18  23
ATOM     23  N   UNL     1      -1.382  18.629  18.375  0.00  0.00    +0.000 N 
ATOM     24  H   UNL     1      -0.567  19.195  18.594  0.00  0.00    +0.000 HD
ATOM     25  H   UNL     1      -2.255  19.114  18.546  0.00  0.00    +0.000 HD
ENDBRANCH  18  23
ENDBRANCH   3  13
BRANCH  10  26
ATOM     26  N   UNL     1       2.711   5.623  19.141  0.00  0.00    +0.000 N 
ATOM     27  C   UNL     1       4.108   5.278  19.448  0.00  0.00    +0.000 C 
ATOM     28  C   UNL     1       4.430   3.879  18.878  0.00  0.00    +0.000 C 
ATOM     29  N   UNL     1       3.523   2.831  19.396  0.00  0.00    +0.000 NA
ATOM     30  C   UNL     1       3.839   1.544  18.776  0.00  0.00    +0.000 C 
ATOM     31  C   UNL     1       2.118   3.216  19.112  0.00  0.00    +0.000 C 
ATOM     32  C   UNL     1       1.745   4.626  19.645  0.00  0.00    +0.000 C 
ENDBRANCH  10  26
BRANCH   1  34
ATOM     33  C   UNL     1      -0.177   9.655  23.244  0.00  0.00    +0.000 C 
ATOM     34  C   UNL     1      -0.250   8.819  21.975  0.00  0.00    +0.000 C 
ENDBRANCH   1  34
TORSDOF 4
ENDMDL
MODEL 9
REMARK VINA RESULT:      -7.4      1.953      2.672
REMARK  Name = 
REMARK  6 active torsions:
REMARK  status: ('A' for Active; 'I' for Inactive)
REMARK    1  A    between atoms: C_1  and  C_2
REMARK    2  A    between atoms: C_2  and  N_3
REMARK    3  A    between atoms: C_5  and  C_6
REMARK    4  A    between atoms: C_11  and  N_12
REMARK    5  A    between atoms: C_22  and  N_23
REMARK    6  A    between atoms: N_26  and  C_27
REMARK                            x       y       z     vdW  Elec       q    Type
REMARK                         _______ _______ _______ _____ _____    ______ ____
ROOT
ATOM      1  N   UNL     1       1.135  10.673  18.768  0.00  0.00    +0.000 N 
ATOM      2  C   UNL     1       1.846   9.567  18.345  0.00  0.00    +0.000 A 
ATOM      3  C   UNL     1       1.997   8.400  18.986  0.00  0.00    +0.000 A 
ATOM      4  C   UNL     1       1.338   8.278  20.309  0.00  0.00    +0.000 A 
ATOM      5  O   UNL     1       1.477   7.270  21.001  0.00  0.00    +0.000 OA
ATOM      6  C   UNL     1       0.510   9.434  20.770  0.00  0.00    +0.000 A 
ATOM      7  C   UNL     1      -0.181   9.332  21.981  0.00  0.00    +0.000 A 
ATOM      8  C   UNL     1      -0.921  10.415  22.449  0.00  0.00    +0.000 A 
ATOM      9  F   UNL     1      -1.515  10.300  23.649  0.00  0.00    +0.000 F 
ATOM     10  C   UNL     1      -0.987  11.635  21.746  0.00  0.00    +0.000 A 
ATOM     11  C   UNL     1      -0.310  11.682  20.515  0.00  0.00    +0.000 A 
ATOM     12  C   UNL     1       0.446  10.608  19.995  0.00  0.00    +0.000 A 
ENDROOT
BRANCH   3  13
ATOM     13  C   UNL     1       2.686   7.363  18.314  0.00  0.00    +0.000 A 
ATOM     14  N   UNL     1       2.400   6.075  18.326  0.00  0.00    +0.000 NA
ATOM     15  C   UNL     1       3.415   5.461  17.658  0.00  0.00    +0.000 A 
ATOM     16  C   UNL     1       3.682   4.096  17.542  0.00  0.00    +0.000 A 
ATOM     17  C   UNL     1       4.804   3.702  16.810  0.00  0.00    +0.000 A 
ATOM     18  C   UNL     1       5.611   4.638  16.151  0.00  0.00    +0.000 A 
ATOM     19  C   UNL     1       5.308   6.011  16.219  0.00  0.00    +0.000 A 
ATOM     20  C   UNL     1       4.258   6.389  17.064  0.00  0.00    +0.000 A 
ATOM     21  N   UNL     1       3.816   7.600  17.560  0.00  0.00    +0.000 N 
ATOM     22  H   UNL     1       4.296   8.488  17.494  0.00  0.00    +0.000 HD
BRANCH  18  23
ATOM     23  N   UNL     1       6.592   4.174  15.261  0.00  0.00    +0.000 N 
ATOM     24  H   UNL     1       7.428   4.751  15.247  0.00  0.00    +0.000 HD
ATOM     25  H   UNL     1       6.253   3.952  14.333  0.00  0.00    +0.000 HD
ENDBRANCH  18  23
ENDBRANCH   3  13
BRANCH  10  26
ATOM     26  N   UNL     1      -1.607  12.758  22.284  0.00  0.00    +0.000 N 
ATOM     27  C   UNL     1      -3.065  12.796  22.482  0.00  0.00    +0.000 C 
ATOM     28  C   UNL     1      -3.559  14.256  22.395  0.00  0.00    +0.000 C 
ATOM     29  N   UNL     1      -2.891  15.142  23.374  0.00  0.00    +0.000 NA
ATOM     30  C   UNL     1      -3.357  16.518  23.202  0.00  0.00    +0.000 C 
ATOM     31  C   UNL     1      -1.421  15.061  23.184  0.00  0.00    +0.000 C 
ATOM     32  C   UNL     1      -0.872  13.610  23.241  0.00  0.00    +0.000 C 
ENDBRANCH  10  26
BRANCH   1  34
ATOM     33  C   UNL     1       2.427  12.697  18.259  0.00  0.00    +0.000 C 
ATOM     34  C   UNL     1       1.159  11.908  17.967  0.00  0.00    +0.000 C 
ENDBRANCH   1  34
TORSDOF 4
ENDMDL
