MODEL 1
REMARK VINA RESULT:      -7.1      0.000      0.000
REMARK  Name = 
REMARK  6 active torsions:
REMARK  status: ('A' for Active; 'I' for Inactive)
REMARK    1  A    between atoms: C_1  and  C_2
REMARK    2  A    between atoms: C_4  and  S_5
REMARK    3  A    between atoms: S_5  and  N_8
REMARK    4  A    between atoms: C_9  and  C_11
REMARK    5  A    between atoms: C_11  and  C_12
REMARK    6  A    between atoms: C_16  and  C_17
REMARK                            x       y       z     vdW  Elec       q    Type
REMARK                         _______ _______ _______ _____ _____    ______ ____
ROOT
ATOM      1  S   UNL     1       4.740   5.609  18.572  0.00  0.00    +0.000 S 
ATOM      2  O   UNL     1       5.698   5.567  19.650  0.00  0.00    +0.000 OA
ATOM      3  O   UNL     1       3.980   6.802  18.270  0.00  0.00    +0.000 OA
ENDROOT
BRANCH   1   7
ATOM      4  C   UNL     1       6.386   4.002  13.762  0.00  0.00    +0.000 C 
ATOM      5  C   UNL     1       6.213   4.573  15.112  0.00  0.00    +0.000 A 
ATOM      6  C   UNL     1       5.291   4.372  16.117  0.00  0.00    +0.000 A 
ATOM      7  C   UNL     1       5.619   5.302  17.132  0.00  0.00    +0.000 A 
ATOM      8  C   UNL     1       6.742   5.981  16.711  0.00  0.00    +0.000 A 
ATOM      9  C   UNL     1       7.565   7.069  17.276  0.00  0.00    +0.000 C 
ATOM     10  O   UNL     1       7.107   5.535  15.475  0.00  0.00    +0.000 OA
ENDBRANCH   1   7
BRANCH   1  11
ATOM     11  N   UNL     1       3.623   4.390  18.760  0.00  0.00    +0.000 N 
ATOM     12  C   UNL     1       2.718   4.320  19.830  0.00  0.00    +0.000 C 
ATOM     13  O   UNL     1       2.688   5.198  20.691  0.00  0.00    +0.000 OA
ATOM     14  H   UNL     1       3.831   3.580  18.182  0.00  0.00    +0.000 HD
BRANCH  12  15
ATOM     15  C   UNL     1       1.820   3.043  19.856  0.00  0.00    +0.000 C 
ATOM     16  C   UNL     1       1.373   2.671  21.273  0.00  0.00    +0.000 C 
ATOM     17  C   UNL     1       2.390   1.844  19.070  0.00  0.00    +0.000 C 
ATOM     18  O   UNL     1       1.430   2.055  18.002  0.00  0.00    +0.000 OA
ATOM     19  C   UNL     1       0.655   2.933  18.853  0.00  0.00    +0.000 C 
ENDBRANCH  12  15
ENDBRANCH   1  11
TORSDOF 3
ENDMDL
MODEL 2
REMARK VINA RESULT:      -6.9      1.738      6.016
REMARK  Name = 
REMARK  6 active torsions:
REMARK  status: ('A' for Active; 'I' for Inactive)
REMARK    1  A    between atoms: C_1  and  C_2
REMARK    2  A    between atoms: C_4  and  S_5
REMARK    3  A    between atoms: S_5  and  N_8
REMARK    4  A    between atoms: C_9  and  C_11
REMARK    5  A    between atoms: C_11  and  C_12
REMARK    6  A    between atoms: C_16  and  C_17
REMARK                            x       y       z     vdW  Elec       q    Type
REMARK                         _______ _______ _______ _____ _____    ______ ____
ROOT
ATOM      1  S   UNL     1       4.032   2.980  19.033  0.00  0.00    +0.000 S 
ATOM      2  O   UNL     1       4.971   2.445  19.990  0.00  0.00    +0.000 OA
ATOM      3  O   UNL     1       3.065   2.141  18.361  0.00  0.00    +0.000 OA
ENDROOT
BRANCH   1   7
ATOM      4  C   UNL     1       1.419   7.323  20.686  0.00  0.00    +0.000 C 
ATOM      5  C   UNL     1       2.029   5.993  20.487  0.00  0.00    +0.000 A 
ATOM      6  C   UNL     1       3.024   5.519  19.660  0.00  0.00    +0.000 A 
ATOM      7  C   UNL     1       3.075   4.122  19.881  0.00  0.00    +0.000 A 
ATOM      8  C   UNL     1       2.147   3.832  20.856  0.00  0.00    +0.000 A 
ATOM      9  C   UNL     1       1.695   2.592  21.518  0.00  0.00    +0.000 C 
ATOM     10  O   UNL     1       1.506   4.977  21.229  0.00  0.00    +0.000 OA
ENDBRANCH   1   7
BRANCH   1  11
ATOM     11  N   UNL     1       4.851   3.788  17.830  0.00  0.00    +0.000 N 
ATOM     12  C   UNL     1       5.957   4.619  18.062  0.00  0.00    +0.000 C 
ATOM     13  O   UNL     1       6.406   4.771  19.198  0.00  0.00    +0.000 OA
ATOM     14  H   UNL     1       4.322   3.832  16.963  0.00  0.00    +0.000 HD
BRANCH  12  15
ATOM     15  C   UNL     1       6.515   5.348  16.799  0.00  0.00    +0.000 C 
ATOM     16  C   UNL     1       7.405   6.541  17.159  0.00  0.00    +0.000 C 
ATOM     17  C   UNL     1       5.451   5.688  15.735  0.00  0.00    +0.000 C 
ATOM     18  O   UNL     1       5.927   4.618  14.880  0.00  0.00    +0.000 OA
ATOM     19  C   UNL     1       7.137   4.506  15.668  0.00  0.00    +0.000 C 
ENDBRANCH  12  15
ENDBRANCH   1  11
TORSDOF 3
ENDMDL
MODEL 3
REMARK VINA RESULT:      -6.8      1.979      6.090
REMARK  Name = 
REMARK  6 active torsions:
REMARK  status: ('A' for Active; 'I' for Inactive)
REMARK    1  A    between atoms: C_1  and  C_2
REMARK    2  A    between atoms: C_4  and  S_5
REMARK    3  A    between atoms: S_5  and  N_8
REMARK    4  A    between atoms: C_9  and  C_11
REMARK    5  A    between atoms: C_11  and  C_12
REMARK    6  A    between atoms: C_16  and  C_17
REMARK                            x       y       z     vdW  Elec       q    Type
REMARK                         _______ _______ _______ _____ _____    ______ ____
ROOT
ATOM      1  S   UNL     1       4.187   2.835  19.379  0.00  0.00    +0.000 S 
ATOM      2  O   UNL     1       4.802   2.198  20.519  0.00  0.00    +0.000 OA
ATOM      3  O   UNL     1       3.336   2.108  18.464  0.00  0.00    +0.000 OA
ENDROOT
BRANCH   1   7
ATOM      4  C   UNL     1       1.632   7.396  20.429  0.00  0.00    +0.000 C 
ATOM      5  C   UNL     1       2.166   6.021  20.370  0.00  0.00    +0.000 A 
ATOM      6  C   UNL     1       3.269   5.456  19.766  0.00  0.00    +0.000 A 
ATOM      7  C   UNL     1       3.168   4.065  20.005  0.00  0.00    +0.000 A 
ATOM      8  C   UNL     1       2.043   3.867  20.774  0.00  0.00    +0.000 A 
ATOM      9  C   UNL     1       1.373   2.679  21.341  0.00  0.00    +0.000 C 
ATOM     10  O   UNL     1       1.429   5.063  21.000  0.00  0.00    +0.000 OA
ENDBRANCH   1   7
BRANCH   1  11
ATOM     11  N   UNL     1       5.352   3.564  18.441  0.00  0.00    +0.000 N 
ATOM     12  C   UNL     1       5.121   4.041  17.142  0.00  0.00    +0.000 C 
ATOM     13  O   UNL     1       4.004   3.967  16.630  0.00  0.00    +0.000 OA
ATOM     14  H   UNL     1       6.292   3.395  18.789  0.00  0.00    +0.000 HD
BRANCH  12  15
ATOM     15  C   UNL     1       6.379   4.607  16.411  0.00  0.00    +0.000 C 
ATOM     16  C   UNL     1       6.490   4.108  14.967  0.00  0.00    +0.000 C 
ATOM     17  C   UNL     1       7.696   4.465  17.201  0.00  0.00    +0.000 C 
ATOM     18  O   UNL     1       7.691   5.881  17.515  0.00  0.00    +0.000 OA
ATOM     19  C   UNL     1       6.679   6.116  16.507  0.00  0.00    +0.000 C 
ENDBRANCH  12  15
ENDBRANCH   1  11
TORSDOF 3
ENDMDL
MODEL 4
REMARK VINA RESULT:      -6.8      1.949      6.066
REMARK  Name = 
REMARK  6 active torsions:
REMARK  status: ('A' for Active; 'I' for Inactive)
REMARK    1  A    between atoms: C_1  and  C_2
REMARK    2  A    between atoms: C_4  and  S_5
REMARK    3  A    between atoms: S_5  and  N_8
REMARK    4  A    between atoms: C_9  and  C_11
REMARK    5  A    between atoms: C_11  and  C_12
REMARK    6  A    between atoms: C_16  and  C_17
REMARK                            x       y       z     vdW  Elec       q    Type
REMARK                         _______ _______ _______ _____ _____    ______ ____
ROOT
ATOM      1  S   UNL     1       4.204   2.816  19.439  0.00  0.00    +0.000 S 
ATOM      2  O   UNL     1       4.759   2.134  20.584  0.00  0.00    +0.000 OA
ATOM      3  O   UNL     1       3.394   2.127  18.458  0.00  0.00    +0.000 OA
ENDROOT
BRANCH   1   7
ATOM      4  C   UNL     1       1.580   7.341  20.474  0.00  0.00    +0.000 C 
ATOM      5  C   UNL     1       2.133   5.973  20.417  0.00  0.00    +0.000 A 
ATOM      6  C   UNL     1       3.249   5.424  19.822  0.00  0.00    +0.000 A 
ATOM      7  C   UNL     1       3.163   4.031  20.057  0.00  0.00    +0.000 A 
ATOM      8  C   UNL     1       2.034   3.817  20.816  0.00  0.00    +0.000 A 
ATOM      9  C   UNL     1       1.374   2.619  21.374  0.00  0.00    +0.000 C 
ATOM     10  O   UNL     1       1.402   5.005  21.037  0.00  0.00    +0.000 OA
ENDBRANCH   1   7
BRANCH   1  11
ATOM     11  N   UNL     1       5.418   3.567  18.584  0.00  0.00    +0.000 N 
ATOM     12  C   UNL     1       5.245   4.121  17.306  0.00  0.00    +0.000 C 
ATOM     13  O   UNL     1       4.146   4.102  16.753  0.00  0.00    +0.000 OA
ATOM     14  H   UNL     1       6.341   3.358  18.955  0.00  0.00    +0.000 HD
BRANCH  12  15
ATOM     15  C   UNL     1       6.540   4.697  16.653  0.00  0.00    +0.000 C 
ATOM     16  C   UNL     1       7.777   4.500  17.537  0.00  0.00    +0.000 C 
ATOM     17  C   UNL     1       6.403   6.139  16.122  0.00  0.00    +0.000 C 
ATOM     18  O   UNL     1       6.364   5.658  14.754  0.00  0.00    +0.000 OA
ATOM     19  C   UNL     1       6.844   4.360  15.181  0.00  0.00    +0.000 C 
ENDBRANCH  12  15
ENDBRANCH   1  11
TORSDOF 3
ENDMDL
MODEL 5
REMARK VINA RESULT:      -6.7      2.460      3.201
REMARK  Name = 
REMARK  6 active torsions:
REMARK  status: ('A' for Active; 'I' for Inactive)
REMARK    1  A    between atoms: C_1  and  C_2
REMARK    2  A    between atoms: C_4  and  S_5
REMARK    3  A    between atoms: S_5  and  N_8
REMARK    4  A    between atoms: C_9  and  C_11
REMARK    5  A    between atoms: C_11  and  C_12
REMARK    6  A    between atoms: C_16  and  C_17
REMARK                            x       y       z     vdW  Elec       q    Type
REMARK                         _______ _______ _______ _____ _____    ______ ____
ROOT
ATOM      1  S   UNL     1       6.741   5.007  16.036  0.00  0.00    +0.000 S 
ATOM      2  O   UNL     1       7.960   4.425  16.544  0.00  0.00    +0.000 OA
ATOM      3  O   UNL     1       6.570   6.438  15.915  0.00  0.00    +0.000 OA
ENDROOT
BRANCH   1   7
ATOM      4  C   UNL     1       5.015   2.819  11.491  0.00  0.00    +0.000 C 
ATOM      5  C   UNL     1       5.750   3.482  12.586  0.00  0.00    +0.000 A 
ATOM      6  C   UNL     1       5.561   3.554  13.950  0.00  0.00    +0.000 A 
ATOM      7  C   UNL     1       6.562   4.430  14.431  0.00  0.00    +0.000 A 
ATOM      8  C   UNL     1       7.329   4.803  13.349  0.00  0.00    +0.000 A 
ATOM      9  C   UNL     1       8.492   5.693  13.163  0.00  0.00    +0.000 C 
ATOM     10  O   UNL     1       6.833   4.223  12.219  0.00  0.00    +0.000 OA
ENDBRANCH   1   7
BRANCH   1  11
ATOM     11  N   UNL     1       5.442   4.465  16.924  0.00  0.00    +0.000 N 
ATOM     12  C   UNL     1       5.435   4.381  18.324  0.00  0.00    +0.000 C 
ATOM     13  O   UNL     1       6.409   4.742  18.984  0.00  0.00    +0.000 OA
ATOM     14  H   UNL     1       4.766   3.962  16.355  0.00  0.00    +0.000 HD
BRANCH  12  15
ATOM     15  C   UNL     1       4.144   3.760  18.944  0.00  0.00    +0.000 C 
ATOM     16  C   UNL     1       3.298   4.797  19.690  0.00  0.00    +0.000 C 
ATOM     17  C   UNL     1       4.382   2.474  19.762  0.00  0.00    +0.000 C 
ATOM     18  O   UNL     1       3.822   1.663  18.698  0.00  0.00    +0.000 OA
ATOM     19  C   UNL     1       3.266   2.843  18.071  0.00  0.00    +0.000 C 
ENDBRANCH  12  15
ENDBRANCH   1  11
TORSDOF 3
ENDMDL
MODEL 6
REMARK VINA RESULT:      -6.7      1.166      1.543
REMARK  Name = 
REMARK  6 active torsions:
REMARK  status: ('A' for Active; 'I' for Inactive)
REMARK    1  A    between atoms: C_1  and  C_2
REMARK    2  A    between atoms: C_4  and  S_5
REMARK    3  A    between atoms: S_5  and  N_8
REMARK    4  A    between atoms: C_9  and  C_11
REMARK    5  A    between atoms: C_11  and  C_12
REMARK    6  A    between atoms: C_16  and  C_17
REMARK                            x       y       z     vdW  Elec       q    Type
REMARK                         _______ _______ _______ _____ _____    ______ ____
ROOT
ATOM      1  S   UNL     1       5.661   5.252  19.030  0.00  0.00    +0.000 S 
ATOM      2  O   UNL     1       6.783   5.108  19.926  0.00  0.00    +0.000 OA
ATOM      3  O   UNL     1       4.798   6.412  19.066  0.00  0.00    +0.000 OA
ENDROOT
BRANCH   1   7
ATOM      4  C   UNL     1       6.766   4.368  13.889  0.00  0.00    +0.000 C 
ATOM      5  C   UNL     1       6.695   4.814  15.295  0.00  0.00    +0.000 A 
ATOM      6  C   UNL     1       6.067   4.319  16.418  0.00  0.00    +0.000 A 
ATOM      7  C   UNL     1       6.308   5.265  17.442  0.00  0.00    +0.000 A 
ATOM      8  C   UNL     1       7.102   6.253  16.902  0.00  0.00    +0.000 A 
ATOM      9  C   UNL     1       7.683   7.510  17.416  0.00  0.00    +0.000 C 
ATOM     10  O   UNL     1       7.340   5.978  15.588  0.00  0.00    +0.000 OA
ENDBRANCH   1   7
BRANCH   1  11
ATOM     11  N   UNL     1       4.657   3.932  19.163  0.00  0.00    +0.000 N 
ATOM     12  C   UNL     1       3.339   3.902  18.684  0.00  0.00    +0.000 C 
ATOM     13  O   UNL     1       2.857   4.872  18.098  0.00  0.00    +0.000 OA
ATOM     14  H   UNL     1       4.993   3.256  19.844  0.00  0.00    +0.000 HD
BRANCH  12  15
ATOM     15  C   UNL     1       2.550   2.592  18.996  0.00  0.00    +0.000 C 
ATOM     16  C   UNL     1       3.310   1.335  18.560  0.00  0.00    +0.000 C 
ATOM     17  C   UNL     1       1.081   2.602  18.524  0.00  0.00    +0.000 C 
ATOM     18  O   UNL     1       0.617   2.774  19.888  0.00  0.00    +0.000 OA
ATOM     19  C   UNL     1       1.926   2.414  20.393  0.00  0.00    +0.000 C 
ENDBRANCH  12  15
ENDBRANCH   1  11
TORSDOF 3
ENDMDL
MODEL 7
REMARK VINA RESULT:      -6.7      1.790      5.965
REMARK  Name = 
REMARK  6 active torsions:
REMARK  status: ('A' for Active; 'I' for Inactive)
REMARK    1  A    between atoms: C_1  and  C_2
REMARK    2  A    between atoms: C_4  and  S_5
REMARK    3  A    between atoms: S_5  and  N_8
REMARK    4  A    between atoms: C_9  and  C_11
REMARK    5  A    between atoms: C_11  and  C_12
REMARK    6  A    between atoms: C_16  and  C_17
REMARK                            x       y       z     vdW  Elec       q    Type
REMARK                         _______ _______ _______ _____ _____    ______ ____
ROOT
ATOM      1  S   UNL     1       2.852   3.369  18.039  0.00  0.00    +0.000 S 
ATOM      2  O   UNL     1       3.137   2.155  18.767  0.00  0.00    +0.000 OA
ATOM      3  O   UNL     1       1.819   3.429  17.029  0.00  0.00    +0.000 OA
ENDROOT
BRANCH   1   7
ATOM      4  C   UNL     1       1.596   7.820  20.691  0.00  0.00    +0.000 C 
ATOM      5  C   UNL     1       1.873   6.447  20.224  0.00  0.00    +0.000 A 
ATOM      6  C   UNL     1       2.532   5.932  19.128  0.00  0.00    +0.000 A 
ATOM      7  C   UNL     1       2.364   4.529  19.203  0.00  0.00    +0.000 A 
ATOM      8  C   UNL     1       1.657   4.266  20.356  0.00  0.00    +0.000 A 
ATOM      9  C   UNL     1       1.145   3.040  21.000  0.00  0.00    +0.000 C 
ATOM     10  O   UNL     1       1.356   5.440  20.983  0.00  0.00    +0.000 OA
ENDBRANCH   1   7
BRANCH   1  11
ATOM     11  N   UNL     1       4.238   3.928  17.308  0.00  0.00    +0.000 N 
ATOM     12  C   UNL     1       5.441   4.160  17.992  0.00  0.00    +0.000 C 
ATOM     13  O   UNL     1       5.539   3.927  19.197  0.00  0.00    +0.000 OA
ATOM     14  H   UNL     1       4.060   4.328  16.391  0.00  0.00    +0.000 HD
BRANCH  12  15
ATOM     15  C   UNL     1       6.589   4.770  17.126  0.00  0.00    +0.000 C 
ATOM     16  C   UNL     1       7.970   4.559  17.755  0.00  0.00    +0.000 C 
ATOM     17  C   UNL     1       6.347   6.225  16.677  0.00  0.00    +0.000 C 
ATOM     18  O   UNL     1       6.054   5.786  15.325  0.00  0.00    +0.000 OA
ATOM     19  C   UNL     1       6.612   4.481  15.613  0.00  0.00    +0.000 C 
ENDBRANCH  12  15
ENDBRANCH   1  11
TORSDOF 3
ENDMDL
MODEL 8
REMARK VINA RESULT:      -6.7      1.790      6.109
REMARK  Name = 
REMARK  6 active torsions:
REMARK  status: ('A' for Active; 'I' for Inactive)
REMARK    1  A    between atoms: C_1  and  C_2
REMARK    2  A    between atoms: C_4  and  S_5
REMARK    3  A    between atoms: S_5  and  N_8
REMARK    4  A    between atoms: C_9  and  C_11
REMARK    5  A    between atoms: C_11  and  C_12
REMARK    6  A    between atoms: C_16  and  C_17
REMARK                            x       y       z     vdW  Elec       q    Type
REMARK                         _______ _______ _______ _____ _____    ______ ____
ROOT
ATOM      1  S   UNL     1       3.973   2.873  19.090  0.00  0.00    +0.000 S 
ATOM      2  O   UNL     1       4.905   2.341  20.055  0.00  0.00    +0.000 OA
ATOM      3  O   UNL     1       2.995   2.037  18.431  0.00  0.00    +0.000 OA
ENDROOT
BRANCH   1   7
ATOM      4  C   UNL     1       1.426   7.276  20.690  0.00  0.00    +0.000 C 
ATOM      5  C   UNL     1       2.013   5.934  20.506  0.00  0.00    +0.000 A 
ATOM      6  C   UNL     1       3.006   5.436  19.689  0.00  0.00    +0.000 A 
ATOM      7  C   UNL     1       3.030   4.040  19.922  0.00  0.00    +0.000 A 
ATOM      8  C   UNL     1       2.090   3.774  20.893  0.00  0.00    +0.000 A 
ATOM      9  C   UNL     1       1.610   2.548  21.561  0.00  0.00    +0.000 C 
ATOM     10  O   UNL     1       1.467   4.933  21.252  0.00  0.00    +0.000 OA
ENDBRANCH   1   7
BRANCH   1  11
ATOM     11  N   UNL     1       4.800   3.654  17.876  0.00  0.00    +0.000 N 
ATOM     12  C   UNL     1       5.910   4.485  18.096  0.00  0.00    +0.000 C 
ATOM     13  O   UNL     1       6.354   4.657  19.231  0.00  0.00    +0.000 OA
ATOM     14  H   UNL     1       4.276   3.683  17.005  0.00  0.00    +0.000 HD
BRANCH  12  15
ATOM     15  C   UNL     1       6.476   5.186  16.822  0.00  0.00    +0.000 C 
ATOM     16  C   UNL     1       7.104   4.192  15.839  0.00  0.00    +0.000 C 
ATOM     17  C   UNL     1       7.380   6.402  17.109  0.00  0.00    +0.000 C 
ATOM     18  O   UNL     1       6.328   7.313  16.698  0.00  0.00    +0.000 OA
ATOM     19  C   UNL     1       5.599   6.220  16.089  0.00  0.00    +0.000 C 
ENDBRANCH  12  15
ENDBRANCH   1  11
TORSDOF 3
ENDMDL
MODEL 9
REMARK VINA RESULT:      -6.6      2.364      3.191
REMARK  Name = 
REMARK  6 active torsions:
REMARK  status: ('A' for Active; 'I' for Inactive)
REMARK    1  A    between atoms: C_1  and  C_2
REMARK    2  A    between atoms: C_4  and  S_5
REMARK    3  A    between atoms: S_5  and  N_8
REMARK    4  A    between atoms: C_9  and  C_11
REMARK    5  A    between atoms: C_11  and  C_12
REMARK    6  A    between atoms: C_16  and  C_17
REMARK                            x       y       z     vdW  Elec       q    Type
REMARK                         _______ _______ _______ _____ _____    ______ ____
ROOT
ATOM      1  S   UNL     1       6.656   4.976  15.953  0.00  0.00    +0.000 S 
ATOM      2  O   UNL     1       7.894   4.463  16.491  0.00  0.00    +0.000 OA
ATOM      3  O   UNL     1       6.407   6.395  15.829  0.00  0.00    +0.000 OA
ENDROOT
BRANCH   1   7
ATOM      4  C   UNL     1       5.160   2.728  11.356  0.00  0.00    +0.000 C 
ATOM      5  C   UNL     1       5.835   3.417  12.474  0.00  0.00    +0.000 A 
ATOM      6  C   UNL     1       5.599   3.481  13.830  0.00  0.00    +0.000 A 
ATOM      7  C   UNL     1       6.551   4.394  14.344  0.00  0.00    +0.000 A 
ATOM      8  C   UNL     1       7.337   4.796  13.287  0.00  0.00    +0.000 A 
ATOM      9  C   UNL     1       8.472   5.729  13.137  0.00  0.00    +0.000 C 
ATOM     10  O   UNL     1       6.900   4.198  12.141  0.00  0.00    +0.000 OA
ENDBRANCH   1   7
BRANCH   1  11
ATOM     11  N   UNL     1       5.369   4.358  16.807  0.00  0.00    +0.000 N 
ATOM     12  C   UNL     1       5.369   4.182  18.199  0.00  0.00    +0.000 C 
ATOM     13  O   UNL     1       6.340   4.514  18.878  0.00  0.00    +0.000 OA
ATOM     14  H   UNL     1       4.697   3.885  16.209  0.00  0.00    +0.000 HD
BRANCH  12  15
ATOM     15  C   UNL     1       4.089   3.504  18.781  0.00  0.00    +0.000 C 
ATOM     16  C   UNL     1       4.397   2.615  19.990  0.00  0.00    +0.000 C 
ATOM     17  C   UNL     1       3.201   2.806  17.731  0.00  0.00    +0.000 C 
ATOM     18  O   UNL     1       2.225   3.878  17.806  0.00  0.00    +0.000 OA
ATOM     19  C   UNL     1       2.835   4.367  19.025  0.00  0.00    +0.000 C 
ENDBRANCH  12  15
ENDBRANCH   1  11
TORSDOF 3
ENDMDL
