MODEL 1
REMARK VINA RESULT:      -7.5      0.000      0.000
REMARK  Name = 
REMARK  6 active torsions:
REMARK  status: ('A' for Active; 'I' for Inactive)
REMARK    1  A    between atoms: C_1  and  N_2
REMARK    2  A    between atoms: N_5  and  C_6
REMARK    3  A    between atoms: C_6  and  C_7
REMARK    4  A    between atoms: C_7  and  N_8
REMARK    5  A    between atoms: N_11  and  C_12
REMARK    6  A    between atoms: C_14  and  C_15
REMARK                            x       y       z     vdW  Elec       q    Type
REMARK                         _______ _______ _______ _____ _____    ______ ____
ROOT
ATOM      1  C   UNL     1       0.481   8.862  19.606  0.00  0.00    +0.000 C 
ATOM      2  C   UNL     1       0.255   9.811  18.383  0.00  0.00    +0.000 C 
ATOM      3  C   UNL     1      -0.309  11.169  18.853  0.00  0.00    +0.000 C 
ATOM      4  C   UNL     1      -0.594  10.925  20.305  0.00  0.00    +0.000 A 
ATOM      5  C   UNL     1      -1.162  11.843  21.190  0.00  0.00    +0.000 A 
ATOM      6  C   UNL     1      -1.254  11.503  22.534  0.00  0.00    +0.000 A 
ATOM      7 CL   UNL     1      -1.849  12.651  23.669  0.00  0.00    +0.000 Cl
ATOM      8  C   UNL     1      -0.858  10.239  22.971  0.00  0.00    +0.000 A 
ATOM      9  C   UNL     1      -0.364   9.302  22.058  0.00  0.00    +0.000 A 
ATOM     10  C   UNL     1      -0.163   9.666  20.727  0.00  0.00    +0.000 A 
ENDROOT
BRANCH   3  11
ATOM     11  C   UNL     1       0.615  12.356  18.647  0.00  0.00    +0.000 A 
ATOM     12  C   UNL     1       0.109  13.665  18.722  0.00  0.00    +0.000 A 
ATOM     13  C   UNL     1       0.970  14.761  18.644  0.00  0.00    +0.000 A 
ATOM     14  C   UNL     1       2.335  14.553  18.490  0.00  0.00    +0.000 A 
ATOM     15  F   UNL     1       3.161  15.606  18.437  0.00  0.00    +0.000 F 
ATOM     16  C   UNL     1       2.856  13.270  18.402  0.00  0.00    +0.000 A 
ATOM     17  C   UNL     1       1.999  12.173  18.474  0.00  0.00    +0.000 A 
ENDBRANCH   3  11
BRANCH   1  21
ATOM     18  N   UNL     1       2.121   5.472  19.370  0.00  0.00    +0.000 NA
ATOM     19  C   UNL     1       1.494   6.106  20.550  0.00  0.00    +0.000 C 
ATOM     20  C   UNL     1       2.102   7.487  20.897  0.00  0.00    +0.000 C 
ATOM     21  N   UNL     1       1.908   8.497  19.826  0.00  0.00    +0.000 NA
ATOM     22  C   UNL     1       2.566   7.908  18.628  0.00  0.00    +0.000 C 
ATOM     23  C   UNL     1       2.131   6.457  18.258  0.00  0.00    +0.000 C 
BRANCH  18  24
ATOM     24  C   UNL     1       3.491   4.989  19.657  0.00  0.00    +0.000 C 
BRANCH  24  25
ATOM     25  C   UNL     1       4.108   4.105  18.547  0.00  0.00    +0.000 C 
BRANCH  25  30
ATOM     26  C   UNL     1       7.937   7.106  18.180  0.00  0.00    +0.000 C 
ATOM     27  N   UNL     1       7.006   6.103  17.738  0.00  0.00    +0.000 N 
ATOM     28  C   UNL     1       6.463   6.045  16.399  0.00  0.00    +0.000 C 
ATOM     29  C   UNL     1       5.098   5.411  16.607  0.00  0.00    +0.000 C 
ATOM     30  N   UNL     1       5.231   4.734  17.880  0.00  0.00    +0.000 N 
ATOM     31  C   UNL     1       6.293   5.289  18.610  0.00  0.00    +0.000 C 
ATOM     32  O   UNL     1       6.500   5.146  19.802  0.00  0.00    +0.000 OA
ENDBRANCH  25  30
ENDBRANCH  24  25
ENDBRANCH  18  24
ENDBRANCH   1  21
TORSDOF 5
ENDMDL
MODEL 2
REMARK VINA RESULT:      -7.5      3.875      8.571
REMARK  Name = 
REMARK  6 active torsions:
REMARK  status: ('A' for Active; 'I' for Inactive)
REMARK    1  A    between atoms: C_1  and  N_2
REMARK    2  A    between atoms: N_5  and  C_6
REMARK    3  A    between atoms: C_6  and  C_7
REMARK    4  A    between atoms: C_7  and  N_8
REMARK    5  A    between atoms: N_11  and  C_12
REMARK    6  A    between atoms: C_14  and  C_15
REMARK                            x       y       z     vdW  Elec       q    Type
REMARK                         _______ _______ _______ _____ _____    ______ ____
ROOT
ATOM      1  C   UNL     1       4.222   4.011  17.227  0.00  0.00    +0.000 C 
ATOM      2  C   UNL     1       5.350   4.227  18.290  0.00  0.00    +0.000 C 
ATOM      3  C   UNL     1       6.673   4.618  17.597  0.00  0.00    +0.000 C 
ATOM      4  C   UNL     1       6.356   4.428  16.144  0.00  0.00    +0.000 A 
ATOM      5  C   UNL     1       7.246   4.613  15.085  0.00  0.00    +0.000 A 
ATOM      6  C   UNL     1       6.765   4.510  13.786  0.00  0.00    +0.000 A 
ATOM      7 CL   UNL     1       7.808   4.837  12.457  0.00  0.00    +0.000 Cl
ATOM      8  C   UNL     1       5.438   4.150  13.551  0.00  0.00    +0.000 A 
ATOM      9  C   UNL     1       4.580   3.891  14.623  0.00  0.00    +0.000 A 
ATOM     10  C   UNL     1       5.017   4.099  15.931  0.00  0.00    +0.000 A 
ENDROOT
BRANCH   3  11
ATOM     11  C   UNL     1       7.162   6.025  17.893  0.00  0.00    +0.000 A 
ATOM     12  C   UNL     1       8.064   6.250  18.948  0.00  0.00    +0.000 A 
ATOM     13  C   UNL     1       8.604   7.521  19.156  0.00  0.00    +0.000 A 
ATOM     14  C   UNL     1       8.244   8.567  18.316  0.00  0.00    +0.000 A 
ATOM     15  F   UNL     1       8.780   9.779  18.505  0.00  0.00    +0.000 F 
ATOM     16  C   UNL     1       7.347   8.370  17.275  0.00  0.00    +0.000 A 
ATOM     17  C   UNL     1       6.802   7.104  17.067  0.00  0.00    +0.000 A 
ENDBRANCH   3  11
BRANCH   1  21
ATOM     18  N   UNL     1       2.569   5.348  20.344  0.00  0.00    +0.000 NA
ATOM     19  C   UNL     1       2.220   4.137  19.569  0.00  0.00    +0.000 C 
ATOM     20  C   UNL     1       1.924   4.431  18.078  0.00  0.00    +0.000 C 
ATOM     21  N   UNL     1       3.095   4.976  17.346  0.00  0.00    +0.000 NA
ATOM     22  C   UNL     1       3.449   6.224  18.077  0.00  0.00    +0.000 C 
ATOM     23  C   UNL     1       3.639   6.078  19.617  0.00  0.00    +0.000 C 
BRANCH  18  24
ATOM     24  C   UNL     1       1.397   6.224  20.571  0.00  0.00    +0.000 C 
BRANCH  24  25
ATOM     25  C   UNL     1       1.740   7.633  21.111  0.00  0.00    +0.000 C 
BRANCH  25  30
ATOM     26  C   UNL     1       0.283  11.668  18.789  0.00  0.00    +0.000 C 
ATOM     27  N   UNL     1       0.130  10.492  19.602  0.00  0.00    +0.000 N 
ATOM     28  C   UNL     1      -0.704  10.433  20.782  0.00  0.00    +0.000 C 
ATOM     29  C   UNL     1      -0.005   9.397  21.647  0.00  0.00    +0.000 C 
ATOM     30  N   UNL     1       0.789   8.646  20.698  0.00  0.00    +0.000 N 
ATOM     31  C   UNL     1       0.991   9.403  19.535  0.00  0.00    +0.000 C 
ATOM     32  O   UNL     1       1.823   9.188  18.671  0.00  0.00    +0.000 OA
ENDBRANCH  25  30
ENDBRANCH  24  25
ENDBRANCH  18  24
ENDBRANCH   1  21
TORSDOF 5
ENDMDL
MODEL 3
REMARK VINA RESULT:      -7.3      0.993      1.305
REMARK  Name = 
REMARK  6 active torsions:
REMARK  status: ('A' for Active; 'I' for Inactive)
REMARK    1  A    between atoms: C_1  and  N_2
REMARK    2  A    between atoms: N_5  and  C_6
REMARK    3  A    between atoms: C_6  and  C_7
REMARK    4  A    between atoms: C_7  and  N_8
REMARK    5  A    between atoms: N_11  and  C_12
REMARK    6  A    between atoms: C_14  and  C_15
REMARK                            x       y       z     vdW  Elec       q    Type
REMARK                         _______ _______ _______ _____ _____    ______ ____
ROOT
ATOM      1  C   UNL     1       0.459   8.940  19.595  0.00  0.00    +0.000 C 
ATOM      2  C   UNL     1       0.237   9.890  18.372  0.00  0.00    +0.000 C 
ATOM      3  C   UNL     1      -0.334  11.245  18.841  0.00  0.00    +0.000 C 
ATOM      4  C   UNL     1      -0.626  10.999  20.292  0.00  0.00    +0.000 A 
ATOM      5  C   UNL     1      -1.202  11.914  21.174  0.00  0.00    +0.000 A 
ATOM      6  C   UNL     1      -1.299  11.572  22.517  0.00  0.00    +0.000 A 
ATOM      7 CL   UNL     1      -1.905  12.716  23.651  0.00  0.00    +0.000 Cl
ATOM      8  C   UNL     1      -0.903  10.308  22.955  0.00  0.00    +0.000 A 
ATOM      9  C   UNL     1      -0.401   9.374  22.044  0.00  0.00    +0.000 A 
ATOM     10  C   UNL     1      -0.193   9.741  20.714  0.00  0.00    +0.000 A 
ENDROOT
BRANCH   3  11
ATOM     11  C   UNL     1       0.588  12.435  18.642  0.00  0.00    +0.000 A 
ATOM     12  C   UNL     1       0.071  13.742  18.684  0.00  0.00    +0.000 A 
ATOM     13  C   UNL     1       0.927  14.843  18.613  0.00  0.00    +0.000 A 
ATOM     14  C   UNL     1       2.297  14.642  18.497  0.00  0.00    +0.000 A 
ATOM     15  F   UNL     1       3.117  15.700  18.451  0.00  0.00    +0.000 F 
ATOM     16  C   UNL     1       2.829  13.361  18.442  0.00  0.00    +0.000 A 
ATOM     17  C   UNL     1       1.977  12.260  18.508  0.00  0.00    +0.000 A 
ENDBRANCH   3  11
BRANCH   1  21
ATOM     18  N   UNL     1       2.088   5.538  19.484  0.00  0.00    +0.000 NA
ATOM     19  C   UNL     1       1.469   6.219  20.641  0.00  0.00    +0.000 C 
ATOM     20  C   UNL     1       2.083   7.611  20.931  0.00  0.00    +0.000 C 
ATOM     21  N   UNL     1       1.886   8.580  19.822  0.00  0.00    +0.000 NA
ATOM     22  C   UNL     1       2.537   7.942  18.645  0.00  0.00    +0.000 C 
ATOM     23  C   UNL     1       2.096   6.479  18.334  0.00  0.00    +0.000 C 
BRANCH  18  24
ATOM     24  C   UNL     1       3.458   5.062  19.783  0.00  0.00    +0.000 C 
BRANCH  24  25
ATOM     25  C   UNL     1       4.078   4.157  18.691  0.00  0.00    +0.000 C 
BRANCH  25  30
ATOM     26  C   UNL     1       7.151   4.784  14.954  0.00  0.00    +0.000 C 
ATOM     27  N   UNL     1       6.537   5.093  16.217  0.00  0.00    +0.000 N 
ATOM     28  C   UNL     1       7.269   5.572  17.370  0.00  0.00    +0.000 C 
ATOM     29  C   UNL     1       6.452   5.046  18.539  0.00  0.00    +0.000 C 
ATOM     30  N   UNL     1       5.148   4.805  17.958  0.00  0.00    +0.000 N 
ATOM     31  C   UNL     1       5.259   4.674  16.565  0.00  0.00    +0.000 C 
ATOM     32  O   UNL     1       4.420   4.206  15.817  0.00  0.00    +0.000 OA
ENDBRANCH  25  30
ENDBRANCH  24  25
ENDBRANCH  18  24
ENDBRANCH   1  21
TORSDOF 5
ENDMDL
MODEL 4
REMARK VINA RESULT:      -7.3      4.160      8.550
REMARK  Name = 
REMARK  6 active torsions:
REMARK  status: ('A' for Active; 'I' for Inactive)
REMARK    1  A    between atoms: C_1  and  N_2
REMARK    2  A    between atoms: N_5  and  C_6
REMARK    3  A    between atoms: C_6  and  C_7
REMARK    4  A    between atoms: C_7  and  N_8
REMARK    5  A    between atoms: N_11  and  C_12
REMARK    6  A    between atoms: C_14  and  C_15
REMARK                            x       y       z     vdW  Elec       q    Type
REMARK                         _______ _______ _______ _____ _____    ______ ____
ROOT
ATOM      1  C   UNL     1       4.266   4.042  17.221  0.00  0.00    +0.000 C 
ATOM      2  C   UNL     1       5.372   4.306  18.295  0.00  0.00    +0.000 C 
ATOM      3  C   UNL     1       6.696   4.712  17.614  0.00  0.00    +0.000 C 
ATOM      4  C   UNL     1       6.407   4.483  16.161  0.00  0.00    +0.000 A 
ATOM      5  C   UNL     1       7.308   4.666  15.111  0.00  0.00    +0.000 A 
ATOM      6  C   UNL     1       6.849   4.523  13.808  0.00  0.00    +0.000 A 
ATOM      7 CL   UNL     1       7.906   4.845  12.488  0.00  0.00    +0.000 Cl
ATOM      8  C   UNL     1       5.535   4.128  13.561  0.00  0.00    +0.000 A 
ATOM      9  C   UNL     1       4.666   3.874  14.625  0.00  0.00    +0.000 A 
ATOM     10  C   UNL     1       5.078   4.119  15.935  0.00  0.00    +0.000 A 
ENDROOT
BRANCH   3  11
ATOM     11  C   UNL     1       7.149   6.136  17.886  0.00  0.00    +0.000 A 
ATOM     12  C   UNL     1       8.112   6.392  18.879  0.00  0.00    +0.000 A 
ATOM     13  C   UNL     1       8.615   7.681  19.059  0.00  0.00    +0.000 A 
ATOM     14  C   UNL     1       8.157   8.717  18.253  0.00  0.00    +0.000 A 
ATOM     15  F   UNL     1       8.657   9.948  18.414  0.00  0.00    +0.000 F 
ATOM     16  C   UNL     1       7.199   8.490  17.275  0.00  0.00    +0.000 A 
ATOM     17  C   UNL     1       6.690   7.204  17.095  0.00  0.00    +0.000 A 
ENDBRANCH   3  11
BRANCH   1  21
ATOM     18  N   UNL     1       2.542   5.416  20.283  0.00  0.00    +0.000 NA
ATOM     19  C   UNL     1       2.230   4.179  19.534  0.00  0.00    +0.000 C 
ATOM     20  C   UNL     1       1.948   4.429  18.033  0.00  0.00    +0.000 C 
ATOM     21  N   UNL     1       3.115   4.983  17.301  0.00  0.00    +0.000 NA
ATOM     22  C   UNL     1       3.431   6.256  18.006  0.00  0.00    +0.000 C 
ATOM     23  C   UNL     1       3.605   6.152  19.551  0.00  0.00    +0.000 C 
BRANCH  18  24
ATOM     24  C   UNL     1       1.347   6.270  20.473  0.00  0.00    +0.000 C 
BRANCH  24  25
ATOM     25  C   UNL     1       1.617   7.597  21.222  0.00  0.00    +0.000 C 
BRANCH  25  30
ATOM     26  C   UNL     1      -1.419  11.061  19.614  0.00  0.00    +0.000 C 
ATOM     27  N   UNL     1      -0.165  10.369  19.744  0.00  0.00    +0.000 N 
ATOM     28  C   UNL     1       0.753  10.156  18.647  0.00  0.00    +0.000 C 
ATOM     29  C   UNL     1       1.445   8.856  19.024  0.00  0.00    +0.000 C 
ATOM     30  N   UNL     1       1.240   8.768  20.454  0.00  0.00    +0.000 N 
ATOM     31  C   UNL     1       0.153   9.569  20.834  0.00  0.00    +0.000 C 
ATOM     32  O   UNL     1      -0.447   9.513  21.893  0.00  0.00    +0.000 OA
ENDBRANCH  25  30
ENDBRANCH  24  25
ENDBRANCH  18  24
ENDBRANCH   1  21
TORSDOF 5
ENDMDL
MODEL 5
REMARK VINA RESULT:      -7.0      1.144      1.665
REMARK  Name = 
REMARK  6 active torsions:
REMARK  status: ('A' for Active; 'I' for Inactive)
REMARK    1  A    between atoms: C_1  and  N_2
REMARK    2  A    between atoms: N_5  and  C_6
REMARK    3  A    between atoms: C_6  and  C_7
REMARK    4  A    between atoms: C_7  and  N_8
REMARK    5  A    between atoms: N_11  and  C_12
REMARK    6  A    between atoms: C_14  and  C_15
REMARK                            x       y       z     vdW  Elec       q    Type
REMARK                         _______ _______ _______ _____ _____    ______ ____
ROOT
ATOM      1  C   UNL     1       0.493   8.981  19.648  0.00  0.00    +0.000 C 
ATOM      2  C   UNL     1       0.290   9.966  18.449  0.00  0.00    +0.000 C 
ATOM      3  C   UNL     1      -0.290  11.307  18.948  0.00  0.00    +0.000 C 
ATOM      4  C   UNL     1      -0.605  11.018  20.386  0.00  0.00    +0.000 A 
ATOM      5  C   UNL     1      -1.195  11.907  21.285  0.00  0.00    +0.000 A 
ATOM      6  C   UNL     1      -1.313  11.527  22.616  0.00  0.00    +0.000 A 
ATOM      7 CL   UNL     1      -1.937  12.638  23.773  0.00  0.00    +0.000 Cl
ATOM      8  C   UNL     1      -0.922  10.251  23.023  0.00  0.00    +0.000 A 
ATOM      9  C   UNL     1      -0.405   9.344  22.094  0.00  0.00    +0.000 A 
ATOM     10  C   UNL     1      -0.177   9.749  20.778  0.00  0.00    +0.000 A 
ENDROOT
BRANCH   3  11
ATOM     11  C   UNL     1       0.634  12.502  18.797  0.00  0.00    +0.000 A 
ATOM     12  C   UNL     1       2.007  12.308  18.564  0.00  0.00    +0.000 A 
ATOM     13  C   UNL     1       2.842  13.397  18.315  0.00  0.00    +0.000 A 
ATOM     14  C   UNL     1       2.312  14.682  18.300  0.00  0.00    +0.000 A 
ATOM     15  F   UNL     1       3.112  15.723  18.039  0.00  0.00    +0.000 F 
ATOM     16  C   UNL     1       0.962  14.899  18.539  0.00  0.00    +0.000 A 
ATOM     17  C   UNL     1       0.125  13.813  18.793  0.00  0.00    +0.000 A 
ENDBRANCH   3  11
BRANCH   1  21
ATOM     18  N   UNL     1       2.299   5.791  18.753  0.00  0.00    +0.000 NA
ATOM     19  C   UNL     1       1.564   6.109  19.996  0.00  0.00    +0.000 C 
ATOM     20  C   UNL     1       2.082   7.385  20.703  0.00  0.00    +0.000 C 
ATOM     21  N   UNL     1       1.917   8.615  19.887  0.00  0.00    +0.000 NA
ATOM     22  C   UNL     1       2.683   8.345  18.639  0.00  0.00    +0.000 C 
ATOM     23  C   UNL     1       2.342   7.011  17.907  0.00  0.00    +0.000 C 
BRANCH  18  24
ATOM     24  C   UNL     1       3.667   5.292  19.025  0.00  0.00    +0.000 C 
BRANCH  24  25
ATOM     25  C   UNL     1       4.782   6.000  18.219  0.00  0.00    +0.000 C 
BRANCH  25  30
ATOM     26  C   UNL     1       7.220   4.959  14.123  0.00  0.00    +0.000 C 
ATOM     27  N   UNL     1       6.562   4.674  15.370  0.00  0.00    +0.000 N 
ATOM     28  C   UNL     1       5.710   3.525  15.585  0.00  0.00    +0.000 C 
ATOM     29  C   UNL     1       4.727   4.017  16.635  0.00  0.00    +0.000 C 
ATOM     30  N   UNL     1       5.417   5.132  17.247  0.00  0.00    +0.000 N 
ATOM     31  C   UNL     1       6.415   5.612  16.385  0.00  0.00    +0.000 C 
ATOM     32  O   UNL     1       6.984   6.686  16.468  0.00  0.00    +0.000 OA
ENDBRANCH  25  30
ENDBRANCH  24  25
ENDBRANCH  18  24
ENDBRANCH   1  21
TORSDOF 5
ENDMDL
MODEL 6
REMARK VINA RESULT:      -7.0      4.484      7.716
REMARK  Name = 
REMARK  6 active torsions:
REMARK  status: ('A' for Active; 'I' for Inactive)
REMARK    1  A    between atoms: C_1  and  N_2
REMARK    2  A    between atoms: N_5  and  C_6
REMARK    3  A    between atoms: C_6  and  C_7
REMARK    4  A    between atoms: C_7  and  N_8
REMARK    5  A    between atoms: N_11  and  C_12
REMARK    6  A    between atoms: C_14  and  C_15
REMARK                            x       y       z     vdW  Elec       q    Type
REMARK                         _______ _______ _______ _____ _____    ______ ____
ROOT
ATOM      1  C   UNL     1       0.658  12.475  20.064  0.00  0.00    +0.000 C 
ATOM      2  C   UNL     1       1.051  11.182  20.852  0.00  0.00    +0.000 C 
ATOM      3  C   UNL     1       0.398   9.940  20.208  0.00  0.00    +0.000 C 
ATOM      4  C   UNL     1      -0.522  10.541  19.187  0.00  0.00    +0.000 A 
ATOM      5  C   UNL     1      -1.385   9.832  18.350  0.00  0.00    +0.000 A 
ATOM      6  C   UNL     1      -2.088  10.528  17.375  0.00  0.00    +0.000 A 
ATOM      7 CL   UNL     1      -3.078   9.674  16.257  0.00  0.00    +0.000 Cl
ATOM      8  C   UNL     1      -1.990  11.917  17.290  0.00  0.00    +0.000 A 
ATOM      9  C   UNL     1      -1.181  12.621  18.187  0.00  0.00    +0.000 A 
ATOM     10  C   UNL     1      -0.384  11.927  19.099  0.00  0.00    +0.000 A 
ENDROOT
BRANCH   3  11
ATOM     11  C   UNL     1       1.369   8.952  19.587  0.00  0.00    +0.000 A 
ATOM     12  C   UNL     1       1.671   7.749  20.249  0.00  0.00    +0.000 A 
ATOM     13  C   UNL     1       2.474   6.787  19.635  0.00  0.00    +0.000 A 
ATOM     14  C   UNL     1       2.979   7.023  18.362  0.00  0.00    +0.000 A 
ATOM     15  F   UNL     1       3.732   6.089  17.768  0.00  0.00    +0.000 F 
ATOM     16  C   UNL     1       2.704   8.208  17.694  0.00  0.00    +0.000 A 
ATOM     17  C   UNL     1       1.906   9.174  18.306  0.00  0.00    +0.000 A 
ENDBRANCH   3  11
BRANCH   1  21
ATOM     18  N   UNL     1       2.002  15.941  20.707  0.00  0.00    +0.000 NA
ATOM     19  C   UNL     1       0.964  15.527  19.738  0.00  0.00    +0.000 C 
ATOM     20  C   UNL     1       1.449  14.435  18.754  0.00  0.00    +0.000 C 
ATOM     21  N   UNL     1       1.814  13.162  19.425  0.00  0.00    +0.000 NA
ATOM     22  C   UNL     1       2.892  13.536  20.382  0.00  0.00    +0.000 C 
ATOM     23  C   UNL     1       2.567  14.722  21.340  0.00  0.00    +0.000 C 
BRANCH  18  24
ATOM     24  C   UNL     1       3.070  16.746  20.071  0.00  0.00    +0.000 C 
BRANCH  24  25
ATOM     25  C   UNL     1       4.442  16.674  20.784  0.00  0.00    +0.000 C 
BRANCH  25  30
ATOM     26  C   UNL     1       8.717  14.498  19.896  0.00  0.00    +0.000 C 
ATOM     27  N   UNL     1       7.444  15.079  19.565  0.00  0.00    +0.000 N 
ATOM     28  C   UNL     1       7.221  15.920  18.410  0.00  0.00    +0.000 C 
ATOM     29  C   UNL     1       6.094  16.834  18.863  0.00  0.00    +0.000 C 
ATOM     30  N   UNL     1       5.484  16.103  19.953  0.00  0.00    +0.000 N 
ATOM     31  C   UNL     1       6.387  15.159  20.464  0.00  0.00    +0.000 C 
ATOM     32  O   UNL     1       6.299  14.582  21.533  0.00  0.00    +0.000 OA
ENDBRANCH  25  30
ENDBRANCH  24  25
ENDBRANCH  18  24
ENDBRANCH   1  21
TORSDOF 5
ENDMDL
MODEL 7
REMARK VINA RESULT:      -7.0      4.797      7.952
REMARK  Name = 
REMARK  6 active torsions:
REMARK  status: ('A' for Active; 'I' for Inactive)
REMARK    1  A    between atoms: C_1  and  N_2
REMARK    2  A    between atoms: N_5  and  C_6
REMARK    3  A    between atoms: C_6  and  C_7
REMARK    4  A    between atoms: C_7  and  N_8
REMARK    5  A    between atoms: N_11  and  C_12
REMARK    6  A    between atoms: C_14  and  C_15
REMARK                            x       y       z     vdW  Elec       q    Type
REMARK                         _______ _______ _______ _____ _____    ______ ____
ROOT
ATOM      1  C   UNL     1       0.558  12.505  20.044  0.00  0.00    +0.000 C 
ATOM      2  C   UNL     1       0.955  11.238  20.873  0.00  0.00    +0.000 C 
ATOM      3  C   UNL     1       0.303   9.976  20.269  0.00  0.00    +0.000 C 
ATOM      4  C   UNL     1      -0.619  10.542  19.231  0.00  0.00    +0.000 A 
ATOM      5  C   UNL     1      -1.482   9.805  18.418  0.00  0.00    +0.000 A 
ATOM      6  C   UNL     1      -2.187  10.469  17.422  0.00  0.00    +0.000 A 
ATOM      7 CL   UNL     1      -3.177   9.577  16.333  0.00  0.00    +0.000 Cl
ATOM      8  C   UNL     1      -2.092  11.854  17.293  0.00  0.00    +0.000 A 
ATOM      9  C   UNL     1      -1.283  12.587  18.166  0.00  0.00    +0.000 A 
ATOM     10  C   UNL     1      -0.484  11.925  19.098  0.00  0.00    +0.000 A 
ENDROOT
BRANCH   3  11
ATOM     11  C   UNL     1       1.275   8.970  19.679  0.00  0.00    +0.000 A 
ATOM     12  C   UNL     1       1.596   7.799  20.389  0.00  0.00    +0.000 A 
ATOM     13  C   UNL     1       2.401   6.819  19.806  0.00  0.00    +0.000 A 
ATOM     14  C   UNL     1       2.888   7.004  18.518  0.00  0.00    +0.000 A 
ATOM     15  F   UNL     1       3.641   6.052  17.954  0.00  0.00    +0.000 F 
ATOM     16  C   UNL     1       2.593   8.157  17.803  0.00  0.00    +0.000 A 
ATOM     17  C   UNL     1       1.794   9.141  18.383  0.00  0.00    +0.000 A 
ENDBRANCH   3  11
BRANCH   1  21
ATOM     18  N   UNL     1       2.213  15.782  20.915  0.00  0.00    +0.000 NA
ATOM     19  C   UNL     1       1.076  15.545  20.000  0.00  0.00    +0.000 C 
ATOM     20  C   UNL     1       1.398  14.532  18.874  0.00  0.00    +0.000 C 
ATOM     21  N   UNL     1       1.713  13.173  19.382  0.00  0.00    +0.000 NA
ATOM     22  C   UNL     1       2.886  13.368  20.279  0.00  0.00    +0.000 C 
ATOM     23  C   UNL     1       2.728  14.466  21.374  0.00  0.00    +0.000 C 
BRANCH  18  24
ATOM     24  C   UNL     1       3.289  16.573  20.275  0.00  0.00    +0.000 C 
BRANCH  24  25
ATOM     25  C   UNL     1       4.452  16.961  21.220  0.00  0.00    +0.000 C 
BRANCH  25  30
ATOM     26  C   UNL     1       7.981  15.876  18.031  0.00  0.00    +0.000 C 
ATOM     27  N   UNL     1       7.353  15.947  19.323  0.00  0.00    +0.000 N 
ATOM     28  C   UNL     1       7.421  14.892  20.309  0.00  0.00    +0.000 C 
ATOM     29  C   UNL     1       6.116  15.048  21.072  0.00  0.00    +0.000 C 
ATOM     30  N   UNL     1       5.729  16.416  20.801  0.00  0.00    +0.000 N 
ATOM     31  C   UNL     1       6.370  16.877  19.641  0.00  0.00    +0.000 C 
ATOM     32  O   UNL     1       6.067  17.862  18.993  0.00  0.00    +0.000 OA
ENDBRANCH  25  30
ENDBRANCH  24  25
ENDBRANCH  18  24
ENDBRANCH   1  21
TORSDOF 5
ENDMDL
MODEL 8
REMARK VINA RESULT:      -6.9      3.540      5.385
REMARK  Name = 
REMARK  6 active torsions:
REMARK  status: ('A' for Active; 'I' for Inactive)
REMARK    1  A    between atoms: C_1  and  N_2
REMARK    2  A    between atoms: N_5  and  C_6
REMARK    3  A    between atoms: C_6  and  C_7
REMARK    4  A    between atoms: C_7  and  N_8
REMARK    5  A    between atoms: N_11  and  C_12
REMARK    6  A    between atoms: C_14  and  C_15
REMARK                            x       y       z     vdW  Elec       q    Type
REMARK                         _______ _______ _______ _____ _____    ______ ____
ROOT
ATOM      1  C   UNL     1      -1.178  12.207  19.216  0.00  0.00    +0.000 C 
ATOM      2  C   UNL     1      -1.479  13.427  20.147  0.00  0.00    +0.000 C 
ATOM      3  C   UNL     1      -2.994  13.530  20.425  0.00  0.00    +0.000 C 
ATOM      4  C   UNL     1      -3.572  12.502  19.498  0.00  0.00    +0.000 A 
ATOM      5  C   UNL     1      -4.930  12.225  19.334  0.00  0.00    +0.000 A 
ATOM      6  C   UNL     1      -5.298  11.160  18.521  0.00  0.00    +0.000 A 
ATOM      7 CL   UNL     1      -6.957  10.723  18.381  0.00  0.00    +0.000 Cl
ATOM      8  C   UNL     1      -4.331  10.437  17.824  0.00  0.00    +0.000 A 
ATOM      9  C   UNL     1      -2.980  10.778  17.938  0.00  0.00    +0.000 A 
ATOM     10  C   UNL     1      -2.585  11.771  18.835  0.00  0.00    +0.000 A 
ENDROOT
BRANCH   3  11
ATOM     11  C   UNL     1      -3.400  13.288  21.867  0.00  0.00    +0.000 A 
ATOM     12  C   UNL     1      -4.520  13.948  22.405  0.00  0.00    +0.000 A 
ATOM     13  C   UNL     1      -4.966  13.648  23.693  0.00  0.00    +0.000 A 
ATOM     14  C   UNL     1      -4.296  12.692  24.447  0.00  0.00    +0.000 A 
ATOM     15  F   UNL     1      -4.739  12.391  25.674  0.00  0.00    +0.000 F 
ATOM     16  C   UNL     1      -3.182  12.036  23.942  0.00  0.00    +0.000 A 
ATOM     17  C   UNL     1      -2.730  12.337  22.658  0.00  0.00    +0.000 A 
ENDBRANCH   3  11
BRANCH   1  21
ATOM     18  N   UNL     1       1.742  10.298  17.777  0.00  0.00    +0.000 NA
ATOM     19  C   UNL     1       0.306   9.948  17.727  0.00  0.00    +0.000 C 
ATOM     20  C   UNL     1      -0.351   9.863  19.127  0.00  0.00    +0.000 C 
ATOM     21  N   UNL     1      -0.341  11.155  19.858  0.00  0.00    +0.000 NA
ATOM     22  C   UNL     1       1.099  11.518  19.963  0.00  0.00    +0.000 C 
ATOM     23  C   UNL     1       1.902  11.505  18.627  0.00  0.00    +0.000 C 
BRANCH  18  24
ATOM     24  C   UNL     1       2.571   9.182  18.287  0.00  0.00    +0.000 C 
BRANCH  24  25
ATOM     25  C   UNL     1       2.237   7.800  17.675  0.00  0.00    +0.000 C 
BRANCH  25  30
ATOM     26  C   UNL     1       5.531   4.233  17.189  0.00  0.00    +0.000 C 
ATOM     27  N   UNL     1       4.654   5.125  17.899  0.00  0.00    +0.000 N 
ATOM     28  C   UNL     1       3.862   4.731  19.043  0.00  0.00    +0.000 C 
ATOM     29  C   UNL     1       2.652   5.647  18.956  0.00  0.00    +0.000 C 
ATOM     30  N   UNL     1       3.120   6.747  18.140  0.00  0.00    +0.000 N 
ATOM     31  C   UNL     1       4.235   6.347  17.388  0.00  0.00    +0.000 C 
ATOM     32  O   UNL     1       4.695   6.925  16.419  0.00  0.00    +0.000 OA
ENDBRANCH  25  30
ENDBRANCH  24  25
ENDBRANCH  18  24
ENDBRANCH   1  21
TORSDOF 5
ENDMDL
MODEL 9
REMARK VINA RESULT:      -6.9      3.266      5.344
REMARK  Name = 
REMARK  6 active torsions:
REMARK  status: ('A' for Active; 'I' for Inactive)
REMARK    1  A    between atoms: C_1  and  N_2
REMARK    2  A    between atoms: N_5  and  C_6
REMARK    3  A    between atoms: C_6  and  C_7
REMARK    4  A    between atoms: C_7  and  N_8
REMARK    5  A    between atoms: N_11  and  C_12
REMARK    6  A    between atoms: C_14  and  C_15
REMARK                            x       y       z     vdW  Elec       q    Type
REMARK                         _______ _______ _______ _____ _____    ______ ____
ROOT
ATOM      1  C   UNL     1       0.031  11.281  21.438  0.00  0.00    +0.000 C 
ATOM      2  C   UNL     1      -0.752  11.501  22.775  0.00  0.00    +0.000 C 
ATOM      3  C   UNL     1      -1.470  12.867  22.759  0.00  0.00    +0.000 C 
ATOM      4  C   UNL     1      -0.938  13.508  21.512  0.00  0.00    +0.000 A 
ATOM      5  C   UNL     1      -1.250  14.789  21.057  0.00  0.00    +0.000 A 
ATOM      6  C   UNL     1      -0.765  15.193  19.819  0.00  0.00    +0.000 A 
ATOM      7 CL   UNL     1      -1.218  16.725  19.179  0.00  0.00    +0.000 Cl
ATOM      8  C   UNL     1       0.082  14.361  19.088  0.00  0.00    +0.000 A 
ATOM      9  C   UNL     1       0.449  13.110  19.594  0.00  0.00    +0.000 A 
ATOM     10  C   UNL     1      -0.118  12.646  20.781  0.00  0.00    +0.000 A 
ENDROOT
BRANCH   3  11
ATOM     11  C   UNL     1      -2.987  12.796  22.758  0.00  0.00    +0.000 A 
ATOM     12  C   UNL     1      -3.702  12.970  23.957  0.00  0.00    +0.000 A 
ATOM     13  C   UNL     1      -5.097  13.017  23.947  0.00  0.00    +0.000 A 
ATOM     14  C   UNL     1      -5.781  12.887  22.744  0.00  0.00    +0.000 A 
ATOM     15  F   UNL     1      -7.118  12.953  22.735  0.00  0.00    +0.000 F 
ATOM     16  C   UNL     1      -5.096  12.702  21.551  0.00  0.00    +0.000 A 
ATOM     17  C   UNL     1      -3.703  12.650  21.557  0.00  0.00    +0.000 A 
ENDBRANCH   3  11
BRANCH   1  21
ATOM     18  N   UNL     1       1.923   8.265  20.190  0.00  0.00    +0.000 NA
ATOM     19  C   UNL     1       1.734   9.569  19.519  0.00  0.00    +0.000 C 
ATOM     20  C   UNL     1       0.246   9.957  19.344  0.00  0.00    +0.000 C 
ATOM     21  N   UNL     1      -0.469  10.132  20.634  0.00  0.00    +0.000 NA
ATOM     22  C   UNL     1      -0.336   8.817  21.320  0.00  0.00    +0.000 C 
ATOM     23  C   UNL     1       1.114   8.256  21.436  0.00  0.00    +0.000 C 
BRANCH  18  24
ATOM     24  C   UNL     1       1.551   7.129  19.315  0.00  0.00    +0.000 C 
BRANCH  24  25
ATOM     25  C   UNL     1       2.571   6.820  18.193  0.00  0.00    +0.000 C 
BRANCH  25  30
ATOM     26  C   UNL     1       2.602   1.970  18.720  0.00  0.00    +0.000 C 
ATOM     27  N   UNL     1       3.176   3.277  18.544  0.00  0.00    +0.000 N 
ATOM     28  C   UNL     1       4.384   3.719  19.205  0.00  0.00    +0.000 C 
ATOM     29  C   UNL     1       4.174   5.218  19.339  0.00  0.00    +0.000 C 
ATOM     30  N   UNL     1       3.182   5.512  18.327  0.00  0.00    +0.000 N 
ATOM     31  C   UNL     1       2.483   4.344  17.987  0.00  0.00    +0.000 C 
ATOM     32  O   UNL     1       1.425   4.287  17.386  0.00  0.00    +0.000 OA
ENDBRANCH  25  30
ENDBRANCH  24  25
ENDBRANCH  18  24
ENDBRANCH   1  21
TORSDOF 5
ENDMDL
