MODEL 1
REMARK VINA RESULT:      -8.2      0.000      0.000
REMARK  Name = 
REMARK  5 active torsions:
REMARK  status: ('A' for Active; 'I' for Inactive)
REMARK    1  A    between atoms: C_2  and  C_3
REMARK    2  A    between atoms: C_3  and  C_4
REMARK    3  A    between atoms: C_4  and  C_5
REMARK    4  A    between atoms: C_17  and  C_18
REMARK    5  A    between atoms: C_23  and  O_24
REMARK                            x       y       z     vdW  Elec       q    Type
REMARK                         _______ _______ _______ _____ _____    ______ ____
ROOT
ATOM      1  O   UNL     1       2.884   7.242  18.733  0.00  0.00    +0.000 OA
ATOM      2  C   UNL     1       3.020   6.173  18.135  0.00  0.00    +0.000 C 
ATOM      3  N   UNL     1       4.037   5.975  17.203  0.00  0.00    +0.000 N 
ATOM      4  C   UNL     1       4.263   4.723  16.457  0.00  0.00    +0.000 C 
ATOM      5  C   UNL     1       5.676   4.139  16.645  0.00  0.00    +0.000 C 
ATOM      6  N   UNL     1       6.683   4.946  15.958  0.00  0.00    +0.000 N 
ATOM      7  C   UNL     1       6.938   4.749  14.638  0.00  0.00    +0.000 A 
ATOM      8  N   UNL     1       7.881   5.349  13.899  0.00  0.00    +0.000 NA
ATOM      9  O   UNL     1       7.666   4.859  12.618  0.00  0.00    +0.000 OA
ATOM     10  C   UNL     1       6.598   4.014  12.699  0.00  0.00    +0.000 A 
ATOM     11  N   UNL     1       6.139   3.893  13.925  0.00  0.00    +0.000 NA
ATOM     12  C   UNL     1       7.315   6.053  16.673  0.00  0.00    +0.000 C 
ATOM     13  C   UNL     1       6.355   6.861  17.572  0.00  0.00    +0.000 C 
ATOM     14  C   UNL     1       4.968   7.083  16.935  0.00  0.00    +0.000 C 
ENDROOT
BRANCH  10  15
ATOM     15  C   UNL     1       5.984   3.355  11.473  0.00  0.00    +0.000 C 
ATOM     16  C   UNL     1       5.463   1.934  11.544  0.00  0.00    +0.000 C 
ATOM     17  C   UNL     1       4.493   3.067  11.513  0.00  0.00    +0.000 C 
ENDBRANCH  10  15
BRANCH  13  18
ATOM     18  O   UNL     1       6.964   8.121  17.891  0.00  0.00    +0.000 OA
ATOM     19  H   UNL     1       6.686   8.773  17.224  0.00  0.00    +0.000 HD
ENDBRANCH  13  18
BRANCH   2  20
ATOM     20  C   UNL     1       2.071   5.015  18.393  0.00  0.00    +0.000 C 
BRANCH  20  21
ATOM     21  C   UNL     1       2.401   4.290  19.700  0.00  0.00    +0.000 C 
BRANCH  21  22
ATOM     22  C   UNL     1       3.216   3.062  19.477  0.00  0.00    +0.000 A 
ATOM     23  C   UNL     1       2.969   2.005  18.570  0.00  0.00    +0.000 A 
ATOM     24  N   UNL     1       3.904   1.057  18.612  0.00  0.00    +0.000 NA
ATOM     25  N   UNL     1       4.773   1.511  19.530  0.00  0.00    +0.000 N 
ATOM     26  C   UNL     1       4.401   2.699  20.087  0.00  0.00    +0.000 A 
ATOM     27  H   UNL     1       5.602   0.957  19.721  0.00  0.00    +0.000 HD
ENDBRANCH  21  22
ENDBRANCH  20  21
ENDBRANCH   2  20
TORSDOF 5
ENDMDL
MODEL 2
REMARK VINA RESULT:      -7.6      1.320      1.543
REMARK  Name = 
REMARK  5 active torsions:
REMARK  status: ('A' for Active; 'I' for Inactive)
REMARK    1  A    between atoms: C_2  and  C_3
REMARK    2  A    between atoms: C_3  and  C_4
REMARK    3  A    between atoms: C_4  and  C_5
REMARK    4  A    between atoms: C_17  and  C_18
REMARK    5  A    between atoms: C_23  and  O_24
REMARK                            x       y       z     vdW  Elec       q    Type
REMARK                         _______ _______ _______ _____ _____    ______ ____
ROOT
ATOM      1  O   UNL     1       2.906   7.201  18.671  0.00  0.00    +0.000 OA
ATOM      2  C   UNL     1       3.059   6.134  18.075  0.00  0.00    +0.000 C 
ATOM      3  N   UNL     1       4.079   5.949  17.144  0.00  0.00    +0.000 N 
ATOM      4  C   UNL     1       4.324   4.699  16.400  0.00  0.00    +0.000 C 
ATOM      5  C   UNL     1       5.746   4.137  16.589  0.00  0.00    +0.000 C 
ATOM      6  N   UNL     1       6.740   4.959  15.900  0.00  0.00    +0.000 N 
ATOM      7  C   UNL     1       6.998   4.763  14.581  0.00  0.00    +0.000 A 
ATOM      8  N   UNL     1       7.931   5.376  13.840  0.00  0.00    +0.000 NA
ATOM      9  O   UNL     1       7.723   4.880  12.560  0.00  0.00    +0.000 OA
ATOM     10  C   UNL     1       6.669   4.018  12.643  0.00  0.00    +0.000 A 
ATOM     11  N   UNL     1       6.212   3.892  13.870  0.00  0.00    +0.000 NA
ATOM     12  C   UNL     1       7.355   6.077  16.613  0.00  0.00    +0.000 C 
ATOM     13  C   UNL     1       6.382   6.872  17.510  0.00  0.00    +0.000 C 
ATOM     14  C   UNL     1       4.992   7.071  16.873  0.00  0.00    +0.000 C 
ENDROOT
BRANCH  10  15
ATOM     15  C   UNL     1       6.064   3.347  11.419  0.00  0.00    +0.000 C 
ATOM     16  C   UNL     1       5.527   1.933  11.504  0.00  0.00    +0.000 C 
ATOM     17  C   UNL     1       4.571   3.076  11.442  0.00  0.00    +0.000 C 
ENDBRANCH  10  15
BRANCH  13  18
ATOM     18  O   UNL     1       6.972   8.142  17.826  0.00  0.00    +0.000 OA
ATOM     19  H   UNL     1       6.295   8.695  18.254  0.00  0.00    +0.000 HD
ENDBRANCH  13  18
BRANCH   2  20
ATOM     20  C   UNL     1       2.129   4.961  18.337  0.00  0.00    +0.000 C 
BRANCH  20  21
ATOM     21  C   UNL     1       2.888   3.735  18.847  0.00  0.00    +0.000 C 
BRANCH  21  22
ATOM     22  C   UNL     1       2.360   3.242  20.151  0.00  0.00    +0.000 A 
ATOM     23  C   UNL     1       3.072   2.604  21.193  0.00  0.00    +0.000 A 
ATOM     24  N   UNL     1       2.300   2.298  22.236  0.00  0.00    +0.000 NA
ATOM     25  N   UNL     1       1.091   2.760  21.879  0.00  0.00    +0.000 N 
ATOM     26  C   UNL     1       1.070   3.321  20.636  0.00  0.00    +0.000 A 
ATOM     27  H   UNL     1       0.326   2.661  22.540  0.00  0.00    +0.000 HD
ENDBRANCH  21  22
ENDBRANCH  20  21
ENDBRANCH   2  20
TORSDOF 5
ENDMDL
MODEL 3
REMARK VINA RESULT:      -7.3      3.404      7.649
REMARK  Name = 
REMARK  5 active torsions:
REMARK  status: ('A' for Active; 'I' for Inactive)
REMARK    1  A    between atoms: C_2  and  C_3
REMARK    2  A    between atoms: C_3  and  C_4
REMARK    3  A    between atoms: C_4  and  C_5
REMARK    4  A    between atoms: C_17  and  C_18
REMARK    5  A    between atoms: C_23  and  O_24
REMARK                            x       y       z     vdW  Elec       q    Type
REMARK                         _______ _______ _______ _____ _____    ______ ____
ROOT
ATOM      1  O   UNL     1       2.252   2.137  17.327  0.00  0.00    +0.000 OA
ATOM      2  C   UNL     1       2.728   3.270  17.241  0.00  0.00    +0.000 C 
ATOM      3  N   UNL     1       2.291   4.317  18.051  0.00  0.00    +0.000 N 
ATOM      4  C   UNL     1       2.820   5.693  18.007  0.00  0.00    +0.000 C 
ATOM      5  C   UNL     1       3.362   6.189  19.361  0.00  0.00    +0.000 C 
ATOM      6  N   UNL     1       2.279   6.439  20.310  0.00  0.00    +0.000 N 
ATOM      7  C   UNL     1       1.622   7.628  20.305  0.00  0.00    +0.000 A 
ATOM      8  N   UNL     1       0.672   8.029  21.161  0.00  0.00    +0.000 NA
ATOM      9  O   UNL     1       0.282   9.269  20.673  0.00  0.00    +0.000 OA
ATOM     10  C   UNL     1       1.026   9.497  19.552  0.00  0.00    +0.000 A 
ATOM     11  N   UNL     1       1.883   8.531  19.306  0.00  0.00    +0.000 NA
ATOM     12  C   UNL     1       1.825   5.350  21.173  0.00  0.00    +0.000 C 
ATOM     13  C   UNL     1       1.759   3.973  20.478  0.00  0.00    +0.000 C 
ATOM     14  C   UNL     1       1.228   4.046  19.032  0.00  0.00    +0.000 C 
ENDROOT
BRANCH  10  15
ATOM     15  C   UNL     1       0.813  10.714  18.664  0.00  0.00    +0.000 C 
ATOM     16  C   UNL     1      -0.187  11.783  19.053  0.00  0.00    +0.000 C 
ATOM     17  C   UNL     1       1.271  12.057  19.204  0.00  0.00    +0.000 C 
ENDBRANCH  10  15
BRANCH  13  18
ATOM     18  O   UNL     1       0.942   3.092  21.264  0.00  0.00    +0.000 OA
ATOM     19  H   UNL     1       0.919   2.223  20.826  0.00  0.00    +0.000 HD
ENDBRANCH  13  18
BRANCH   2  20
ATOM     20  C   UNL     1       3.826   3.574  16.235  0.00  0.00    +0.000 C 
BRANCH  20  21
ATOM     21  C   UNL     1       5.217   3.474  16.863  0.00  0.00    +0.000 C 
BRANCH  21  22
ATOM     22  C   UNL     1       6.161   4.491  16.318  0.00  0.00    +0.000 A 
ATOM     23  C   UNL     1       6.627   5.670  16.946  0.00  0.00    +0.000 A 
ATOM     24  N   UNL     1       7.477   6.360  16.185  0.00  0.00    +0.000 NA
ATOM     25  N   UNL     1       7.580   5.615  15.072  0.00  0.00    +0.000 N 
ATOM     26  C   UNL     1       6.802   4.495  15.096  0.00  0.00    +0.000 A 
ATOM     27  H   UNL     1       8.206   5.933  14.338  0.00  0.00    +0.000 HD
ENDBRANCH  21  22
ENDBRANCH  20  21
ENDBRANCH   2  20
TORSDOF 5
ENDMDL
MODEL 4
REMARK VINA RESULT:      -7.3      4.208      7.102
REMARK  Name = 
REMARK  5 active torsions:
REMARK  status: ('A' for Active; 'I' for Inactive)
REMARK    1  A    between atoms: C_2  and  C_3
REMARK    2  A    between atoms: C_3  and  C_4
REMARK    3  A    between atoms: C_4  and  C_5
REMARK    4  A    between atoms: C_17  and  C_18
REMARK    5  A    between atoms: C_23  and  O_24
REMARK                            x       y       z     vdW  Elec       q    Type
REMARK                         _______ _______ _______ _____ _____    ______ ____
ROOT
ATOM      1  O   UNL     1       0.080   8.031  21.686  0.00  0.00    +0.000 OA
ATOM      2  C   UNL     1       0.771   8.331  20.711  0.00  0.00    +0.000 C 
ATOM      3  N   UNL     1       1.696   7.444  20.163  0.00  0.00    +0.000 N 
ATOM      4  C   UNL     1       2.549   7.732  18.994  0.00  0.00    +0.000 C 
ATOM      5  C   UNL     1       2.386   6.719  17.845  0.00  0.00    +0.000 C 
ATOM      6  N   UNL     1       2.975   5.426  18.188  0.00  0.00    +0.000 N 
ATOM      7  C   UNL     1       4.301   5.202  17.999  0.00  0.00    +0.000 A 
ATOM      8  N   UNL     1       4.962   4.052  18.186  0.00  0.00    +0.000 NA
ATOM      9  O   UNL     1       6.287   4.380  17.933  0.00  0.00    +0.000 OA
ATOM     10  C   UNL     1       6.307   5.710  17.628  0.00  0.00    +0.000 A 
ATOM     11  N   UNL     1       5.107   6.248  17.626  0.00  0.00    +0.000 NA
ATOM     12  C   UNL     1       2.147   4.423  18.857  0.00  0.00    +0.000 C 
ATOM     13  C   UNL     1       1.198   4.996  19.931  0.00  0.00    +0.000 C 
ATOM     14  C   UNL     1       1.841   6.114  20.777  0.00  0.00    +0.000 C 
ENDROOT
BRANCH  10  15
ATOM     15  C   UNL     1       7.601   6.474  17.392  0.00  0.00    +0.000 C 
ATOM     16  C   UNL     1       7.627   7.986  17.479  0.00  0.00    +0.000 C 
ATOM     17  C   UNL     1       8.218   7.181  18.586  0.00  0.00    +0.000 C 
ENDBRANCH  10  15
BRANCH  13  18
ATOM     18  O   UNL     1       0.751   3.926  20.778  0.00  0.00    +0.000 OA
ATOM     19  H   UNL     1       1.164   3.100  20.469  0.00  0.00    +0.000 HD
ENDBRANCH  13  18
BRANCH   2  20
ATOM     20  C   UNL     1       0.640   9.698  20.060  0.00  0.00    +0.000 C 
BRANCH  20  21
ATOM     21  C   UNL     1      -0.790  10.233  20.142  0.00  0.00    +0.000 C 
BRANCH  21  22
ATOM     22  C   UNL     1      -1.260  10.798  18.846  0.00  0.00    +0.000 A 
ATOM     23  C   UNL     1      -1.973  10.140  17.816  0.00  0.00    +0.000 A 
ATOM     24  N   UNL     1      -2.252  10.939  16.786  0.00  0.00    +0.000 NA
ATOM     25  N   UNL     1      -1.740  12.123  17.159  0.00  0.00    +0.000 N 
ATOM     26  C   UNL     1      -1.125  12.089  18.376  0.00  0.00    +0.000 A 
ATOM     27  H   UNL     1      -1.854  12.914  16.532  0.00  0.00    +0.000 HD
ENDBRANCH  21  22
ENDBRANCH  20  21
ENDBRANCH   2  20
TORSDOF 5
ENDMDL
MODEL 5
REMARK VINA RESULT:      -7.2      1.652      1.893
REMARK  Name = 
REMARK  5 active torsions:
REMARK  status: ('A' for Active; 'I' for Inactive)
REMARK    1  A    between atoms: C_2  and  C_3
REMARK    2  A    between atoms: C_3  and  C_4
REMARK    3  A    between atoms: C_4  and  C_5
REMARK    4  A    between atoms: C_17  and  C_18
REMARK    5  A    between atoms: C_23  and  O_24
REMARK                            x       y       z     vdW  Elec       q    Type
REMARK                         _______ _______ _______ _____ _____    ______ ____
ROOT
ATOM      1  O   UNL     1       3.665   7.597  18.557  0.00  0.00    +0.000 OA
ATOM      2  C   UNL     1       3.494   6.490  18.044  0.00  0.00    +0.000 C 
ATOM      3  N   UNL     1       4.288   6.033  16.994  0.00  0.00    +0.000 N 
ATOM      4  C   UNL     1       4.144   4.719  16.340  0.00  0.00    +0.000 C 
ATOM      5  C   UNL     1       5.430   3.871  16.369  0.00  0.00    +0.000 C 
ATOM      6  N   UNL     1       6.447   4.414  15.470  0.00  0.00    +0.000 N 
ATOM      7  C   UNL     1       6.441   4.091  14.151  0.00  0.00    +0.000 A 
ATOM      8  N   UNL     1       7.348   4.441  13.229  0.00  0.00    +0.000 NA
ATOM      9  O   UNL     1       6.837   3.929  12.044  0.00  0.00    +0.000 OA
ATOM     10  C   UNL     1       5.655   3.326  12.358  0.00  0.00    +0.000 A 
ATOM     11  N   UNL     1       5.387   3.374  13.644  0.00  0.00    +0.000 NA
ATOM     12  C   UNL     1       7.389   5.409  15.980  0.00  0.00    +0.000 C 
ATOM     13  C   UNL     1       6.761   6.448  16.934  0.00  0.00    +0.000 C 
ATOM     14  C   UNL     1       5.358   6.910  16.492  0.00  0.00    +0.000 C 
ENDROOT
BRANCH  10  15
ATOM     15  C   UNL     1       4.733   2.735  11.302  0.00  0.00    +0.000 C 
ATOM     16  C   UNL     1       3.232   2.911  11.405  0.00  0.00    +0.000 C 
ATOM     17  C   UNL     1       3.994   3.708  10.401  0.00  0.00    +0.000 C 
ENDBRANCH  10  15
BRANCH  13  18
ATOM     18  O   UNL     1       7.645   7.574  17.044  0.00  0.00    +0.000 OA
ATOM     19  H   UNL     1       8.242   7.422  17.797  0.00  0.00    +0.000 HD
ENDBRANCH  13  18
BRANCH   2  20
ATOM     20  C   UNL     1       2.395   5.567  18.545  0.00  0.00    +0.000 C 
BRANCH  20  21
ATOM     21  C   UNL     1       2.299   5.572  20.072  0.00  0.00    +0.000 C 
BRANCH  21  22
ATOM     22  C   UNL     1       1.896   4.246  20.619  0.00  0.00    +0.000 A 
ATOM     23  C   UNL     1       2.403   3.586  21.763  0.00  0.00    +0.000 A 
ATOM     24  N   UNL     1       1.816   2.410  21.985  0.00  0.00    +0.000 NA
ATOM     25  N   UNL     1       0.910   2.318  20.998  0.00  0.00    +0.000 N 
ATOM     26  C   UNL     1       0.927   3.383  20.147  0.00  0.00    +0.000 A 
ATOM     27  H   UNL     1       0.310   1.499  20.972  0.00  0.00    +0.000 HD
ENDBRANCH  21  22
ENDBRANCH  20  21
ENDBRANCH   2  20
TORSDOF 5
ENDMDL
MODEL 6
REMARK VINA RESULT:      -7.0      4.236      7.240
REMARK  Name = 
REMARK  5 active torsions:
REMARK  status: ('A' for Active; 'I' for Inactive)
REMARK    1  A    between atoms: C_2  and  C_3
REMARK    2  A    between atoms: C_3  and  C_4
REMARK    3  A    between atoms: C_4  and  C_5
REMARK    4  A    between atoms: C_17  and  C_18
REMARK    5  A    between atoms: C_23  and  O_24
REMARK                            x       y       z     vdW  Elec       q    Type
REMARK                         _______ _______ _______ _____ _____    ______ ____
ROOT
ATOM      1  O   UNL     1       0.174   7.903  21.919  0.00  0.00    +0.000 OA
ATOM      2  C   UNL     1       0.853   8.256  20.954  0.00  0.00    +0.000 C 
ATOM      3  N   UNL     1       1.740   7.387  20.320  0.00  0.00    +0.000 N 
ATOM      4  C   UNL     1       2.577   7.740  19.157  0.00  0.00    +0.000 C 
ATOM      5  C   UNL     1       2.361   6.820  17.940  0.00  0.00    +0.000 C 
ATOM      6  N   UNL     1       2.919   5.489  18.172  0.00  0.00    +0.000 N 
ATOM      7  C   UNL     1       4.234   5.244  17.936  0.00  0.00    +0.000 A 
ATOM      8  N   UNL     1       4.865   4.066  18.022  0.00  0.00    +0.000 NA
ATOM      9  O   UNL     1       6.193   4.376  17.764  0.00  0.00    +0.000 OA
ATOM     10  C   UNL     1       6.245   5.723  17.559  0.00  0.00    +0.000 A 
ATOM     11  N   UNL     1       5.062   6.293  17.624  0.00  0.00    +0.000 NA
ATOM     12  C   UNL     1       2.077   4.462  18.783  0.00  0.00    +0.000 C 
ATOM     13  C   UNL     1       1.167   4.979  19.919  0.00  0.00    +0.000 C 
ATOM     14  C   UNL     1       1.859   6.012  20.830  0.00  0.00    +0.000 C 
ENDROOT
BRANCH  10  15
ATOM     15  C   UNL     1       7.555   6.468  17.350  0.00  0.00    +0.000 C 
ATOM     16  C   UNL     1       7.618   7.973  17.508  0.00  0.00    +0.000 C 
ATOM     17  C   UNL     1       8.196   7.102  18.572  0.00  0.00    +0.000 C 
ENDBRANCH  10  15
BRANCH  13  18
ATOM     18  O   UNL     1       0.707   3.860  20.693  0.00  0.00    +0.000 OA
ATOM     19  H   UNL     1       1.014   3.043  20.261  0.00  0.00    +0.000 HD
ENDBRANCH  13  18
BRANCH   2  20
ATOM     20  C   UNL     1       0.748   9.671  20.409  0.00  0.00    +0.000 C 
BRANCH  20  21
ATOM     21  C   UNL     1      -0.451   9.833  19.474  0.00  0.00    +0.000 C 
BRANCH  21  22
ATOM     22  C   UNL     1      -0.514  11.191  18.863  0.00  0.00    +0.000 A 
ATOM     23  C   UNL     1       0.389  12.266  19.035  0.00  0.00    +0.000 A 
ATOM     24  N   UNL     1       0.048  13.347  18.334  0.00  0.00    +0.000 NA
ATOM     25  N   UNL     1      -1.065  12.964  17.686  0.00  0.00    +0.000 N 
ATOM     26  C   UNL     1      -1.451  11.689  17.979  0.00  0.00    +0.000 A 
ATOM     27  H   UNL     1      -1.505  13.628  17.056  0.00  0.00    +0.000 HD
ENDBRANCH  21  22
ENDBRANCH  20  21
ENDBRANCH   2  20
TORSDOF 5
ENDMDL
MODEL 7
REMARK VINA RESULT:      -6.9      4.750      8.013
REMARK  Name = 
REMARK  5 active torsions:
REMARK  status: ('A' for Active; 'I' for Inactive)
REMARK    1  A    between atoms: C_2  and  C_3
REMARK    2  A    between atoms: C_3  and  C_4
REMARK    3  A    between atoms: C_4  and  C_5
REMARK    4  A    between atoms: C_17  and  C_18
REMARK    5  A    between atoms: C_23  and  O_24
REMARK                            x       y       z     vdW  Elec       q    Type
REMARK                         _______ _______ _______ _____ _____    ______ ____
ROOT
ATOM      1  O   UNL     1       3.692   5.823  19.866  0.00  0.00    +0.000 OA
ATOM      2  C   UNL     1       3.284   6.444  18.883  0.00  0.00    +0.000 C 
ATOM      3  N   UNL     1       2.213   7.332  18.965  0.00  0.00    +0.000 N 
ATOM      4  C   UNL     1       1.677   8.112  17.833  0.00  0.00    +0.000 C 
ATOM      5  C   UNL     1       1.671   9.633  18.080  0.00  0.00    +0.000 C 
ATOM      6  N   UNL     1       0.653  10.009  19.060  0.00  0.00    +0.000 N 
ATOM      7  C   UNL     1      -0.632  10.216  18.672  0.00  0.00    +0.000 A 
ATOM      8  N   UNL     1      -1.648  10.642  19.435  0.00  0.00    +0.000 NA
ATOM      9  O   UNL     1      -2.744  10.605  18.585  0.00  0.00    +0.000 OA
ATOM     10  C   UNL     1      -2.291  10.144  17.384  0.00  0.00    +0.000 A 
ATOM     11  N   UNL     1      -0.995   9.922  17.383  0.00  0.00    +0.000 NA
ATOM     12  C   UNL     1       1.007  10.032  20.479  0.00  0.00    +0.000 C 
ATOM     13  C   UNL     1       1.924   8.872  20.924  0.00  0.00    +0.000 C 
ATOM     14  C   UNL     1       1.560   7.524  20.270  0.00  0.00    +0.000 C 
ENDROOT
BRANCH  10  15
ATOM     15  C   UNL     1      -3.220   9.860  16.214  0.00  0.00    +0.000 C 
ATOM     16  C   UNL     1      -3.993  10.985  15.556  0.00  0.00    +0.000 C 
ATOM     17  C   UNL     1      -2.813  10.402  14.855  0.00  0.00    +0.000 C 
ENDBRANCH  10  15
BRANCH  13  18
ATOM     18  O   UNL     1       1.874   8.761  22.355  0.00  0.00    +0.000 OA
ATOM     19  H   UNL     1       1.043   9.164  22.663  0.00  0.00    +0.000 HD
ENDBRANCH  13  18
BRANCH   2  20
ATOM     20  C   UNL     1       3.941   6.262  17.525  0.00  0.00    +0.000 C 
BRANCH  20  21
ATOM     21  C   UNL     1       5.331   6.899  17.476  0.00  0.00    +0.000 C 
BRANCH  21  22
ATOM     22  C   UNL     1       6.422   5.889  17.584  0.00  0.00    +0.000 A 
ATOM     23  C   UNL     1       7.202   5.568  18.719  0.00  0.00    +0.000 A 
ATOM     24  N   UNL     1       8.092   4.604  18.480  0.00  0.00    +0.000 NA
ATOM     25  N   UNL     1       7.872   4.284  17.195  0.00  0.00    +0.000 N 
ATOM     26  C   UNL     1       6.894   5.032  16.609  0.00  0.00    +0.000 A 
ATOM     27  H   UNL     1       8.427   3.539  16.785  0.00  0.00    +0.000 HD
ENDBRANCH  21  22
ENDBRANCH  20  21
ENDBRANCH   2  20
TORSDOF 5
ENDMDL
MODEL 8
REMARK VINA RESULT:      -6.9      5.127      8.453
REMARK  Name = 
REMARK  5 active torsions:
REMARK  status: ('A' for Active; 'I' for Inactive)
REMARK    1  A    between atoms: C_2  and  C_3
REMARK    2  A    between atoms: C_3  and  C_4
REMARK    3  A    between atoms: C_4  and  C_5
REMARK    4  A    between atoms: C_17  and  C_18
REMARK    5  A    between atoms: C_23  and  O_24
REMARK                            x       y       z     vdW  Elec       q    Type
REMARK                         _______ _______ _______ _____ _____    ______ ____
ROOT
ATOM      1  O   UNL     1       3.068   6.304  20.077  0.00  0.00    +0.000 OA
ATOM      2  C   UNL     1       2.769   7.045  19.139  0.00  0.00    +0.000 C 
ATOM      3  N   UNL     1       1.769   8.010  19.252  0.00  0.00    +0.000 N 
ATOM      4  C   UNL     1       1.365   8.934  18.175  0.00  0.00    +0.000 C 
ATOM      5  C   UNL     1       1.465  10.420  18.567  0.00  0.00    +0.000 C 
ATOM      6  N   UNL     1       0.425  10.789  19.525  0.00  0.00    +0.000 N 
ATOM      7  C   UNL     1      -0.815  11.139  19.094  0.00  0.00    +0.000 A 
ATOM      8  N   UNL     1      -1.837  11.578  19.841  0.00  0.00    +0.000 NA
ATOM      9  O   UNL     1      -2.881  11.713  18.936  0.00  0.00    +0.000 OA
ATOM     10  C   UNL     1      -2.395  11.328  17.721  0.00  0.00    +0.000 A 
ATOM     11  N   UNL     1      -1.123  10.997  17.765  0.00  0.00    +0.000 NA
ATOM     12  C   UNL     1       0.694  10.650  20.956  0.00  0.00    +0.000 C 
ATOM     13  C   UNL     1       1.488   9.381  21.333  0.00  0.00    +0.000 C 
ATOM     14  C   UNL     1       1.057   8.135  20.534  0.00  0.00    +0.000 C 
ENDROOT
BRANCH  10  15
ATOM     15  C   UNL     1      -3.273  11.233  16.482  0.00  0.00    +0.000 C 
ATOM     16  C   UNL     1      -2.760  10.561  15.226  0.00  0.00    +0.000 C 
ATOM     17  C   UNL     1      -3.758   9.852  16.078  0.00  0.00    +0.000 C 
ENDBRANCH  10  15
BRANCH  13  18
ATOM     18  O   UNL     1       1.344   9.143  22.742  0.00  0.00    +0.000 OA
ATOM     19  H   UNL     1       1.394   8.184  22.896  0.00  0.00    +0.000 HD
ENDBRANCH  13  18
BRANCH   2  20
ATOM     20  C   UNL     1       3.489   6.935  17.805  0.00  0.00    +0.000 C 
BRANCH  20  21
ATOM     21  C   UNL     1       4.031   5.525  17.567  0.00  0.00    +0.000 C 
BRANCH  21  22
ATOM     22  C   UNL     1       5.435   5.534  17.065  0.00  0.00    +0.000 A 
ATOM     23  C   UNL     1       6.182   4.450  16.547  0.00  0.00    +0.000 A 
ATOM     24  N   UNL     1       7.412   4.800  16.174  0.00  0.00    +0.000 NA
ATOM     25  N   UNL     1       7.455   6.118  16.426  0.00  0.00    +0.000 N 
ATOM     26  C   UNL     1       6.303   6.603  16.972  0.00  0.00    +0.000 A 
ATOM     27  H   UNL     1       8.305   6.623  16.195  0.00  0.00    +0.000 HD
ENDBRANCH  21  22
ENDBRANCH  20  21
ENDBRANCH   2  20
TORSDOF 5
ENDMDL
MODEL 9
REMARK VINA RESULT:      -6.7      4.761      7.331
REMARK  Name = 
REMARK  5 active torsions:
REMARK  status: ('A' for Active; 'I' for Inactive)
REMARK    1  A    between atoms: C_2  and  C_3
REMARK    2  A    between atoms: C_3  and  C_4
REMARK    3  A    between atoms: C_4  and  C_5
REMARK    4  A    between atoms: C_17  and  C_18
REMARK    5  A    between atoms: C_23  and  O_24
REMARK                            x       y       z     vdW  Elec       q    Type
REMARK                         _______ _______ _______ _____ _____    ______ ____
ROOT
ATOM      1  O   UNL     1       0.081   7.822  21.874  0.00  0.00    +0.000 OA
ATOM      2  C   UNL     1       0.737   8.157  20.887  0.00  0.00    +0.000 C 
ATOM      3  N   UNL     1       1.670   7.306  20.299  0.00  0.00    +0.000 N 
ATOM      4  C   UNL     1       2.484   7.638  19.113  0.00  0.00    +0.000 C 
ATOM      5  C   UNL     1       2.318   6.640  17.952  0.00  0.00    +0.000 C 
ATOM      6  N   UNL     1       2.951   5.358  18.255  0.00  0.00    +0.000 N 
ATOM      7  C   UNL     1       4.278   5.175  18.027  0.00  0.00    +0.000 A 
ATOM      8  N   UNL     1       4.975   4.041  18.177  0.00  0.00    +0.000 NA
ATOM      9  O   UNL     1       6.283   4.411  17.895  0.00  0.00    +0.000 OA
ATOM     10  C   UNL     1       6.258   5.745  17.613  0.00  0.00    +0.000 A 
ATOM     11  N   UNL     1       5.044   6.249  17.652  0.00  0.00    +0.000 NA
ATOM     12  C   UNL     1       2.171   4.321  18.929  0.00  0.00    +0.000 C 
ATOM     13  C   UNL     1       1.235   4.849  20.038  0.00  0.00    +0.000 C 
ATOM     14  C   UNL     1       1.869   5.970  20.885  0.00  0.00    +0.000 C 
ENDROOT
BRANCH  10  15
ATOM     15  C   UNL     1       7.523   6.550  17.356  0.00  0.00    +0.000 C 
ATOM     16  C   UNL     1       7.523   8.056  17.521  0.00  0.00    +0.000 C 
ATOM     17  C   UNL     1       8.184   7.207  18.554  0.00  0.00    +0.000 C 
ENDBRANCH  10  15
BRANCH  13  18
ATOM     18  O   UNL     1       0.841   3.752  20.877  0.00  0.00    +0.000 OA
ATOM     19  H   UNL     1       1.082   2.923  20.428  0.00  0.00    +0.000 HD
ENDBRANCH  13  18
BRANCH   2  20
ATOM     20  C   UNL     1       0.551   9.530  20.263  0.00  0.00    +0.000 C 
BRANCH  20  21
ATOM     21  C   UNL     1       0.779  10.652  21.278  0.00  0.00    +0.000 C 
BRANCH  21  22
ATOM     22  C   UNL     1      -0.497  11.263  21.745  0.00  0.00    +0.000 A 
ATOM     23  C   UNL     1      -1.438  12.000  20.989  0.00  0.00    +0.000 A 
ATOM     24  N   UNL     1      -2.485  12.399  21.711  0.00  0.00    +0.000 NA
ATOM     25  N   UNL     1      -2.235  11.900  22.932  0.00  0.00    +0.000 N 
ATOM     26  C   UNL     1      -1.053  11.224  23.009  0.00  0.00    +0.000 A 
ATOM     27  H   UNL     1      -2.921  12.057  23.664  0.00  0.00    +0.000 HD
ENDBRANCH  21  22
ENDBRANCH  20  21
ENDBRANCH   2  20
TORSDOF 5
ENDMDL
