MODEL 1
REMARK VINA RESULT:      -7.9      0.000      0.000
REMARK  Name = 
REMARK  5 active torsions:
REMARK  status: ('A' for Active; 'I' for Inactive)
REMARK    1  A    between atoms: C_1  and  C_2
REMARK    2  A    between atoms: C_7  and  N_8
REMARK    3  A    between atoms: C_15  and  N_16
REMARK    4  A    between atoms: C_17  and  C_18
REMARK    5  A    between atoms: C_18  and  C_20
REMARK                            x       y       z     vdW  Elec       q    Type
REMARK                         _______ _______ _______ _____ _____    ______ ____
ROOT
ATOM      1  N   UNL     1       4.356   5.001  18.220  0.00  0.00    +0.000 N 
ATOM      2  C   UNL     1       4.324   3.976  19.170  0.00  0.00    +0.000 A 
ATOM      3  O   UNL     1       5.067   2.997  19.186  0.00  0.00    +0.000 OA
ATOM      4  N   UNL     1       3.400   4.093  20.187  0.00  0.00    +0.000 N 
ATOM      5  C   UNL     1       2.599   5.169  20.469  0.00  0.00    +0.000 A 
ATOM      6  O   UNL     1       1.878   5.200  21.461  0.00  0.00    +0.000 OA
ATOM      7  C   UNL     1       2.692   6.246  19.510  0.00  0.00    +0.000 A 
ATOM      8  C   UNL     1       2.002   7.494  19.493  0.00  0.00    +0.000 A 
ATOM      9  C   UNL     1       2.376   8.287  18.423  0.00  0.00    +0.000 A 
ATOM     10  S   UNL     1       3.423   7.423  17.369  0.00  0.00    +0.000 S 
ATOM     11  C   UNL     1       3.544   6.114  18.439  0.00  0.00    +0.000 A 
ATOM     12  H   UNL     1       3.397   3.343  20.860  0.00  0.00    +0.000 HD
ENDROOT
BRANCH   1  19
ATOM     13  C   UNL     1       7.116   6.060  18.398  0.00  0.00    +0.000 C 
ATOM     14  C   UNL     1       6.536   5.453  17.147  0.00  0.00    +0.000 A 
ATOM     15  C   UNL     1       7.354   5.362  16.008  0.00  0.00    +0.000 A 
ATOM     16  C   UNL     1       6.898   4.746  14.842  0.00  0.00    +0.000 A 
ATOM     17  C   UNL     1       5.610   4.225  14.791  0.00  0.00    +0.000 A 
ATOM     18  C   UNL     1       4.777   4.324  15.905  0.00  0.00    +0.000 A 
ATOM     19  C   UNL     1       5.227   4.925  17.095  0.00  0.00    +0.000 A 
ENDBRANCH   1  19
BRANCH   8  20
ATOM     20  N   UNL     1       1.106   7.833  20.446  0.00  0.00    +0.000 N 
ATOM     21  H   UNL     1       1.126   7.384  21.365  0.00  0.00    +0.000 HD
ATOM     22  H   UNL     1       0.237   8.332  20.269  0.00  0.00    +0.000 HD
ENDBRANCH   8  20
BRANCH   9  23
ATOM     23  C   UNL     1       2.023   9.653  18.059  0.00  0.00    +0.000 C 
ATOM     24  O   UNL     1       2.819  10.454  17.569  0.00  0.00    +0.000 OA
BRANCH  23  25
ATOM     25  C   UNL     1       0.635  10.147  18.303  0.00  0.00    +0.000 A 
ATOM     26  C   UNL     1       0.442  11.157  19.257  0.00  0.00    +0.000 A 
ATOM     27  C   UNL     1      -0.836  11.669  19.495  0.00  0.00    +0.000 A 
ATOM     28  C   UNL     1      -1.927  11.172  18.783  0.00  0.00    +0.000 A 
ATOM     29 CL   UNL     1      -3.497  11.816  19.060  0.00  0.00    +0.000 Cl
ATOM     30  C   UNL     1      -1.753  10.154  17.847  0.00  0.00    +0.000 A 
ATOM     31  C   UNL     1      -0.478   9.628  17.622  0.00  0.00    +0.000 A 
ENDBRANCH  23  25
ENDBRANCH   9  23
TORSDOF 4
ENDMDL
MODEL 2
REMARK VINA RESULT:      -7.5      4.973     10.216
REMARK  Name = 
REMARK  5 active torsions:
REMARK  status: ('A' for Active; 'I' for Inactive)
REMARK    1  A    between atoms: C_1  and  C_2
REMARK    2  A    between atoms: C_7  and  N_8
REMARK    3  A    between atoms: C_15  and  N_16
REMARK    4  A    between atoms: C_17  and  C_18
REMARK    5  A    between atoms: C_18  and  C_20
REMARK                            x       y       z     vdW  Elec       q    Type
REMARK                         _______ _______ _______ _____ _____    ______ ____
ROOT
ATOM      1  N   UNL     1      -3.841  12.874  20.518  0.00  0.00    +0.000 N 
ATOM      2  C   UNL     1      -5.087  12.961  19.889  0.00  0.00    +0.000 A 
ATOM      3  O   UNL     1      -6.064  13.567  20.326  0.00  0.00    +0.000 OA
ATOM      4  N   UNL     1      -5.216  12.339  18.665  0.00  0.00    +0.000 N 
ATOM      5  C   UNL     1      -4.226  11.763  17.912  0.00  0.00    +0.000 A 
ATOM      6  O   UNL     1      -4.440  11.320  16.788  0.00  0.00    +0.000 OA
ATOM      7  C   UNL     1      -2.931  11.739  18.552  0.00  0.00    +0.000 A 
ATOM      8  C   UNL     1      -1.699  11.214  18.062  0.00  0.00    +0.000 A 
ATOM      9  C   UNL     1      -0.658  11.399  18.954  0.00  0.00    +0.000 A 
ATOM     10  S   UNL     1      -1.240  12.044  20.437  0.00  0.00    +0.000 S 
ATOM     11  C   UNL     1      -2.799  12.275  19.811  0.00  0.00    +0.000 A 
ATOM     12  H   UNL     1      -6.122  12.418  18.231  0.00  0.00    +0.000 HD
ENDROOT
BRANCH   1  19
ATOM     13  C   UNL     1      -2.957  15.683  20.830  0.00  0.00    +0.000 C 
ATOM     14  C   UNL     1      -3.188  14.749  21.989  0.00  0.00    +0.000 A 
ATOM     15  C   UNL     1      -2.996  15.242  23.291  0.00  0.00    +0.000 A 
ATOM     16  C   UNL     1      -3.263  14.448  24.407  0.00  0.00    +0.000 A 
ATOM     17  C   UNL     1      -3.710  13.143  24.238  0.00  0.00    +0.000 A 
ATOM     18  C   UNL     1      -3.887  12.630  22.953  0.00  0.00    +0.000 A 
ATOM     19  C   UNL     1      -3.641  13.422  21.817  0.00  0.00    +0.000 A 
ENDBRANCH   1  19
BRANCH   8  20
ATOM     20  N   UNL     1      -1.598  10.629  16.849  0.00  0.00    +0.000 N 
ATOM     21  H   UNL     1      -1.013  11.043  16.117  0.00  0.00    +0.000 HD
ATOM     22  H   UNL     1      -2.243   9.929  16.490  0.00  0.00    +0.000 HD
ENDBRANCH   8  20
BRANCH   9  23
ATOM     23  C   UNL     1       0.770  11.127  18.847  0.00  0.00    +0.000 C 
ATOM     24  O   UNL     1       1.609  11.987  18.580  0.00  0.00    +0.000 OA
BRANCH  23  25
ATOM     25  C   UNL     1       1.273   9.734  19.045  0.00  0.00    +0.000 A 
ATOM     26  C   UNL     1       1.874   9.080  17.959  0.00  0.00    +0.000 A 
ATOM     27  C   UNL     1       2.384   7.788  18.109  0.00  0.00    +0.000 A 
ATOM     28  C   UNL     1       2.294   7.144  19.342  0.00  0.00    +0.000 A 
ATOM     29 CL   UNL     1       2.941   5.562  19.532  0.00  0.00    +0.000 Cl
ATOM     30  C   UNL     1       1.681   7.774  20.423  0.00  0.00    +0.000 A 
ATOM     31  C   UNL     1       1.153   9.058  20.270  0.00  0.00    +0.000 A 
ENDBRANCH  23  25
ENDBRANCH   9  23
TORSDOF 4
ENDMDL
MODEL 3
REMARK VINA RESULT:      -7.5      8.405      9.995
REMARK  Name = 
REMARK  5 active torsions:
REMARK  status: ('A' for Active; 'I' for Inactive)
REMARK    1  A    between atoms: C_1  and  C_2
REMARK    2  A    between atoms: C_7  and  N_8
REMARK    3  A    between atoms: C_15  and  N_16
REMARK    4  A    between atoms: C_17  and  C_18
REMARK    5  A    between atoms: C_18  and  C_20
REMARK                            x       y       z     vdW  Elec       q    Type
REMARK                         _______ _______ _______ _____ _____    ______ ____
ROOT
ATOM      1  N   UNL     1      10.228  13.968  18.255  0.00  0.00    +0.000 N 
ATOM      2  C   UNL     1      11.450  14.212  17.621  0.00  0.00    +0.000 A 
ATOM      3  O   UNL     1      12.257  13.351  17.277  0.00  0.00    +0.000 OA
ATOM      4  N   UNL     1      11.756  15.525  17.335  0.00  0.00    +0.000 N 
ATOM      5  C   UNL     1      10.942  16.621  17.464  0.00  0.00    +0.000 A 
ATOM      6  O   UNL     1      11.290  17.736  17.088  0.00  0.00    +0.000 OA
ATOM      7  C   UNL     1       9.658  16.339  18.063  0.00  0.00    +0.000 A 
ATOM      8  C   UNL     1       8.586  17.235  18.349  0.00  0.00    +0.000 A 
ATOM      9  C   UNL     1       7.495  16.589  18.903  0.00  0.00    +0.000 A 
ATOM     10  S   UNL     1       7.868  14.943  19.227  0.00  0.00    +0.000 S 
ATOM     11  C   UNL     1       9.365  15.049  18.437  0.00  0.00    +0.000 A 
ATOM     12  H   UNL     1      12.641  15.676  16.877  0.00  0.00    +0.000 HD
ENDROOT
BRANCH   1  19
ATOM     13  C   UNL     1      10.668  13.082  21.047  0.00  0.00    +0.000 C 
ATOM     14  C   UNL     1      10.095  12.196  19.973  0.00  0.00    +0.000 A 
ATOM     15  C   UNL     1       9.726  10.883  20.316  0.00  0.00    +0.000 A 
ATOM     16  C   UNL     1       9.124  10.038  19.384  0.00  0.00    +0.000 A 
ATOM     17  C   UNL     1       8.895  10.485  18.088  0.00  0.00    +0.000 A 
ATOM     18  C   UNL     1       9.272  11.778  17.722  0.00  0.00    +0.000 A 
ATOM     19  C   UNL     1       9.864  12.650  18.655  0.00  0.00    +0.000 A 
ENDBRANCH   1  19
BRANCH   8  20
ATOM     20  N   UNL     1       8.659  18.555  18.074  0.00  0.00    +0.000 N 
ATOM     21  H   UNL     1       8.743  18.884  17.108  0.00  0.00    +0.000 HD
ATOM     22  H   UNL     1       8.885  19.275  18.756  0.00  0.00    +0.000 HD
ENDBRANCH   8  20
BRANCH   9  23
ATOM     23  C   UNL     1       6.164  17.065  19.256  0.00  0.00    +0.000 C 
ATOM     24  O   UNL     1       5.930  18.209  19.646  0.00  0.00    +0.000 OA
BRANCH  23  25
ATOM     25  C   UNL     1       5.000  16.132  19.172  0.00  0.00    +0.000 A 
ATOM     26  C   UNL     1       4.449  15.860  17.911  0.00  0.00    +0.000 A 
ATOM     27  C   UNL     1       3.379  14.971  17.785  0.00  0.00    +0.000 A 
ATOM     28  C   UNL     1       2.853  14.352  18.918  0.00  0.00    +0.000 A 
ATOM     29 CL   UNL     1       1.549  13.242  18.761  0.00  0.00    +0.000 Cl
ATOM     30  C   UNL     1       3.376  14.629  20.179  0.00  0.00    +0.000 A 
ATOM     31  C   UNL     1       4.434  15.533  20.309  0.00  0.00    +0.000 A 
ENDBRANCH  23  25
ENDBRANCH   9  23
TORSDOF 4
ENDMDL
MODEL 4
REMARK VINA RESULT:      -7.4      4.537      9.699
REMARK  Name = 
REMARK  5 active torsions:
REMARK  status: ('A' for Active; 'I' for Inactive)
REMARK    1  A    between atoms: C_1  and  C_2
REMARK    2  A    between atoms: C_7  and  N_8
REMARK    3  A    between atoms: C_15  and  N_16
REMARK    4  A    between atoms: C_17  and  C_18
REMARK    5  A    between atoms: C_18  and  C_20
REMARK                            x       y       z     vdW  Elec       q    Type
REMARK                         _______ _______ _______ _____ _____    ______ ____
ROOT
ATOM      1  N   UNL     1      -2.596  13.134  20.539  0.00  0.00    +0.000 N 
ATOM      2  C   UNL     1      -3.928  13.272  20.135  0.00  0.00    +0.000 A 
ATOM      3  O   UNL     1      -4.727  14.089  20.588  0.00  0.00    +0.000 OA
ATOM      4  N   UNL     1      -4.366  12.441  19.126  0.00  0.00    +0.000 N 
ATOM      5  C   UNL     1      -3.614  11.588  18.360  0.00  0.00    +0.000 A 
ATOM      6  O   UNL     1      -4.097  10.963  17.421  0.00  0.00    +0.000 OA
ATOM      7  C   UNL     1      -2.226  11.505  18.751  0.00  0.00    +0.000 A 
ATOM      8  C   UNL     1      -1.179  10.720  18.185  0.00  0.00    +0.000 A 
ATOM      9  C   UNL     1       0.034  10.928  18.814  0.00  0.00    +0.000 A 
ATOM     10  S   UNL     1      -0.165  11.937  20.192  0.00  0.00    +0.000 S 
ATOM     11  C   UNL     1      -1.786  12.260  19.813  0.00  0.00    +0.000 A 
ATOM     12  H   UNL     1      -5.328  12.561  18.851  0.00  0.00    +0.000 HD
ENDROOT
BRANCH   1  19
ATOM     13  C   UNL     1      -2.713  12.070  23.300  0.00  0.00    +0.000 C 
ATOM     14  C   UNL     1      -2.155  13.425  22.953  0.00  0.00    +0.000 A 
ATOM     15  C   UNL     1      -1.639  14.220  23.991  0.00  0.00    +0.000 A 
ATOM     16  C   UNL     1      -1.044  15.454  23.724  0.00  0.00    +0.000 A 
ATOM     17  C   UNL     1      -0.969  15.919  22.417  0.00  0.00    +0.000 A 
ATOM     18  C   UNL     1      -1.493  15.153  21.375  0.00  0.00    +0.000 A 
ATOM     19  C   UNL     1      -2.080  13.899  21.624  0.00  0.00    +0.000 A 
ENDBRANCH   1  19
BRANCH   8  20
ATOM     20  N   UNL     1      -1.387   9.893  17.137  0.00  0.00    +0.000 N 
ATOM     21  H   UNL     1      -1.351  10.248  16.177  0.00  0.00    +0.000 HD
ATOM     22  H   UNL     1      -1.824   8.976  17.202  0.00  0.00    +0.000 HD
ENDBRANCH   8  20
BRANCH   9  23
ATOM     23  C   UNL     1       1.374  10.436  18.523  0.00  0.00    +0.000 C 
ATOM     24  O   UNL     1       2.246  11.114  17.978  0.00  0.00    +0.000 OA
BRANCH  23  25
ATOM     25  C   UNL     1       1.736   9.029  18.871  0.00  0.00    +0.000 A 
ATOM     26  C   UNL     1       2.380   8.245  17.901  0.00  0.00    +0.000 A 
ATOM     27  C   UNL     1       2.763   6.933  18.195  0.00  0.00    +0.000 A 
ATOM     28  C   UNL     1       2.501   6.399  19.456  0.00  0.00    +0.000 A 
ATOM     29 CL   UNL     1       2.990   4.792  19.823  0.00  0.00    +0.000 Cl
ATOM     30  C   UNL     1       1.843   7.159  20.420  0.00  0.00    +0.000 A 
ATOM     31  C   UNL     1       1.443   8.464  20.122  0.00  0.00    +0.000 A 
ENDBRANCH  23  25
ENDBRANCH   9  23
TORSDOF 4
ENDMDL
MODEL 5
REMARK VINA RESULT:      -7.4      1.016      1.410
REMARK  Name = 
REMARK  5 active torsions:
REMARK  status: ('A' for Active; 'I' for Inactive)
REMARK    1  A    between atoms: C_1  and  C_2
REMARK    2  A    between atoms: C_7  and  N_8
REMARK    3  A    between atoms: C_15  and  N_16
REMARK    4  A    between atoms: C_17  and  C_18
REMARK    5  A    between atoms: C_18  and  C_20
REMARK                            x       y       z     vdW  Elec       q    Type
REMARK                         _______ _______ _______ _____ _____    ______ ____
ROOT
ATOM      1  N   UNL     1       4.407   4.634  18.406  0.00  0.00    +0.000 N 
ATOM      2  C   UNL     1       4.401   3.574  19.319  0.00  0.00    +0.000 A 
ATOM      3  O   UNL     1       5.181   2.625  19.311  0.00  0.00    +0.000 OA
ATOM      4  N   UNL     1       3.459   3.620  20.325  0.00  0.00    +0.000 N 
ATOM      5  C   UNL     1       2.614   4.654  20.633  0.00  0.00    +0.000 A 
ATOM      6  O   UNL     1       1.879   4.622  21.616  0.00  0.00    +0.000 OA
ATOM      7  C   UNL     1       2.679   5.768  19.715  0.00  0.00    +0.000 A 
ATOM      8  C   UNL     1       1.942   6.988  19.732  0.00  0.00    +0.000 A 
ATOM      9  C   UNL     1       2.300   7.833  18.697  0.00  0.00    +0.000 A 
ATOM     10  S   UNL     1       3.393   7.048  17.628  0.00  0.00    +0.000 S 
ATOM     11  C   UNL     1       3.549   5.707  18.653  0.00  0.00    +0.000 A 
ATOM     12  H   UNL     1       3.476   2.847  20.972  0.00  0.00    +0.000 HD
ENDROOT
BRANCH   1  19
ATOM     13  C   UNL     1       7.145   5.728  18.681  0.00  0.00    +0.000 C 
ATOM     14  C   UNL     1       6.594   5.178  17.392  0.00  0.00    +0.000 A 
ATOM     15  C   UNL     1       7.430   5.160  16.262  0.00  0.00    +0.000 A 
ATOM     16  C   UNL     1       7.002   4.599  15.059  0.00  0.00    +0.000 A 
ATOM     17  C   UNL     1       5.724   4.060  14.962  0.00  0.00    +0.000 A 
ATOM     18  C   UNL     1       4.872   4.086  16.066  0.00  0.00    +0.000 A 
ATOM     19  C   UNL     1       5.295   4.632  17.293  0.00  0.00    +0.000 A 
ENDBRANCH   1  19
BRANCH   8  20
ATOM     20  N   UNL     1       1.021   7.259  20.683  0.00  0.00    +0.000 N 
ATOM     21  H   UNL     1       1.278   7.780  21.526  0.00  0.00    +0.000 HD
ATOM     22  H   UNL     1       0.125   6.785  20.770  0.00  0.00    +0.000 HD
ENDBRANCH   8  20
BRANCH   9  23
ATOM     23  C   UNL     1       1.900   9.197  18.377  0.00  0.00    +0.000 C 
ATOM     24  O   UNL     1       2.308   9.813  17.392  0.00  0.00    +0.000 OA
BRANCH  23  25
ATOM     25  C   UNL     1       0.963   9.925  19.285  0.00  0.00    +0.000 A 
ATOM     26  C   UNL     1      -0.333  10.203  18.826  0.00  0.00    +0.000 A 
ATOM     27  C   UNL     1      -1.250  10.856  19.654  0.00  0.00    +0.000 A 
ATOM     28  C   UNL     1      -0.875  11.237  20.941  0.00  0.00    +0.000 A 
ATOM     29 CL   UNL     1      -2.010  12.022  21.967  0.00  0.00    +0.000 Cl
ATOM     30  C   UNL     1       0.416  10.986  21.402  0.00  0.00    +0.000 A 
ATOM     31  C   UNL     1       1.340  10.351  20.569  0.00  0.00    +0.000 A 
ENDBRANCH  23  25
ENDBRANCH   9  23
TORSDOF 4
ENDMDL
MODEL 6
REMARK VINA RESULT:      -7.2      4.554      9.688
REMARK  Name = 
REMARK  5 active torsions:
REMARK  status: ('A' for Active; 'I' for Inactive)
REMARK    1  A    between atoms: C_1  and  C_2
REMARK    2  A    between atoms: C_7  and  N_8
REMARK    3  A    between atoms: C_15  and  N_16
REMARK    4  A    between atoms: C_17  and  C_18
REMARK    5  A    between atoms: C_18  and  C_20
REMARK                            x       y       z     vdW  Elec       q    Type
REMARK                         _______ _______ _______ _____ _____    ______ ____
ROOT
ATOM      1  N   UNL     1      -2.869  12.796  20.464  0.00  0.00    +0.000 N 
ATOM      2  C   UNL     1      -4.169  12.965  19.976  0.00  0.00    +0.000 A 
ATOM      3  O   UNL     1      -5.008  13.736  20.438  0.00  0.00    +0.000 OA
ATOM      4  N   UNL     1      -4.523  12.226  18.867  0.00  0.00    +0.000 N 
ATOM      5  C   UNL     1      -3.708  11.446  18.087  0.00  0.00    +0.000 A 
ATOM      6  O   UNL     1      -4.113  10.906  17.063  0.00  0.00    +0.000 OA
ATOM      7  C   UNL     1      -2.352  11.334  18.572  0.00  0.00    +0.000 A 
ATOM      8  C   UNL     1      -1.258  10.606  18.018  0.00  0.00    +0.000 A 
ATOM      9  C   UNL     1      -0.097  10.761  18.752  0.00  0.00    +0.000 A 
ATOM     10  S   UNL     1      -0.408  11.643  20.195  0.00  0.00    +0.000 S 
ATOM     11  C   UNL     1      -1.999  11.993  19.726  0.00  0.00    +0.000 A 
ATOM     12  H   UNL     1      -5.463  12.367  18.533  0.00  0.00    +0.000 HD
ENDROOT
BRANCH   1  19
ATOM     13  C   UNL     1      -1.496  15.414  20.288  0.00  0.00    +0.000 C 
ATOM     14  C   UNL     1      -1.757  14.697  21.586  0.00  0.00    +0.000 A 
ATOM     15  C   UNL     1      -1.349  15.311  22.783  0.00  0.00    +0.000 A 
ATOM     16  C   UNL     1      -1.626  14.731  24.021  0.00  0.00    +0.000 A 
ATOM     17  C   UNL     1      -2.302  13.518  24.082  0.00  0.00    +0.000 A 
ATOM     18  C   UNL     1      -2.698  12.883  22.904  0.00  0.00    +0.000 A 
ATOM     19  C   UNL     1      -2.443  13.463  21.648  0.00  0.00    +0.000 A 
ENDBRANCH   1  19
BRANCH   8  20
ATOM     20  N   UNL     1      -1.380   9.875  16.888  0.00  0.00    +0.000 N 
ATOM     21  H   UNL     1      -2.219   9.949  16.307  0.00  0.00    +0.000 HD
ATOM     22  H   UNL     1      -0.817   9.058  16.666  0.00  0.00    +0.000 HD
ENDBRANCH   8  20
BRANCH   9  23
ATOM     23  C   UNL     1       1.266  10.301  18.520  0.00  0.00    +0.000 C 
ATOM     24  O   UNL     1       2.136  10.990  17.987  0.00  0.00    +0.000 OA
BRANCH  23  25
ATOM     25  C   UNL     1       1.656   8.915  18.917  0.00  0.00    +0.000 A 
ATOM     26  C   UNL     1       2.244   8.083  17.952  0.00  0.00    +0.000 A 
ATOM     27  C   UNL     1       2.650   6.789  18.289  0.00  0.00    +0.000 A 
ATOM     28  C   UNL     1       2.468   6.320  19.589  0.00  0.00    +0.000 A 
ATOM     29 CL   UNL     1       2.986   4.736  20.009  0.00  0.00    +0.000 Cl
ATOM     30  C   UNL     1       1.865   7.128  20.551  0.00  0.00    +0.000 A 
ATOM     31  C   UNL     1       1.441   8.415  20.211  0.00  0.00    +0.000 A 
ENDBRANCH  23  25
ENDBRANCH   9  23
TORSDOF 4
ENDMDL
MODEL 7
REMARK VINA RESULT:      -7.1      4.844     10.067
REMARK  Name = 
REMARK  5 active torsions:
REMARK  status: ('A' for Active; 'I' for Inactive)
REMARK    1  A    between atoms: C_1  and  C_2
REMARK    2  A    between atoms: C_7  and  N_8
REMARK    3  A    between atoms: C_15  and  N_16
REMARK    4  A    between atoms: C_17  and  C_18
REMARK    5  A    between atoms: C_18  and  C_20
REMARK                            x       y       z     vdW  Elec       q    Type
REMARK                         _______ _______ _______ _____ _____    ______ ____
ROOT
ATOM      1  N   UNL     1      -3.253  13.359  20.620  0.00  0.00    +0.000 N 
ATOM      2  C   UNL     1      -4.572  13.397  20.156  0.00  0.00    +0.000 A 
ATOM      3  O   UNL     1      -5.453  14.145  20.576  0.00  0.00    +0.000 OA
ATOM      4  N   UNL     1      -4.897  12.544  19.123  0.00  0.00    +0.000 N 
ATOM      5  C   UNL     1      -4.048  11.758  18.389  0.00  0.00    +0.000 A 
ATOM      6  O   UNL     1      -4.436  11.106  17.425  0.00  0.00    +0.000 OA
ATOM      7  C   UNL     1      -2.677  11.781  18.843  0.00  0.00    +0.000 A 
ATOM      8  C   UNL     1      -1.547  11.084  18.321  0.00  0.00    +0.000 A 
ATOM      9  C   UNL     1      -0.383  11.380  19.007  0.00  0.00    +0.000 A 
ATOM     10  S   UNL     1      -0.724  12.358  20.379  0.00  0.00    +0.000 S 
ATOM     11  C   UNL     1      -2.345  12.558  19.928  0.00  0.00    +0.000 A 
ATOM     12  H   UNL     1      -5.853  12.591  18.805  0.00  0.00    +0.000 HD
ENDROOT
BRANCH   1  19
ATOM     13  C   UNL     1      -3.254  12.209  23.349  0.00  0.00    +0.000 C 
ATOM     14  C   UNL     1      -2.872  13.634  23.047  0.00  0.00    +0.000 A 
ATOM     15  C   UNL     1      -2.472  14.458  24.112  0.00  0.00    +0.000 A 
ATOM     16  C   UNL     1      -2.039  15.765  23.887  0.00  0.00    +0.000 A 
ATOM     17  C   UNL     1      -2.014  16.274  22.594  0.00  0.00    +0.000 A 
ATOM     18  C   UNL     1      -2.427  15.478  21.526  0.00  0.00    +0.000 A 
ATOM     19  C   UNL     1      -2.849  14.152  21.732  0.00  0.00    +0.000 A 
ENDBRANCH   1  19
BRANCH   8  20
ATOM     20  N   UNL     1      -1.642  10.253  17.260  0.00  0.00    +0.000 N 
ATOM     21  H   UNL     1      -0.805   9.964  16.746  0.00  0.00    +0.000 HD
ATOM     22  H   UNL     1      -2.502  10.064  16.750  0.00  0.00    +0.000 HD
ENDBRANCH   8  20
BRANCH   9  23
ATOM     23  C   UNL     1       1.003  10.996  18.775  0.00  0.00    +0.000 C 
ATOM     24  O   UNL     1       1.855  11.761  18.322  0.00  0.00    +0.000 OA
BRANCH  23  25
ATOM     25  C   UNL     1       1.443   9.600  19.072  0.00  0.00    +0.000 A 
ATOM     26  C   UNL     1       1.172   9.069  20.342  0.00  0.00    +0.000 A 
ATOM     27  C   UNL     1       1.540   7.757  20.651  0.00  0.00    +0.000 A 
ATOM     28  C   UNL     1       2.181   6.971  19.694  0.00  0.00    +0.000 A 
ATOM     29 CL   UNL     1       2.615   5.350  20.068  0.00  0.00    +0.000 Cl
ATOM     30  C   UNL     1       2.475   7.493  18.436  0.00  0.00    +0.000 A 
ATOM     31  C   UNL     1       2.125   8.811  18.132  0.00  0.00    +0.000 A 
ENDBRANCH  23  25
ENDBRANCH   9  23
TORSDOF 4
ENDMDL
MODEL 8
REMARK VINA RESULT:      -7.1      5.486     10.876
REMARK  Name = 
REMARK  5 active torsions:
REMARK  status: ('A' for Active; 'I' for Inactive)
REMARK    1  A    between atoms: C_1  and  C_2
REMARK    2  A    between atoms: C_7  and  N_8
REMARK    3  A    between atoms: C_15  and  N_16
REMARK    4  A    between atoms: C_17  and  C_18
REMARK    5  A    between atoms: C_18  and  C_20
REMARK                            x       y       z     vdW  Elec       q    Type
REMARK                         _______ _______ _______ _____ _____    ______ ____
ROOT
ATOM      1  N   UNL     1      -5.478  12.530  19.005  0.00  0.00    +0.000 N 
ATOM      2  C   UNL     1      -6.322  12.341  17.906  0.00  0.00    +0.000 A 
ATOM      3  O   UNL     1      -7.471  12.769  17.810  0.00  0.00    +0.000 OA
ATOM      4  N   UNL     1      -5.808  11.644  16.833  0.00  0.00    +0.000 N 
ATOM      5  C   UNL     1      -4.514  11.233  16.646  0.00  0.00    +0.000 A 
ATOM      6  O   UNL     1      -4.146  10.699  15.604  0.00  0.00    +0.000 OA
ATOM      7  C   UNL     1      -3.640  11.492  17.768  0.00  0.00    +0.000 A 
ATOM      8  C   UNL     1      -2.254  11.192  17.913  0.00  0.00    +0.000 A 
ATOM      9  C   UNL     1      -1.747  11.620  19.126  0.00  0.00    +0.000 A 
ATOM     10  S   UNL     1      -3.009  12.216  20.131  0.00  0.00    +0.000 S 
ATOM     11  C   UNL     1      -4.153  12.108  18.884  0.00  0.00    +0.000 A 
ATOM     12  H   UNL     1      -6.434  11.523  16.053  0.00  0.00    +0.000 HD
ENDROOT
BRANCH   1  19
ATOM     13  C   UNL     1      -7.152  11.043  20.945  0.00  0.00    +0.000 C 
ATOM     14  C   UNL     1      -6.776  12.493  21.108  0.00  0.00    +0.000 A 
ATOM     15  C   UNL     1      -7.223  13.174  22.253  0.00  0.00    +0.000 A 
ATOM     16  C   UNL     1      -6.850  14.496  22.496  0.00  0.00    +0.000 A 
ATOM     17  C   UNL     1      -6.036  15.164  21.589  0.00  0.00    +0.000 A 
ATOM     18  C   UNL     1      -5.598  14.511  20.436  0.00  0.00    +0.000 A 
ATOM     19  C   UNL     1      -5.950  13.173  20.185  0.00  0.00    +0.000 A 
ENDBRANCH   1  19
BRANCH   8  20
ATOM     20  N   UNL     1      -1.546  10.576  16.941  0.00  0.00    +0.000 N 
ATOM     21  H   UNL     1      -0.825   9.888  17.176  0.00  0.00    +0.000 HD
ATOM     22  H   UNL     1      -1.482  10.901  15.979  0.00  0.00    +0.000 HD
ENDBRANCH   8  20
BRANCH   9  23
ATOM     23  C   UNL     1      -0.394  11.624  19.665  0.00  0.00    +0.000 C 
ATOM     24  O   UNL     1       0.161  12.631  20.106  0.00  0.00    +0.000 OA
BRANCH  23  25
ATOM     25  C   UNL     1       0.401  10.359  19.675  0.00  0.00    +0.000 A 
ATOM     26  C   UNL     1       0.382   9.567  20.833  0.00  0.00    +0.000 A 
ATOM     27  C   UNL     1       1.088   8.362  20.875  0.00  0.00    +0.000 A 
ATOM     28  C   UNL     1       1.817   7.945  19.763  0.00  0.00    +0.000 A 
ATOM     29 CL   UNL     1       2.669   6.452  19.807  0.00  0.00    +0.000 Cl
ATOM     30  C   UNL     1       1.862   8.732  18.614  0.00  0.00    +0.000 A 
ATOM     31  C   UNL     1       1.173   9.947  18.577  0.00  0.00    +0.000 A 
ENDBRANCH  23  25
ENDBRANCH   9  23
TORSDOF 4
ENDMDL
MODEL 9
REMARK VINA RESULT:      -7.0      6.807     10.986
REMARK  Name = 
REMARK  5 active torsions:
REMARK  status: ('A' for Active; 'I' for Inactive)
REMARK    1  A    between atoms: C_1  and  C_2
REMARK    2  A    between atoms: C_7  and  N_8
REMARK    3  A    between atoms: C_15  and  N_16
REMARK    4  A    between atoms: C_17  and  C_18
REMARK    5  A    between atoms: C_18  and  C_20
REMARK                            x       y       z     vdW  Elec       q    Type
REMARK                         _______ _______ _______ _____ _____    ______ ____
ROOT
ATOM      1  N   UNL     1      -5.487  12.559  18.819  0.00  0.00    +0.000 N 
ATOM      2  C   UNL     1      -6.216  12.259  17.665  0.00  0.00    +0.000 A 
ATOM      3  O   UNL     1      -7.364  12.633  17.430  0.00  0.00    +0.000 OA
ATOM      4  N   UNL     1      -5.581  11.505  16.701  0.00  0.00    +0.000 N 
ATOM      5  C   UNL     1      -4.262  11.132  16.666  0.00  0.00    +0.000 A 
ATOM      6  O   UNL     1      -3.780  10.539  15.706  0.00  0.00    +0.000 OA
ATOM      7  C   UNL     1      -3.508  11.507  17.840  0.00  0.00    +0.000 A 
ATOM      8  C   UNL     1      -2.133  11.272  18.136  0.00  0.00    +0.000 A 
ATOM      9  C   UNL     1      -1.758  11.807  19.354  0.00  0.00    +0.000 A 
ATOM     10  S   UNL     1      -3.128  12.425  20.189  0.00  0.00    +0.000 S 
ATOM     11  C   UNL     1      -4.144  12.183  18.854  0.00  0.00    +0.000 A 
ATOM     12  H   UNL     1      -6.126  11.304  15.877  0.00  0.00    +0.000 HD
ENDROOT
BRANCH   1  19
ATOM     13  C   UNL     1      -7.174  11.127  20.787  0.00  0.00    +0.000 C 
ATOM     14  C   UNL     1      -6.924  12.611  20.830  0.00  0.00    +0.000 A 
ATOM     15  C   UNL     1      -7.502  13.356  21.872  0.00  0.00    +0.000 A 
ATOM     16  C   UNL     1      -7.250  14.722  22.006  0.00  0.00    +0.000 A 
ATOM     17  C   UNL     1      -6.427  15.368  21.091  0.00  0.00    +0.000 A 
ATOM     18  C   UNL     1      -5.860  14.649  20.038  0.00  0.00    +0.000 A 
ATOM     19  C   UNL     1      -6.089  13.268  19.898  0.00  0.00    +0.000 A 
ENDBRANCH   1  19
BRANCH   8  20
ATOM     20  N   UNL     1      -1.316  10.614  17.284  0.00  0.00    +0.000 N 
ATOM     21  H   UNL     1      -0.678   9.891  17.625  0.00  0.00    +0.000 HD
ATOM     22  H   UNL     1      -1.087  10.931  16.344  0.00  0.00    +0.000 HD
ENDBRANCH   8  20
BRANCH   9  23
ATOM     23  C   UNL     1      -0.462  11.903  20.014  0.00  0.00    +0.000 C 
ATOM     24  O   UNL     1      -0.181  11.306  21.053  0.00  0.00    +0.000 OA
BRANCH  23  25
ATOM     25  C   UNL     1       0.597  12.784  19.436  0.00  0.00    +0.000 A 
ATOM     26  C   UNL     1       1.672  12.184  18.762  0.00  0.00    +0.000 A 
ATOM     27  C   UNL     1       2.669  12.972  18.182  0.00  0.00    +0.000 A 
ATOM     28  C   UNL     1       2.599  14.360  18.274  0.00  0.00    +0.000 A 
ATOM     29 CL   UNL     1       3.815  15.331  17.542  0.00  0.00    +0.000 Cl
ATOM     30  C   UNL     1       1.549  14.969  18.959  0.00  0.00    +0.000 A 
ATOM     31  C   UNL     1       0.561  14.182  19.556  0.00  0.00    +0.000 A 
ENDBRANCH  23  25
ENDBRANCH   9  23
TORSDOF 4
ENDMDL
