MODEL 1
REMARK VINA RESULT:      -7.4      0.000      0.000
REMARK  Name = 
REMARK  9 active torsions:
REMARK  status: ('A' for Active; 'I' for Inactive)
REMARK    1  A    between atoms: C_1  and  N_2
REMARK    2  A    between atoms: N_2  and  C_3
REMARK    3  A    between atoms: C_3  and  C_4
REMARK    4  A    between atoms: N_11  and  C_12
REMARK    5  A    between atoms: C_12  and  C_13
REMARK    6  A    between atoms: C_18  and  C_19
REMARK    7  A    between atoms: C_19  and  C_20
REMARK    8  A    between atoms: C_19  and  C_21
REMARK    9  A    between atoms: C_19  and  C_22
REMARK                            x       y       z     vdW  Elec       q    Type
REMARK                         _______ _______ _______ _____ _____    ______ ____
ROOT
ATOM      1  C   UNL     1       7.883   4.561  17.739  0.00  0.00    +0.000 C 
ATOM      2  N   UNL     1       6.670   4.718  16.934  0.00  0.00    +0.000 N 
ATOM      3  C   UNL     1       5.483   4.297  17.531  0.00  0.00    +0.000 C 
ATOM      4  O   UNL     1       5.459   3.728  18.622  0.00  0.00    +0.000 OA
ATOM      5  N   UNL     1       4.314   4.561  16.845  0.00  0.00    +0.000 N 
ATOM      6  H   UNL     1       4.388   4.465  15.845  0.00  0.00    +0.000 HD
ENDROOT
BRANCH   2   7
ATOM      7  C   UNL     1       6.745   5.676  15.830  0.00  0.00    +0.000 C 
BRANCH   7   8
ATOM      8  C   UNL     1       6.787   5.053  14.464  0.00  0.00    +0.000 A 
ATOM      9  C   UNL     1       6.058   3.985  13.975  0.00  0.00    +0.000 A 
ATOM     10  C   UNL     1       6.522   3.681  12.675  0.00  0.00    +0.000 A 
ATOM     11  C   UNL     1       7.513   4.584  12.389  0.00  0.00    +0.000 A 
ATOM     12  N   UNL     1       7.660   5.425  13.462  0.00  0.00    +0.000 N 
ATOM     13  H   UNL     1       8.310   6.198  13.521  0.00  0.00    +0.000 HD
ENDBRANCH   7   8
ENDBRANCH   2   7
BRANCH   5  14
ATOM     14  C   UNL     1       3.040   4.094  17.405  0.00  0.00    +0.000 C 
BRANCH  14  15
ATOM     15  C   UNL     1       2.547   4.893  18.594  0.00  0.00    +0.000 A 
ATOM     16  C   UNL     1       2.581   6.288  18.389  0.00  0.00    +0.000 A 
ATOM     17  N   UNL     1       2.239   7.240  19.287  0.00  0.00    +0.000 NA
ATOM     18  C   UNL     1       1.846   6.794  20.481  0.00  0.00    +0.000 A 
ATOM     19  C   UNL     1       1.783   5.449  20.811  0.00  0.00    +0.000 A 
ATOM     20  C   UNL     1       2.156   4.437  19.886  0.00  0.00    +0.000 A 
BRANCH  20  21
ATOM     21  C   UNL     1       2.015   2.968  20.384  0.00  0.00    +0.000 C 
ATOM     22  C   UNL     1       1.261   3.008  21.727  0.00  0.00    +0.000 C 
ATOM     23  C   UNL     1       1.317   1.996  19.410  0.00  0.00    +0.000 C 
ATOM     24  C   UNL     1       3.390   2.275  20.664  0.00  0.00    +0.000 C 
ENDBRANCH  20  21
ENDBRANCH  14  15
ENDBRANCH   5  14
TORSDOF 5
ENDMDL
MODEL 2
REMARK VINA RESULT:      -7.1      2.529      4.948
REMARK  Name = 
REMARK  9 active torsions:
REMARK  status: ('A' for Active; 'I' for Inactive)
REMARK    1  A    between atoms: C_1  and  N_2
REMARK    2  A    between atoms: N_2  and  C_3
REMARK    3  A    between atoms: C_3  and  C_4
REMARK    4  A    between atoms: N_11  and  C_12
REMARK    5  A    between atoms: C_12  and  C_13
REMARK    6  A    between atoms: C_18  and  C_19
REMARK    7  A    between atoms: C_19  and  C_20
REMARK    8  A    between atoms: C_19  and  C_21
REMARK    9  A    between atoms: C_19  and  C_22
REMARK                            x       y       z     vdW  Elec       q    Type
REMARK                         _______ _______ _______ _____ _____    ______ ____
ROOT
ATOM      1  C   UNL     1       2.475   2.014  19.065  0.00  0.00    +0.000 C 
ATOM      2  N   UNL     1       3.069   3.337  19.266  0.00  0.00    +0.000 N 
ATOM      3  C   UNL     1       2.238   4.300  19.837  0.00  0.00    +0.000 C 
ATOM      4  O   UNL     1       1.046   4.092  20.060  0.00  0.00    +0.000 OA
ATOM      5  N   UNL     1       2.818   5.510  20.159  0.00  0.00    +0.000 N 
ATOM      6  H   UNL     1       3.510   5.829  19.500  0.00  0.00    +0.000 HD
ENDROOT
BRANCH   2   7
ATOM      7  C   UNL     1       4.532   3.394  19.284  0.00  0.00    +0.000 C 
BRANCH   7   8
ATOM      8  C   UNL     1       5.150   3.971  18.044  0.00  0.00    +0.000 A 
ATOM      9  C   UNL     1       4.530   4.399  16.884  0.00  0.00    +0.000 A 
ATOM     10  C   UNL     1       5.526   4.753  15.945  0.00  0.00    +0.000 A 
ATOM     11  C   UNL     1       6.735   4.554  16.559  0.00  0.00    +0.000 A 
ATOM     12  N   UNL     1       6.508   4.099  17.833  0.00  0.00    +0.000 N 
ATOM     13  H   UNL     1       7.221   3.884  18.518  0.00  0.00    +0.000 HD
ENDBRANCH   7   8
ENDBRANCH   2   7
BRANCH   5  14
ATOM     14  C   UNL     1       1.976   6.575  20.716  0.00  0.00    +0.000 C 
BRANCH  14  15
ATOM     15  C   UNL     1       1.797   7.774  19.808  0.00  0.00    +0.000 A 
ATOM     16  C   UNL     1       2.401   7.618  18.542  0.00  0.00    +0.000 A 
ATOM     17  N   UNL     1       2.434   8.537  17.550  0.00  0.00    +0.000 NA
ATOM     18  C   UNL     1       1.844   9.702  17.821  0.00  0.00    +0.000 A 
ATOM     19  C   UNL     1       1.227   9.983  19.030  0.00  0.00    +0.000 A 
ATOM     20  C   UNL     1       1.199   9.036  20.089  0.00  0.00    +0.000 A 
BRANCH  20  21
ATOM     21  C   UNL     1       0.454   9.479  21.384  0.00  0.00    +0.000 C 
ATOM     22  C   UNL     1       1.469   9.415  22.542  0.00  0.00    +0.000 C 
ATOM     23  C   UNL     1      -0.209  10.870  21.331  0.00  0.00    +0.000 C 
ATOM     24  C   UNL     1      -0.727   8.527  21.772  0.00  0.00    +0.000 C 
ENDBRANCH  20  21
ENDBRANCH  14  15
ENDBRANCH   5  14
TORSDOF 5
ENDMDL
MODEL 3
REMARK VINA RESULT:      -7.0      3.624      7.062
REMARK  Name = 
REMARK  9 active torsions:
REMARK  status: ('A' for Active; 'I' for Inactive)
REMARK    1  A    between atoms: C_1  and  N_2
REMARK    2  A    between atoms: N_2  and  C_3
REMARK    3  A    between atoms: C_3  and  C_4
REMARK    4  A    between atoms: N_11  and  C_12
REMARK    5  A    between atoms: C_12  and  C_13
REMARK    6  A    between atoms: C_18  and  C_19
REMARK    7  A    between atoms: C_19  and  C_20
REMARK    8  A    between atoms: C_19  and  C_21
REMARK    9  A    between atoms: C_19  and  C_22
REMARK                            x       y       z     vdW  Elec       q    Type
REMARK                         _______ _______ _______ _____ _____    ______ ____
ROOT
ATOM      1  C   UNL     1       0.502  10.621  21.120  0.00  0.00    +0.000 C 
ATOM      2  N   UNL     1       1.195   9.923  20.036  0.00  0.00    +0.000 N 
ATOM      3  C   UNL     1       1.518   8.588  20.277  0.00  0.00    +0.000 C 
ATOM      4  O   UNL     1       1.333   8.052  21.369  0.00  0.00    +0.000 OA
ATOM      5  N   UNL     1       2.049   7.876  19.220  0.00  0.00    +0.000 N 
ATOM      6  H   UNL     1       2.676   8.405  18.635  0.00  0.00    +0.000 HD
ENDROOT
BRANCH   2   7
ATOM      7  C   UNL     1       1.075  10.515  18.703  0.00  0.00    +0.000 C 
BRANCH   7   8
ATOM      8  C   UNL     1      -0.334  10.647  18.202  0.00  0.00    +0.000 A 
ATOM      9  C   UNL     1      -1.208   9.652  17.801  0.00  0.00    +0.000 A 
ATOM     10  C   UNL     1      -2.380  10.260  17.296  0.00  0.00    +0.000 A 
ATOM     11  C   UNL     1      -2.206  11.614  17.418  0.00  0.00    +0.000 A 
ATOM     12  N   UNL     1      -0.978  11.847  17.983  0.00  0.00    +0.000 N 
ATOM     13  H   UNL     1      -0.593  12.757  18.203  0.00  0.00    +0.000 HD
ENDBRANCH   7   8
ENDBRANCH   2   7
BRANCH   5  14
ATOM     14  C   UNL     1       2.453   6.482  19.434  0.00  0.00    +0.000 C 
BRANCH  14  15
ATOM     15  C   UNL     1       3.346   5.913  18.352  0.00  0.00    +0.000 A 
ATOM     16  C   UNL     1       4.062   6.896  17.637  0.00  0.00    +0.000 A 
ATOM     17  N   UNL     1       4.899   6.682  16.596  0.00  0.00    +0.000 NA
ATOM     18  C   UNL     1       5.035   5.411  16.216  0.00  0.00    +0.000 A 
ATOM     19  C   UNL     1       4.375   4.356  16.828  0.00  0.00    +0.000 A 
ATOM     20  C   UNL     1       3.480   4.565  17.910  0.00  0.00    +0.000 A 
BRANCH  20  21
ATOM     21  C   UNL     1       2.825   3.287  18.514  0.00  0.00    +0.000 C 
ATOM     22  C   UNL     1       1.298   3.434  18.357  0.00  0.00    +0.000 C 
ATOM     23  C   UNL     1       3.296   1.947  17.915  0.00  0.00    +0.000 C 
ATOM     24  C   UNL     1       3.101   3.117  20.046  0.00  0.00    +0.000 C 
ENDBRANCH  20  21
ENDBRANCH  14  15
ENDBRANCH   5  14
TORSDOF 5
ENDMDL
MODEL 4
REMARK VINA RESULT:      -6.9      2.525      4.751
REMARK  Name = 
REMARK  9 active torsions:
REMARK  status: ('A' for Active; 'I' for Inactive)
REMARK    1  A    between atoms: C_1  and  N_2
REMARK    2  A    between atoms: N_2  and  C_3
REMARK    3  A    between atoms: C_3  and  C_4
REMARK    4  A    between atoms: N_11  and  C_12
REMARK    5  A    between atoms: C_12  and  C_13
REMARK    6  A    between atoms: C_18  and  C_19
REMARK    7  A    between atoms: C_19  and  C_20
REMARK    8  A    between atoms: C_19  and  C_21
REMARK    9  A    between atoms: C_19  and  C_22
REMARK                            x       y       z     vdW  Elec       q    Type
REMARK                         _______ _______ _______ _____ _____    ______ ____
ROOT
ATOM      1  C   UNL     1       4.292   2.399  20.012  0.00  0.00    +0.000 C 
ATOM      2  N   UNL     1       4.233   3.826  19.687  0.00  0.00    +0.000 N 
ATOM      3  C   UNL     1       3.105   4.509  20.139  0.00  0.00    +0.000 C 
ATOM      4  O   UNL     1       2.162   3.936  20.684  0.00  0.00    +0.000 OA
ATOM      5  N   UNL     1       3.094   5.877  19.962  0.00  0.00    +0.000 N 
ATOM      6  H   UNL     1       3.506   6.188  19.097  0.00  0.00    +0.000 HD
ENDROOT
BRANCH   2   7
ATOM      7  C   UNL     1       5.504   4.466  19.346  0.00  0.00    +0.000 C 
BRANCH   7   8
ATOM      8  C   UNL     1       5.929   4.291  17.917  0.00  0.00    +0.000 A 
ATOM      9  C   UNL     1       7.094   4.712  17.302  0.00  0.00    +0.000 A 
ATOM     10  C   UNL     1       7.001   4.428  15.920  0.00  0.00    +0.000 A 
ATOM     11  C   UNL     1       5.788   3.821  15.724  0.00  0.00    +0.000 A 
ATOM     12  N   UNL     1       5.149   3.721  16.933  0.00  0.00    +0.000 N 
ATOM     13  H   UNL     1       4.241   3.300  17.087  0.00  0.00    +0.000 HD
ENDBRANCH   7   8
ENDBRANCH   2   7
BRANCH   5  14
ATOM     14  C   UNL     1       1.908   6.638  20.375  0.00  0.00    +0.000 C 
BRANCH  14  15
ATOM     15  C   UNL     1       1.711   7.945  19.635  0.00  0.00    +0.000 A 
ATOM     16  C   UNL     1       2.267   7.948  18.338  0.00  0.00    +0.000 A 
ATOM     17  N   UNL     1       2.276   8.987  17.472  0.00  0.00    +0.000 NA
ATOM     18  C   UNL     1       1.711  10.112  17.912  0.00  0.00    +0.000 A 
ATOM     19  C   UNL     1       1.143  10.240  19.170  0.00  0.00    +0.000 A 
ATOM     20  C   UNL     1       1.141   9.165  20.099  0.00  0.00    +0.000 A 
BRANCH  20  21
ATOM     21  C   UNL     1       0.450   9.443  21.467  0.00  0.00    +0.000 C 
ATOM     22  C   UNL     1       1.523   9.293  22.563  0.00  0.00    +0.000 C 
ATOM     23  C   UNL     1      -0.255  10.809  21.595  0.00  0.00    +0.000 C 
ATOM     24  C   UNL     1      -0.682   8.417  21.807  0.00  0.00    +0.000 C 
ENDBRANCH  20  21
ENDBRANCH  14  15
ENDBRANCH   5  14
TORSDOF 5
ENDMDL
MODEL 5
REMARK VINA RESULT:      -6.8      1.830      2.586
REMARK  Name = 
REMARK  9 active torsions:
REMARK  status: ('A' for Active; 'I' for Inactive)
REMARK    1  A    between atoms: C_1  and  N_2
REMARK    2  A    between atoms: N_2  and  C_3
REMARK    3  A    between atoms: C_3  and  C_4
REMARK    4  A    between atoms: N_11  and  C_12
REMARK    5  A    between atoms: C_12  and  C_13
REMARK    6  A    between atoms: C_18  and  C_19
REMARK    7  A    between atoms: C_19  and  C_20
REMARK    8  A    between atoms: C_19  and  C_21
REMARK    9  A    between atoms: C_19  and  C_22
REMARK                            x       y       z     vdW  Elec       q    Type
REMARK                         _______ _______ _______ _____ _____    ______ ____
ROOT
ATOM      1  C   UNL     1       7.775   5.269  13.393  0.00  0.00    +0.000 C 
ATOM      2  N   UNL     1       6.671   4.525  14.002  0.00  0.00    +0.000 N 
ATOM      3  C   UNL     1       6.525   4.670  15.381  0.00  0.00    +0.000 C 
ATOM      4  O   UNL     1       7.332   5.295  16.067  0.00  0.00    +0.000 OA
ATOM      5  N   UNL     1       5.412   4.088  15.953  0.00  0.00    +0.000 N 
ATOM      6  H   UNL     1       5.154   3.201  15.552  0.00  0.00    +0.000 HD
ENDROOT
BRANCH   2   7
ATOM      7  C   UNL     1       5.602   4.097  13.099  0.00  0.00    +0.000 C 
BRANCH   7   8
ATOM      8  C   UNL     1       5.982   2.987  12.162  0.00  0.00    +0.000 A 
ATOM      9  C   UNL     1       5.159   2.132  11.453  0.00  0.00    +0.000 A 
ATOM     10  C   UNL     1       5.965   1.173  10.796  0.00  0.00    +0.000 A 
ATOM     11  C   UNL     1       7.266   1.476  11.103  0.00  0.00    +0.000 A 
ATOM     12  N   UNL     1       7.277   2.583  11.913  0.00  0.00    +0.000 N 
ATOM     13  H   UNL     1       8.104   3.037  12.279  0.00  0.00    +0.000 HD
ENDBRANCH   7   8
ENDBRANCH   2   7
BRANCH   5  14
ATOM     14  C   UNL     1       5.236   4.168  17.408  0.00  0.00    +0.000 C 
BRANCH  14  15
ATOM     15  C   UNL     1       4.117   5.085  17.856  0.00  0.00    +0.000 A 
ATOM     16  C   UNL     1       4.314   6.434  17.492  0.00  0.00    +0.000 A 
ATOM     17  N   UNL     1       3.501   7.473  17.793  0.00  0.00    +0.000 NA
ATOM     18  C   UNL     1       2.421   7.172  18.515  0.00  0.00    +0.000 A 
ATOM     19  C   UNL     1       2.123   5.888  18.946  0.00  0.00    +0.000 A 
ATOM     20  C   UNL     1       2.975   4.789  18.654  0.00  0.00    +0.000 A 
BRANCH  20  21
ATOM     21  C   UNL     1       2.506   3.400  19.182  0.00  0.00    +0.000 C 
ATOM     22  C   UNL     1       1.236   3.633  20.024  0.00  0.00    +0.000 C 
ATOM     23  C   UNL     1       2.243   2.329  18.104  0.00  0.00    +0.000 C 
ATOM     24  C   UNL     1       3.548   2.715  20.128  0.00  0.00    +0.000 C 
ENDBRANCH  20  21
ENDBRANCH  14  15
ENDBRANCH   5  14
TORSDOF 5
ENDMDL
MODEL 6
REMARK VINA RESULT:      -6.8      3.579      7.068
REMARK  Name = 
REMARK  9 active torsions:
REMARK  status: ('A' for Active; 'I' for Inactive)
REMARK    1  A    between atoms: C_1  and  N_2
REMARK    2  A    between atoms: N_2  and  C_3
REMARK    3  A    between atoms: C_3  and  C_4
REMARK    4  A    between atoms: N_11  and  C_12
REMARK    5  A    between atoms: C_12  and  C_13
REMARK    6  A    between atoms: C_18  and  C_19
REMARK    7  A    between atoms: C_19  and  C_20
REMARK    8  A    between atoms: C_19  and  C_21
REMARK    9  A    between atoms: C_19  and  C_22
REMARK                            x       y       z     vdW  Elec       q    Type
REMARK                         _______ _______ _______ _____ _____    ______ ____
ROOT
ATOM      1  C   UNL     1       0.199  10.356  21.209  0.00  0.00    +0.000 C 
ATOM      2  N   UNL     1       1.075   9.758  20.200  0.00  0.00    +0.000 N 
ATOM      3  C   UNL     1       1.394   8.414  20.387  0.00  0.00    +0.000 C 
ATOM      4  O   UNL     1       1.054   7.790  21.392  0.00  0.00    +0.000 OA
ATOM      5  N   UNL     1       2.106   7.797  19.378  0.00  0.00    +0.000 N 
ATOM      6  H   UNL     1       2.802   8.381  18.942  0.00  0.00    +0.000 HD
ENDROOT
BRANCH   2   7
ATOM      7  C   UNL     1       1.150  10.453  18.914  0.00  0.00    +0.000 C 
BRANCH   7   8
ATOM      8  C   UNL     1      -0.179  10.732  18.275  0.00  0.00    +0.000 A 
ATOM      9  C   UNL     1      -1.006  11.830  18.436  0.00  0.00    +0.000 A 
ATOM     10  C   UNL     1      -2.206  11.597  17.726  0.00  0.00    +0.000 A 
ATOM     11  C   UNL     1      -2.079  10.370  17.130  0.00  0.00    +0.000 A 
ATOM     12  N   UNL     1      -0.848   9.855  17.446  0.00  0.00    +0.000 N 
ATOM     13  H   UNL     1      -0.481   8.968  17.128  0.00  0.00    +0.000 HD
ENDBRANCH   7   8
ENDBRANCH   2   7
BRANCH   5  14
ATOM     14  C   UNL     1       2.510   6.397  19.547  0.00  0.00    +0.000 C 
BRANCH  14  15
ATOM     15  C   UNL     1       3.362   5.848  18.421  0.00  0.00    +0.000 A 
ATOM     16  C   UNL     1       4.045   6.846  17.694  0.00  0.00    +0.000 A 
ATOM     17  N   UNL     1       4.841   6.651  16.618  0.00  0.00    +0.000 NA
ATOM     18  C   UNL     1       4.967   5.386  16.213  0.00  0.00    +0.000 A 
ATOM     19  C   UNL     1       4.337   4.319  16.835  0.00  0.00    +0.000 A 
ATOM     20  C   UNL     1       3.484   4.508  17.954  0.00  0.00    +0.000 A 
BRANCH  20  21
ATOM     21  C   UNL     1       2.859   3.218  18.565  0.00  0.00    +0.000 C 
ATOM     22  C   UNL     1       3.346   3.118  20.024  0.00  0.00    +0.000 C 
ATOM     23  C   UNL     1       1.320   3.129  18.509  0.00  0.00    +0.000 C 
ATOM     24  C   UNL     1       3.325   1.907  17.849  0.00  0.00    +0.000 C 
ENDBRANCH  20  21
ENDBRANCH  14  15
ENDBRANCH   5  14
TORSDOF 5
ENDMDL
MODEL 7
REMARK VINA RESULT:      -6.8      2.466      4.739
REMARK  Name = 
REMARK  9 active torsions:
REMARK  status: ('A' for Active; 'I' for Inactive)
REMARK    1  A    between atoms: C_1  and  N_2
REMARK    2  A    between atoms: N_2  and  C_3
REMARK    3  A    between atoms: C_3  and  C_4
REMARK    4  A    between atoms: N_11  and  C_12
REMARK    5  A    between atoms: C_12  and  C_13
REMARK    6  A    between atoms: C_18  and  C_19
REMARK    7  A    between atoms: C_19  and  C_20
REMARK    8  A    between atoms: C_19  and  C_21
REMARK    9  A    between atoms: C_19  and  C_22
REMARK                            x       y       z     vdW  Elec       q    Type
REMARK                         _______ _______ _______ _____ _____    ______ ____
ROOT
ATOM      1  C   UNL     1       3.692   2.214  19.149  0.00  0.00    +0.000 C 
ATOM      2  N   UNL     1       3.234   3.502  18.623  0.00  0.00    +0.000 N 
ATOM      3  C   UNL     1       2.838   4.443  19.571  0.00  0.00    +0.000 C 
ATOM      4  O   UNL     1       2.770   4.180  20.772  0.00  0.00    +0.000 OA
ATOM      5  N   UNL     1       2.533   5.706  19.105  0.00  0.00    +0.000 N 
ATOM      6  H   UNL     1       2.060   5.718  18.216  0.00  0.00    +0.000 HD
ENDROOT
BRANCH   2   7
ATOM      7  C   UNL     1       3.654   3.830  17.259  0.00  0.00    +0.000 C 
BRANCH   7   8
ATOM      8  C   UNL     1       4.996   4.496  17.161  0.00  0.00    +0.000 A 
ATOM      9  C   UNL     1       5.301   5.770  16.716  0.00  0.00    +0.000 A 
ATOM     10  C   UNL     1       6.707   5.913  16.692  0.00  0.00    +0.000 A 
ATOM     11  C   UNL     1       7.231   4.729  17.142  0.00  0.00    +0.000 A 
ATOM     12  N   UNL     1       6.197   3.880  17.443  0.00  0.00    +0.000 N 
ATOM     13  H   UNL     1       6.293   2.942  17.811  0.00  0.00    +0.000 HD
ENDBRANCH   7   8
ENDBRANCH   2   7
BRANCH   5  14
ATOM     14  C   UNL     1       2.062   6.720  20.056  0.00  0.00    +0.000 C 
BRANCH  14  15
ATOM     15  C   UNL     1       1.798   8.080  19.444  0.00  0.00    +0.000 A 
ATOM     16  C   UNL     1       2.338   8.230  18.149  0.00  0.00    +0.000 A 
ATOM     17  N   UNL     1       2.290   9.345  17.384  0.00  0.00    +0.000 NA
ATOM     18  C   UNL     1       1.680  10.397  17.932  0.00  0.00    +0.000 A 
ATOM     19  C   UNL     1       1.122  10.380  19.201  0.00  0.00    +0.000 A 
ATOM     20  C   UNL     1       1.180   9.224  20.025  0.00  0.00    +0.000 A 
BRANCH  20  21
ATOM     21  C   UNL     1       0.493   9.341  21.418  0.00  0.00    +0.000 C 
ATOM     22  C   UNL     1      -0.080  10.768  21.530  0.00  0.00    +0.000 C 
ATOM     23  C   UNL     1      -0.607   8.300  21.711  0.00  0.00    +0.000 C 
ATOM     24  C   UNL     1       1.487   9.165  22.614  0.00  0.00    +0.000 C 
ENDBRANCH  20  21
ENDBRANCH  14  15
ENDBRANCH   5  14
TORSDOF 5
ENDMDL
MODEL 8
REMARK VINA RESULT:      -6.8      3.521      7.345
REMARK  Name = 
REMARK  9 active torsions:
REMARK  status: ('A' for Active; 'I' for Inactive)
REMARK    1  A    between atoms: C_1  and  N_2
REMARK    2  A    between atoms: N_2  and  C_3
REMARK    3  A    between atoms: C_3  and  C_4
REMARK    4  A    between atoms: N_11  and  C_12
REMARK    5  A    between atoms: C_12  and  C_13
REMARK    6  A    between atoms: C_18  and  C_19
REMARK    7  A    between atoms: C_19  and  C_20
REMARK    8  A    between atoms: C_19  and  C_21
REMARK    9  A    between atoms: C_19  and  C_22
REMARK                            x       y       z     vdW  Elec       q    Type
REMARK                         _______ _______ _______ _____ _____    ______ ____
ROOT
ATOM      1  C   UNL     1      -0.017   9.562  20.692  0.00  0.00    +0.000 C 
ATOM      2  N   UNL     1       0.988   9.075  19.745  0.00  0.00    +0.000 N 
ATOM      3  C   UNL     1       1.684   7.930  20.129  0.00  0.00    +0.000 C 
ATOM      4  O   UNL     1       1.547   7.416  21.238  0.00  0.00    +0.000 OA
ATOM      5  N   UNL     1       2.537   7.378  19.194  0.00  0.00    +0.000 N 
ATOM      6  H   UNL     1       3.030   8.052  18.632  0.00  0.00    +0.000 HD
ENDROOT
BRANCH   2   7
ATOM      7  C   UNL     1       0.849   9.532  18.362  0.00  0.00    +0.000 C 
BRANCH   7   8
ATOM      8  C   UNL     1      -0.409  10.302  18.080  0.00  0.00    +0.000 A 
ATOM      9  C   UNL     1      -1.624   9.836  17.610  0.00  0.00    +0.000 A 
ATOM     10  C   UNL     1      -2.474  10.943  17.388  0.00  0.00    +0.000 A 
ATOM     11  C   UNL     1      -1.767  12.061  17.745  0.00  0.00    +0.000 A 
ATOM     12  N   UNL     1      -0.526  11.673  18.182  0.00  0.00    +0.000 N 
ATOM     13  H   UNL     1       0.199  12.290  18.522  0.00  0.00    +0.000 HD
ENDBRANCH   7   8
ENDBRANCH   2   7
BRANCH   5  14
ATOM     14  C   UNL     1       3.332   6.201  19.565  0.00  0.00    +0.000 C 
BRANCH  14  15
ATOM     15  C   UNL     1       3.063   4.971  18.722  0.00  0.00    +0.000 A 
ATOM     16  C   UNL     1       1.956   4.216  19.164  0.00  0.00    +0.000 A 
ATOM     17  N   UNL     1       1.512   3.055  18.630  0.00  0.00    +0.000 NA
ATOM     18  C   UNL     1       2.212   2.590  17.594  0.00  0.00    +0.000 A 
ATOM     19  C   UNL     1       3.326   3.232  17.076  0.00  0.00    +0.000 A 
ATOM     20  C   UNL     1       3.817   4.441  17.636  0.00  0.00    +0.000 A 
BRANCH  20  21
ATOM     21  C   UNL     1       5.064   5.063  16.939  0.00  0.00    +0.000 C 
ATOM     22  C   UNL     1       5.418   4.160  15.740  0.00  0.00    +0.000 C 
ATOM     23  C   UNL     1       4.912   6.526  16.477  0.00  0.00    +0.000 C 
ATOM     24  C   UNL     1       6.330   5.102  17.858  0.00  0.00    +0.000 C 
ENDBRANCH  20  21
ENDBRANCH  14  15
ENDBRANCH   5  14
TORSDOF 5
ENDMDL
MODEL 9
REMARK VINA RESULT:      -6.7      4.027      7.018
REMARK  Name = 
REMARK  9 active torsions:
REMARK  status: ('A' for Active; 'I' for Inactive)
REMARK    1  A    between atoms: C_1  and  N_2
REMARK    2  A    between atoms: N_2  and  C_3
REMARK    3  A    between atoms: C_3  and  C_4
REMARK    4  A    between atoms: N_11  and  C_12
REMARK    5  A    between atoms: C_12  and  C_13
REMARK    6  A    between atoms: C_18  and  C_19
REMARK    7  A    between atoms: C_19  and  C_20
REMARK    8  A    between atoms: C_19  and  C_21
REMARK    9  A    between atoms: C_19  and  C_22
REMARK                            x       y       z     vdW  Elec       q    Type
REMARK                         _______ _______ _______ _____ _____    ______ ____
ROOT
ATOM      1  C   UNL     1       4.000   6.021  17.439  0.00  0.00    +0.000 C 
ATOM      2  N   UNL     1       3.283   6.576  18.588  0.00  0.00    +0.000 N 
ATOM      3  C   UNL     1       2.595   7.767  18.362  0.00  0.00    +0.000 C 
ATOM      4  O   UNL     1       2.669   8.378  17.296  0.00  0.00    +0.000 OA
ATOM      5  N   UNL     1       1.804   8.234  19.392  0.00  0.00    +0.000 N 
ATOM      6  H   UNL     1       2.190   8.091  20.311  0.00  0.00    +0.000 HD
ENDROOT
BRANCH   2   7
ATOM      7  C   UNL     1       2.984   5.644  19.677  0.00  0.00    +0.000 C 
BRANCH   7   8
ATOM      8  C   UNL     1       2.556   4.276  19.229  0.00  0.00    +0.000 A 
ATOM      9  C   UNL     1       1.335   3.873  18.720  0.00  0.00    +0.000 A 
ATOM     10  C   UNL     1       1.360   2.469  18.551  0.00  0.00    +0.000 A 
ATOM     11  C   UNL     1       2.604   2.047  18.942  0.00  0.00    +0.000 A 
ATOM     12  N   UNL     1       3.333   3.141  19.334  0.00  0.00    +0.000 N 
ATOM     13  H   UNL     1       4.292   3.125  19.656  0.00  0.00    +0.000 HD
ENDBRANCH   7   8
ENDBRANCH   2   7
BRANCH   5  14
ATOM     14  C   UNL     1       1.098   9.510  19.223  0.00  0.00    +0.000 C 
BRANCH  14  15
ATOM     15  C   UNL     1       0.414  10.019  20.475  0.00  0.00    +0.000 A 
ATOM     16  C   UNL     1       0.916   9.448  21.663  0.00  0.00    +0.000 A 
ATOM     17  N   UNL     1       0.469   9.686  22.918  0.00  0.00    +0.000 NA
ATOM     18  C   UNL     1      -0.554  10.536  23.017  0.00  0.00    +0.000 A 
ATOM     19  C   UNL     1      -1.144  11.151  21.923  0.00  0.00    +0.000 A 
ATOM     20  C   UNL     1      -0.700  10.899  20.598  0.00  0.00    +0.000 A 
BRANCH  20  21
ATOM     21  C   UNL     1      -1.440  11.675  19.468  0.00  0.00    +0.000 C 
ATOM     22  C   UNL     1      -0.456  12.721  18.908  0.00  0.00    +0.000 C 
ATOM     23  C   UNL     1      -2.008  10.811  18.324  0.00  0.00    +0.000 C 
ATOM     24  C   UNL     1      -2.690  12.467  19.979  0.00  0.00    +0.000 C 
ENDBRANCH  20  21
ENDBRANCH  14  15
ENDBRANCH   5  14
TORSDOF 5
ENDMDL
