MODEL 1
REMARK VINA RESULT:      -8.5      0.000      0.000
REMARK  Name = 
REMARK  5 active torsions:
REMARK  status: ('A' for Active; 'I' for Inactive)
REMARK    1  A    between atoms: O_1  and  N_2
REMARK    2  A    between atoms: C_3  and  C_11
REMARK    3  A    between atoms: N_4  and  C_5
REMARK    4  A    between atoms: C_15  and  O_16
REMARK    5  A    between atoms: O_16  and  C_17
REMARK                            x       y       z     vdW  Elec       q    Type
REMARK                         _______ _______ _______ _____ _____    ______ ____
ROOT
ATOM      1  C   UNL     1       2.149   7.748  19.053  0.00  0.00    +0.000 A 
ATOM      2  C   UNL     1       1.857   7.545  20.399  0.00  0.00    +0.000 A 
ATOM      3  C   UNL     1       1.073   8.493  21.023  0.00  0.00    +0.000 A 
ATOM      4  N   UNL     1       0.574   9.583  20.399  0.00  0.00    +0.000 NA
ATOM      5  C   UNL     1       0.895   9.768  19.093  0.00  0.00    +0.000 A 
ATOM      6  C   UNL     1       1.678   8.873  18.382  0.00  0.00    +0.000 A 
ENDROOT
BRANCH   1   8
ATOM      7  N   UNL     1       3.900   7.046  17.629  0.00  0.00    +0.000 NA
ATOM      8  C   UNL     1       2.837   6.677  18.272  0.00  0.00    +0.000 C 
ATOM      9  N   UNL     1       2.182   5.460  18.290  0.00  0.00    +0.000 N 
ATOM     10  H   UNL     1       1.239   5.494  18.654  0.00  0.00    +0.000 HD
BRANCH   9  11
ATOM     11  C   UNL     1       2.790   4.136  18.352  0.00  0.00    +0.000 C 
ATOM     12  C   UNL     1       3.466   3.961  19.729  0.00  0.00    +0.000 C 
ATOM     13  C   UNL     1       2.465   3.917  20.893  0.00  0.00    +0.000 C 
ATOM     14  C   UNL     1       1.357   2.893  20.666  0.00  0.00    +0.000 C 
ATOM     15  C   UNL     1       0.697   3.043  19.299  0.00  0.00    +0.000 C 
ATOM     16  C   UNL     1       1.727   3.045  18.172  0.00  0.00    +0.000 C 
ENDBRANCH   9  11
BRANCH   7  17
ATOM     17  O   UNL     1       4.402   6.035  16.808  0.00  0.00    +0.000 OA
ATOM     18  H   UNL     1       4.344   5.254  17.387  0.00  0.00    +0.000 HD
ENDBRANCH   7  17
ENDBRANCH   1   8
BRANCH   5  19
ATOM     19  O   UNL     1       0.277  10.855  18.501  0.00  0.00    +0.000 OA
BRANCH  19  20
ATOM     20  C   UNL     1      -1.078  10.786  18.243  0.00  0.00    +0.000 A 
ATOM     21  C   UNL     1      -1.585   9.944  17.246  0.00  0.00    +0.000 A 
ATOM     22  C   UNL     1      -2.955   9.858  17.033  0.00  0.00    +0.000 A 
ATOM     23  C   UNL     1      -3.825  10.636  17.789  0.00  0.00    +0.000 A 
ATOM     24  C   UNL     1      -3.335  11.522  18.761  0.00  0.00    +0.000 A 
ATOM     25  C   UNL     1      -1.944  11.633  18.971  0.00  0.00    +0.000 A 
ATOM     26  C   UNL     1      -1.397  12.604  19.996  0.00  0.00    +0.000 C 
ATOM     27  C   UNL     1      -2.411  13.659  20.451  0.00  0.00    +0.000 C 
ATOM     28  C   UNL     1      -3.753  13.014  20.766  0.00  0.00    +0.000 C 
ATOM     29  C   UNL     1      -4.330  12.380  19.506  0.00  0.00    +0.000 C 
ENDBRANCH  19  20
ENDBRANCH   5  19
TORSDOF 5
ENDMDL
MODEL 2
REMARK VINA RESULT:      -8.5      2.794      4.845
REMARK  Name = 
REMARK  5 active torsions:
REMARK  status: ('A' for Active; 'I' for Inactive)
REMARK    1  A    between atoms: O_1  and  N_2
REMARK    2  A    between atoms: C_3  and  C_11
REMARK    3  A    between atoms: N_4  and  C_5
REMARK    4  A    between atoms: C_15  and  O_16
REMARK    5  A    between atoms: O_16  and  C_17
REMARK                            x       y       z     vdW  Elec       q    Type
REMARK                         _______ _______ _______ _____ _____    ______ ____
ROOT
ATOM      1  C   UNL     1       2.921   3.610  19.230  0.00  0.00    +0.000 A 
ATOM      2  C   UNL     1       1.725   2.936  19.461  0.00  0.00    +0.000 A 
ATOM      3  C   UNL     1       0.756   3.602  20.181  0.00  0.00    +0.000 A 
ATOM      4  N   UNL     1       0.903   4.859  20.653  0.00  0.00    +0.000 NA
ATOM      5  C   UNL     1       2.087   5.484  20.435  0.00  0.00    +0.000 A 
ATOM      6  C   UNL     1       3.122   4.896  19.725  0.00  0.00    +0.000 A 
ENDROOT
BRANCH   1   8
ATOM      7  N   UNL     1       3.618   1.892  17.765  0.00  0.00    +0.000 NA
ATOM      8  C   UNL     1       3.940   3.023  18.310  0.00  0.00    +0.000 C 
ATOM      9  N   UNL     1       5.118   3.744  18.243  0.00  0.00    +0.000 N 
ATOM     10  H   UNL     1       5.220   4.452  18.957  0.00  0.00    +0.000 HD
BRANCH   9  11
ATOM     11  C   UNL     1       5.939   3.977  17.061  0.00  0.00    +0.000 C 
ATOM     12  C   UNL     1       5.169   4.902  16.093  0.00  0.00    +0.000 C 
ATOM     13  C   UNL     1       4.974   6.323  16.641  0.00  0.00    +0.000 C 
ATOM     14  C   UNL     1       6.284   6.949  17.110  0.00  0.00    +0.000 C 
ATOM     15  C   UNL     1       7.063   6.034  18.050  0.00  0.00    +0.000 C 
ATOM     16  C   UNL     1       7.264   4.645  17.447  0.00  0.00    +0.000 C 
ENDBRANCH   9  11
BRANCH   7  17
ATOM     17  O   UNL     1       4.671   1.335  17.038  0.00  0.00    +0.000 OA
ATOM     18  H   UNL     1       4.242   0.576  16.603  0.00  0.00    +0.000 HD
ENDBRANCH   7  17
ENDBRANCH   1   8
BRANCH   5  19
ATOM     19  O   UNL     1       2.132   6.797  20.870  0.00  0.00    +0.000 OA
BRANCH  19  20
ATOM     20  C   UNL     1       1.862   7.803  19.963  0.00  0.00    +0.000 A 
ATOM     21  C   UNL     1       2.390   7.772  18.667  0.00  0.00    +0.000 A 
ATOM     22  C   UNL     1       2.071   8.773  17.757  0.00  0.00    +0.000 A 
ATOM     23  C   UNL     1       1.252   9.828  18.145  0.00  0.00    +0.000 A 
ATOM     24  C   UNL     1       0.750   9.903  19.455  0.00  0.00    +0.000 A 
ATOM     25  C   UNL     1       1.085   8.903  20.392  0.00  0.00    +0.000 A 
ATOM     26  C   UNL     1       0.575   8.983  21.816  0.00  0.00    +0.000 C 
ATOM     27  C   UNL     1       0.040  10.366  22.203  0.00  0.00    +0.000 C 
ATOM     28  C   UNL     1      -0.874  10.912  21.117  0.00  0.00    +0.000 C 
ATOM     29  C   UNL     1      -0.086  11.104  19.827  0.00  0.00    +0.000 C 
ENDBRANCH  19  20
ENDBRANCH   5  19
TORSDOF 5
ENDMDL
MODEL 3
REMARK VINA RESULT:      -8.4      0.707      2.108
REMARK  Name = 
REMARK  5 active torsions:
REMARK  status: ('A' for Active; 'I' for Inactive)
REMARK    1  A    between atoms: O_1  and  N_2
REMARK    2  A    between atoms: C_3  and  C_11
REMARK    3  A    between atoms: N_4  and  C_5
REMARK    4  A    between atoms: C_15  and  O_16
REMARK    5  A    between atoms: O_16  and  C_17
REMARK                            x       y       z     vdW  Elec       q    Type
REMARK                         _______ _______ _______ _____ _____    ______ ____
ROOT
ATOM      1  C   UNL     1       2.439   7.291  18.854  0.00  0.00    +0.000 A 
ATOM      2  C   UNL     1       2.080   7.149  20.191  0.00  0.00    +0.000 A 
ATOM      3  C   UNL     1       1.370   8.182  20.765  0.00  0.00    +0.000 A 
ATOM      4  N   UNL     1       1.002   9.300  20.101  0.00  0.00    +0.000 NA
ATOM      5  C   UNL     1       1.386   9.422  18.805  0.00  0.00    +0.000 A 
ATOM      6  C   UNL     1       2.103   8.439  18.142  0.00  0.00    +0.000 A 
ENDROOT
BRANCH   1   8
ATOM      7  N   UNL     1       4.135   6.402  17.469  0.00  0.00    +0.000 NA
ATOM      8  C   UNL     1       3.047   6.140  18.121  0.00  0.00    +0.000 C 
ATOM      9  N   UNL     1       2.302   4.977  18.185  0.00  0.00    +0.000 N 
ATOM     10  H   UNL     1       1.364   5.096  18.542  0.00  0.00    +0.000 HD
BRANCH   9  11
ATOM     11  C   UNL     1       2.809   3.615  18.305  0.00  0.00    +0.000 C 
ATOM     12  C   UNL     1       3.546   3.473  19.655  0.00  0.00    +0.000 C 
ATOM     13  C   UNL     1       2.611   3.582  20.868  0.00  0.00    +0.000 C 
ATOM     14  C   UNL     1       1.416   2.638  20.767  0.00  0.00    +0.000 C 
ATOM     15  C   UNL     1       0.695   2.755  19.428  0.00  0.00    +0.000 C 
ATOM     16  C   UNL     1       1.658   2.603  18.252  0.00  0.00    +0.000 C 
ENDBRANCH   9  11
BRANCH   7  17
ATOM     17  O   UNL     1       4.563   5.323  16.694  0.00  0.00    +0.000 OA
ATOM     18  H   UNL     1       4.538   4.589  17.333  0.00  0.00    +0.000 HD
ENDBRANCH   7  17
ENDBRANCH   1   8
BRANCH   5  19
ATOM     19  O   UNL     1       0.899  10.550  18.167  0.00  0.00    +0.000 OA
BRANCH  19  20
ATOM     20  C   UNL     1      -0.105  11.275  18.781  0.00  0.00    +0.000 A 
ATOM     21  C   UNL     1       0.178  12.164  19.825  0.00  0.00    +0.000 A 
ATOM     22  C   UNL     1      -0.841  12.915  20.399  0.00  0.00    +0.000 A 
ATOM     23  C   UNL     1      -2.151  12.758  19.959  0.00  0.00    +0.000 A 
ATOM     24  C   UNL     1      -2.462  11.837  18.946  0.00  0.00    +0.000 A 
ATOM     25  C   UNL     1      -1.439  11.055  18.371  0.00  0.00    +0.000 A 
ATOM     26  C   UNL     1      -1.762  10.038  17.297  0.00  0.00    +0.000 C 
ATOM     27  C   UNL     1      -3.251   9.691  17.203  0.00  0.00    +0.000 C 
ATOM     28  C   UNL     1      -4.100  10.953  17.227  0.00  0.00    +0.000 C 
ATOM     29  C   UNL     1      -3.912  11.675  18.556  0.00  0.00    +0.000 C 
ENDBRANCH  19  20
ENDBRANCH   5  19
TORSDOF 5
ENDMDL
MODEL 4
REMARK VINA RESULT:      -8.1      3.002      5.148
REMARK  Name = 
REMARK  5 active torsions:
REMARK  status: ('A' for Active; 'I' for Inactive)
REMARK    1  A    between atoms: O_1  and  N_2
REMARK    2  A    between atoms: C_3  and  C_11
REMARK    3  A    between atoms: N_4  and  C_5
REMARK    4  A    between atoms: C_15  and  O_16
REMARK    5  A    between atoms: O_16  and  C_17
REMARK                            x       y       z     vdW  Elec       q    Type
REMARK                         _______ _______ _______ _____ _____    ______ ____
ROOT
ATOM      1  C   UNL     1       3.780   4.226  17.548  0.00  0.00    +0.000 A 
ATOM      2  C   UNL     1       2.598   3.554  17.250  0.00  0.00    +0.000 A 
ATOM      3  C   UNL     1       1.462   3.950  17.924  0.00  0.00    +0.000 A 
ATOM      4  N   UNL     1       1.439   4.949  18.834  0.00  0.00    +0.000 NA
ATOM      5  C   UNL     1       2.610   5.571  19.122  0.00  0.00    +0.000 A 
ATOM      6  C   UNL     1       3.803   5.241  18.500  0.00  0.00    +0.000 A 
ENDROOT
BRANCH   1   8
ATOM      7  N   UNL     1       4.799   3.722  15.476  0.00  0.00    +0.000 NA
ATOM      8  C   UNL     1       5.004   3.974  16.730  0.00  0.00    +0.000 C 
ATOM      9  N   UNL     1       6.176   3.968  17.463  0.00  0.00    +0.000 N 
ATOM     10  H   UNL     1       6.048   3.937  18.464  0.00  0.00    +0.000 HD
BRANCH   9  11
ATOM     11  C   UNL     1       7.472   4.497  17.051  0.00  0.00    +0.000 C 
ATOM     12  C   UNL     1       7.258   5.870  16.376  0.00  0.00    +0.000 C 
ATOM     13  C   UNL     1       6.756   6.950  17.345  0.00  0.00    +0.000 C 
ATOM     14  C   UNL     1       7.625   7.056  18.595  0.00  0.00    +0.000 C 
ATOM     15  C   UNL     1       7.860   5.702  19.258  0.00  0.00    +0.000 C 
ATOM     16  C   UNL     1       8.394   4.673  18.264  0.00  0.00    +0.000 C 
ENDBRANCH   9  11
BRANCH   7  17
ATOM     17  O   UNL     1       5.969   3.353  14.810  0.00  0.00    +0.000 OA
ATOM     18  H   UNL     1       5.892   2.383  14.782  0.00  0.00    +0.000 HD
ENDBRANCH   7  17
ENDBRANCH   1   8
BRANCH   5  19
ATOM     19  O   UNL     1       2.492   6.638  19.995  0.00  0.00    +0.000 OA
BRANCH  19  20
ATOM     20  C   UNL     1       2.038   7.847  19.504  0.00  0.00    +0.000 A 
ATOM     21  C   UNL     1       2.337   8.257  18.199  0.00  0.00    +0.000 A 
ATOM     22  C   UNL     1       1.834   9.457  17.711  0.00  0.00    +0.000 A 
ATOM     23  C   UNL     1       1.059  10.270  18.531  0.00  0.00    +0.000 A 
ATOM     24  C   UNL     1       0.787   9.899  19.858  0.00  0.00    +0.000 A 
ATOM     25  C   UNL     1       1.310   8.693  20.370  0.00  0.00    +0.000 A 
ATOM     26  C   UNL     1       1.049   8.291  21.806  0.00  0.00    +0.000 C 
ATOM     27  C   UNL     1       0.543   9.439  22.686  0.00  0.00    +0.000 C 
ATOM     28  C   UNL     1      -0.561  10.212  21.980  0.00  0.00    +0.000 C 
ATOM     29  C   UNL     1      -0.012  10.854  20.712  0.00  0.00    +0.000 C 
ENDBRANCH  19  20
ENDBRANCH   5  19
TORSDOF 5
ENDMDL
MODEL 5
REMARK VINA RESULT:      -8.1      2.653      4.515
REMARK  Name = 
REMARK  5 active torsions:
REMARK  status: ('A' for Active; 'I' for Inactive)
REMARK    1  A    between atoms: O_1  and  N_2
REMARK    2  A    between atoms: C_3  and  C_11
REMARK    3  A    between atoms: N_4  and  C_5
REMARK    4  A    between atoms: C_15  and  O_16
REMARK    5  A    between atoms: O_16  and  C_17
REMARK                            x       y       z     vdW  Elec       q    Type
REMARK                         _______ _______ _______ _____ _____    ______ ____
ROOT
ATOM      1  C   UNL     1       3.214   4.863  19.334  0.00  0.00    +0.000 A 
ATOM      2  C   UNL     1       2.340   4.228  20.211  0.00  0.00    +0.000 A 
ATOM      3  C   UNL     1       1.396   5.014  20.838  0.00  0.00    +0.000 A 
ATOM      4  N   UNL     1       1.274   6.345  20.637  0.00  0.00    +0.000 NA
ATOM      5  C   UNL     1       2.155   6.941  19.795  0.00  0.00    +0.000 A 
ATOM      6  C   UNL     1       3.140   6.236  19.122  0.00  0.00    +0.000 A 
ENDROOT
BRANCH   1   8
ATOM      7  N   UNL     1       3.593   3.065  17.847  0.00  0.00    +0.000 NA
ATOM      8  C   UNL     1       4.139   4.050  18.488  0.00  0.00    +0.000 C 
ATOM      9  N   UNL     1       5.465   4.428  18.583  0.00  0.00    +0.000 N 
ATOM     10  H   UNL     1       5.670   5.061  19.345  0.00  0.00    +0.000 HD
BRANCH   9  11
ATOM     11  C   UNL     1       6.447   4.466  17.506  0.00  0.00    +0.000 C 
ATOM     12  C   UNL     1       5.982   5.485  16.442  0.00  0.00    +0.000 C 
ATOM     13  C   UNL     1       5.994   6.935  16.948  0.00  0.00    +0.000 C 
ATOM     14  C   UNL     1       7.335   7.323  17.564  0.00  0.00    +0.000 C 
ATOM     15  C   UNL     1       7.814   6.311  18.600  0.00  0.00    +0.000 C 
ATOM     16  C   UNL     1       7.820   4.890  18.041  0.00  0.00    +0.000 C 
ENDBRANCH   9  11
BRANCH   7  17
ATOM     17  O   UNL     1       4.535   2.266  17.199  0.00  0.00    +0.000 OA
ATOM     18  H   UNL     1       4.197   1.369  17.371  0.00  0.00    +0.000 HD
ENDBRANCH   7  17
ENDBRANCH   1   8
BRANCH   5  19
ATOM     19  O   UNL     1       1.914   8.286  19.572  0.00  0.00    +0.000 OA
BRANCH  19  20
ATOM     20  C   UNL     1       1.155   8.982  20.493  0.00  0.00    +0.000 A 
ATOM     21  C   UNL     1       1.290   8.752  21.867  0.00  0.00    +0.000 A 
ATOM     22  C   UNL     1       0.548   9.494  22.778  0.00  0.00    +0.000 A 
ATOM     23  C   UNL     1      -0.358  10.446  22.322  0.00  0.00    +0.000 A 
ATOM     24  C   UNL     1      -0.543  10.659  20.946  0.00  0.00    +0.000 A 
ATOM     25  C   UNL     1       0.190   9.896  20.014  0.00  0.00    +0.000 A 
ATOM     26  C   UNL     1      -0.018  10.094  18.527  0.00  0.00    +0.000 C 
ATOM     27  C   UNL     1      -1.300  10.859  18.179  0.00  0.00    +0.000 C 
ATOM     28  C   UNL     1      -1.448  12.090  19.061  0.00  0.00    +0.000 C 
ATOM     29  C   UNL     1      -1.584  11.667  20.519  0.00  0.00    +0.000 C 
ENDBRANCH  19  20
ENDBRANCH   5  19
TORSDOF 5
ENDMDL
MODEL 6
REMARK VINA RESULT:      -8.0      2.191      3.758
REMARK  Name = 
REMARK  5 active torsions:
REMARK  status: ('A' for Active; 'I' for Inactive)
REMARK    1  A    between atoms: O_1  and  N_2
REMARK    2  A    between atoms: C_3  and  C_11
REMARK    3  A    between atoms: N_4  and  C_5
REMARK    4  A    between atoms: C_15  and  O_16
REMARK    5  A    between atoms: O_16  and  C_17
REMARK                            x       y       z     vdW  Elec       q    Type
REMARK                         _______ _______ _______ _____ _____    ______ ____
ROOT
ATOM      1  C   UNL     1       2.683   6.707  18.920  0.00  0.00    +0.000 A 
ATOM      2  C   UNL     1       2.221   6.594  20.229  0.00  0.00    +0.000 A 
ATOM      3  C   UNL     1       1.492   7.651  20.732  0.00  0.00    +0.000 A 
ATOM      4  N   UNL     1       1.200   8.765  20.026  0.00  0.00    +0.000 NA
ATOM      5  C   UNL     1       1.684   8.859  18.762  0.00  0.00    +0.000 A 
ATOM      6  C   UNL     1       2.428   7.851  18.170  0.00  0.00    +0.000 A 
ENDROOT
BRANCH   1   8
ATOM      7  N   UNL     1       2.514   4.748  17.608  0.00  0.00    +0.000 NA
ATOM      8  C   UNL     1       3.319   5.532  18.253  0.00  0.00    +0.000 C 
ATOM      9  N   UNL     1       4.675   5.415  18.496  0.00  0.00    +0.000 N 
ATOM     10  H   UNL     1       5.023   6.007  19.237  0.00  0.00    +0.000 HD
BRANCH   9  11
ATOM     11  C   UNL     1       5.702   4.983  17.555  0.00  0.00    +0.000 C 
ATOM     12  C   UNL     1       5.930   6.104  16.517  0.00  0.00    +0.000 C 
ATOM     13  C   UNL     1       6.551   7.372  17.122  0.00  0.00    +0.000 C 
ATOM     14  C   UNL     1       7.813   7.072  17.926  0.00  0.00    +0.000 C 
ATOM     15  C   UNL     1       7.605   5.951  18.940  0.00  0.00    +0.000 C 
ATOM     16  C   UNL     1       7.021   4.701  18.286  0.00  0.00    +0.000 C 
ENDBRANCH   9  11
BRANCH   7  17
ATOM     17  O   UNL     1       3.152   3.600  17.138  0.00  0.00    +0.000 OA
ATOM     18  H   UNL     1       2.653   2.891  17.581  0.00  0.00    +0.000 HD
ENDBRANCH   7  17
ENDBRANCH   1   8
BRANCH   5  19
ATOM     19  O   UNL     1       1.272   9.986  18.073  0.00  0.00    +0.000 OA
BRANCH  19  20
ATOM     20  C   UNL     1       0.437  10.883  18.712  0.00  0.00    +0.000 A 
ATOM     21  C   UNL     1       0.927  11.768  19.679  0.00  0.00    +0.000 A 
ATOM     22  C   UNL     1       0.078  12.691  20.278  0.00  0.00    +0.000 A 
ATOM     23  C   UNL     1      -1.271  12.712  19.941  0.00  0.00    +0.000 A 
ATOM     24  C   UNL     1      -1.793  11.800  19.008  0.00  0.00    +0.000 A 
ATOM     25  C   UNL     1      -0.943  10.847  18.410  0.00  0.00    +0.000 A 
ATOM     26  C   UNL     1      -1.494   9.839  17.423  0.00  0.00    +0.000 C 
ATOM     27  C   UNL     1      -3.021   9.715  17.455  0.00  0.00    +0.000 C 
ATOM     28  C   UNL     1      -3.672  11.090  17.464  0.00  0.00    +0.000 C 
ATOM     29  C   UNL     1      -3.277  11.840  18.731  0.00  0.00    +0.000 C 
ENDBRANCH  19  20
ENDBRANCH   5  19
TORSDOF 5
ENDMDL
MODEL 7
REMARK VINA RESULT:      -7.9      0.691      2.178
REMARK  Name = 
REMARK  5 active torsions:
REMARK  status: ('A' for Active; 'I' for Inactive)
REMARK    1  A    between atoms: O_1  and  N_2
REMARK    2  A    between atoms: C_3  and  C_11
REMARK    3  A    between atoms: N_4  and  C_5
REMARK    4  A    between atoms: C_15  and  O_16
REMARK    5  A    between atoms: O_16  and  C_17
REMARK                            x       y       z     vdW  Elec       q    Type
REMARK                         _______ _______ _______ _____ _____    ______ ____
ROOT
ATOM      1  C   UNL     1       1.867   8.072  19.453  0.00  0.00    +0.000 A 
ATOM      2  C   UNL     1       1.414   7.778  20.736  0.00  0.00    +0.000 A 
ATOM      3  C   UNL     1       0.617   8.719  21.352  0.00  0.00    +0.000 A 
ATOM      4  N   UNL     1       0.251   9.886  20.777  0.00  0.00    +0.000 NA
ATOM      5  C   UNL     1       0.728  10.158  19.536  0.00  0.00    +0.000 A 
ATOM      6  C   UNL     1       1.537   9.276  18.837  0.00  0.00    +0.000 A 
ENDROOT
BRANCH   1   8
ATOM      7  N   UNL     1       3.514   7.461  17.871  0.00  0.00    +0.000 NA
ATOM      8  C   UNL     1       2.581   7.028  18.659  0.00  0.00    +0.000 C 
ATOM      9  N   UNL     1       2.075   5.752  18.827  0.00  0.00    +0.000 N 
ATOM     10  H   UNL     1       1.182   5.711  19.299  0.00  0.00    +0.000 HD
BRANCH   9  11
ATOM     11  C   UNL     1       2.833   4.508  18.892  0.00  0.00    +0.000 C 
ATOM     12  C   UNL     1       3.307   4.289  20.346  0.00  0.00    +0.000 C 
ATOM     13  C   UNL     1       2.154   4.021  21.324  0.00  0.00    +0.000 C 
ATOM     14  C   UNL     1       1.236   2.900  20.846  0.00  0.00    +0.000 C 
ATOM     15  C   UNL     1       0.780   3.096  19.404  0.00  0.00    +0.000 C 
ATOM     16  C   UNL     1       1.962   3.321  18.464  0.00  0.00    +0.000 C 
ENDBRANCH   9  11
BRANCH   7  17
ATOM     17  O   UNL     1       4.032   6.453  17.057  0.00  0.00    +0.000 OA
ATOM     18  H   UNL     1       3.241   6.149  16.577  0.00  0.00    +0.000 HD
ENDBRANCH   7  17
ENDBRANCH   1   8
BRANCH   5  19
ATOM     19  O   UNL     1       0.241  11.327  18.979  0.00  0.00    +0.000 OA
BRANCH  19  20
ATOM     20  C   UNL     1      -1.079  11.667  19.203  0.00  0.00    +0.000 A 
ATOM     21  C   UNL     1      -1.461  12.374  20.350  0.00  0.00    +0.000 A 
ATOM     22  C   UNL     1      -2.789  12.742  20.534  0.00  0.00    +0.000 A 
ATOM     23  C   UNL     1      -3.747  12.379  19.593  0.00  0.00    +0.000 A 
ATOM     24  C   UNL     1      -3.392  11.629  18.460  0.00  0.00    +0.000 A 
ATOM     25  C   UNL     1      -2.051  11.232  18.275  0.00  0.00    +0.000 A 
ATOM     26  C   UNL     1      -1.656  10.400  17.073  0.00  0.00    +0.000 C 
ATOM     27  C   UNL     1      -2.843   9.745  16.358  0.00  0.00    +0.000 C 
ATOM     28  C   UNL     1      -3.969  10.748  16.156  0.00  0.00    +0.000 C 
ATOM     29  C   UNL     1      -4.490  11.218  17.509  0.00  0.00    +0.000 C 
ENDBRANCH  19  20
ENDBRANCH   5  19
TORSDOF 5
ENDMDL
MODEL 8
REMARK VINA RESULT:      -7.8      2.306      8.497
REMARK  Name = 
REMARK  5 active torsions:
REMARK  status: ('A' for Active; 'I' for Inactive)
REMARK    1  A    between atoms: O_1  and  N_2
REMARK    2  A    between atoms: C_3  and  C_11
REMARK    3  A    between atoms: N_4  and  C_5
REMARK    4  A    between atoms: C_15  and  O_16
REMARK    5  A    between atoms: O_16  and  C_17
REMARK                            x       y       z     vdW  Elec       q    Type
REMARK                         _______ _______ _______ _____ _____    ______ ____
ROOT
ATOM      1  C   UNL     1       0.292   9.903  19.239  0.00  0.00    +0.000 A 
ATOM      2  C   UNL     1       0.191   9.427  20.543  0.00  0.00    +0.000 A 
ATOM      3  C   UNL     1       1.064   8.428  20.918  0.00  0.00    +0.000 A 
ATOM      4  N   UNL     1       2.005   7.907  20.099  0.00  0.00    +0.000 NA
ATOM      5  C   UNL     1       2.065   8.373  18.826  0.00  0.00    +0.000 A 
ATOM      6  C   UNL     1       1.228   9.373  18.356  0.00  0.00    +0.000 A 
ENDROOT
BRANCH   1   8
ATOM      7  N   UNL     1      -1.144  10.988  17.707  0.00  0.00    +0.000 NA
ATOM      8  C   UNL     1      -0.494  11.102  18.823  0.00  0.00    +0.000 C 
ATOM      9  N   UNL     1      -0.342  12.192  19.659  0.00  0.00    +0.000 N 
ATOM     10  H   UNL     1       0.418  12.113  20.321  0.00  0.00    +0.000 HD
BRANCH   9  11
ATOM     11  C   UNL     1      -1.371  13.146  20.056  0.00  0.00    +0.000 C 
ATOM     12  C   UNL     1      -2.388  12.430  20.973  0.00  0.00    +0.000 C 
ATOM     13  C   UNL     1      -1.792  12.011  22.325  0.00  0.00    +0.000 C 
ATOM     14  C   UNL     1      -1.095  13.167  23.035  0.00  0.00    +0.000 C 
ATOM     15  C   UNL     1      -0.105  13.895  22.131  0.00  0.00    +0.000 C 
ATOM     16  C   UNL     1      -0.752  14.325  20.816  0.00  0.00    +0.000 C 
ENDBRANCH   9  11
BRANCH   7  17
ATOM     17  O   UNL     1      -1.732  12.189  17.309  0.00  0.00    +0.000 OA
ATOM     18  H   UNL     1      -1.093  12.848  17.633  0.00  0.00    +0.000 HD
ENDBRANCH   7  17
ENDBRANCH   1   8
BRANCH   5  19
ATOM     19  O   UNL     1       3.106   7.856  18.075  0.00  0.00    +0.000 OA
BRANCH  19  20
ATOM     20  C   UNL     1       3.121   6.499  17.812  0.00  0.00    +0.000 A 
ATOM     21  C   UNL     1       2.024   5.688  18.124  0.00  0.00    +0.000 A 
ATOM     22  C   UNL     1       2.044   4.334  17.812  0.00  0.00    +0.000 A 
ATOM     23  C   UNL     1       3.171   3.775  17.219  0.00  0.00    +0.000 A 
ATOM     24  C   UNL     1       4.301   4.562  16.942  0.00  0.00    +0.000 A 
ATOM     25  C   UNL     1       4.298   5.933  17.274  0.00  0.00    +0.000 A 
ATOM     26  C   UNL     1       5.518   6.790  17.007  0.00  0.00    +0.000 C 
ATOM     27  C   UNL     1       6.793   5.983  16.738  0.00  0.00    +0.000 C 
ATOM     28  C   UNL     1       6.518   4.857  15.752  0.00  0.00    +0.000 C 
ATOM     29  C   UNL     1       5.512   3.881  16.350  0.00  0.00    +0.000 C 
ENDBRANCH  19  20
ENDBRANCH   5  19
TORSDOF 5
ENDMDL
MODEL 9
REMARK VINA RESULT:      -7.8      2.425      8.595
REMARK  Name = 
REMARK  5 active torsions:
REMARK  status: ('A' for Active; 'I' for Inactive)
REMARK    1  A    between atoms: O_1  and  N_2
REMARK    2  A    between atoms: C_3  and  C_11
REMARK    3  A    between atoms: N_4  and  C_5
REMARK    4  A    between atoms: C_15  and  O_16
REMARK    5  A    between atoms: O_16  and  C_17
REMARK                            x       y       z     vdW  Elec       q    Type
REMARK                         _______ _______ _______ _____ _____    ______ ____
ROOT
ATOM      1  C   UNL     1       0.388   9.805  18.801  0.00  0.00    +0.000 A 
ATOM      2  C   UNL     1       0.224   9.492  20.148  0.00  0.00    +0.000 A 
ATOM      3  C   UNL     1       1.094   8.570  20.690  0.00  0.00    +0.000 A 
ATOM      4  N   UNL     1       2.088   7.975  19.993  0.00  0.00    +0.000 NA
ATOM      5  C   UNL     1       2.209   8.281  18.677  0.00  0.00    +0.000 A 
ATOM      6  C   UNL     1       1.381   9.193  18.042  0.00  0.00    +0.000 A 
ENDROOT
BRANCH   1   8
ATOM      7  N   UNL     1      -1.429  10.569  17.498  0.00  0.00    +0.000 NA
ATOM      8  C   UNL     1      -0.397  10.923  18.197  0.00  0.00    +0.000 C 
ATOM      9  N   UNL     1       0.152  12.173  18.411  0.00  0.00    +0.000 N 
ATOM     10  H   UNL     1       1.097  12.164  18.769  0.00  0.00    +0.000 HD
BRANCH   9  11
ATOM     11  C   UNL     1      -0.568  13.414  18.678  0.00  0.00    +0.000 C 
ATOM     12  C   UNL     1      -1.386  13.245  19.978  0.00  0.00    +0.000 C 
ATOM     13  C   UNL     1      -0.509  13.097  21.230  0.00  0.00    +0.000 C 
ATOM     14  C   UNL     1       0.526  14.212  21.347  0.00  0.00    +0.000 C 
ATOM     15  C   UNL     1       1.326  14.401  20.061  0.00  0.00    +0.000 C 
ATOM     16  C   UNL     1       0.413  14.580  18.851  0.00  0.00    +0.000 C 
ENDBRANCH   9  11
BRANCH   7  17
ATOM     17  O   UNL     1      -2.024  11.650  16.846  0.00  0.00    +0.000 OA
ATOM     18  H   UNL     1      -1.970  12.351  17.520  0.00  0.00    +0.000 HD
ENDBRANCH   7  17
ENDBRANCH   1   8
BRANCH   5  19
ATOM     19  O   UNL     1       3.300   7.701  18.053  0.00  0.00    +0.000 OA
BRANCH  19  20
ATOM     20  C   UNL     1       3.256   6.350  17.766  0.00  0.00    +0.000 A 
ATOM     21  C   UNL     1       2.156   5.567  18.133  0.00  0.00    +0.000 A 
ATOM     22  C   UNL     1       2.114   4.219  17.796  0.00  0.00    +0.000 A 
ATOM     23  C   UNL     1       3.184   3.638  17.124  0.00  0.00    +0.000 A 
ATOM     24  C   UNL     1       4.318   4.395  16.789  0.00  0.00    +0.000 A 
ATOM     25  C   UNL     1       4.379   5.759  17.144  0.00  0.00    +0.000 A 
ATOM     26  C   UNL     1       5.606   6.584  16.816  0.00  0.00    +0.000 C 
ATOM     27  C   UNL     1       6.835   5.744  16.453  0.00  0.00    +0.000 C 
ATOM     28  C   UNL     1       6.465   4.646  15.467  0.00  0.00    +0.000 C 
ATOM     29  C   UNL     1       5.468   3.690  16.111  0.00  0.00    +0.000 C 
ENDBRANCH  19  20
ENDBRANCH   5  19
TORSDOF 5
ENDMDL
