MODEL 1
REMARK VINA RESULT:      -6.9      0.000      0.000
REMARK  Name = 
REMARK  4 active torsions:
REMARK  status: ('A' for Active; 'I' for Inactive)
REMARK    1  A    between atoms: C_1  and  C_2
REMARK    2  A    between atoms: C_2  and  N_3
REMARK    3  A    between atoms: C_4  and  C_5
REMARK    4  A    between atoms: C_13  and  C_14
REMARK                            x       y       z     vdW  Elec       q    Type
REMARK                         _______ _______ _______ _____ _____    ______ ____
ROOT
ATOM      1  N   UNL     1       4.202   5.822  17.523  0.00  0.00    +0.000 N 
ATOM      2  C   UNL     1       3.786   4.522  17.800  0.00  0.00    +0.000 A 
ATOM      3  C   UNL     1       4.343   3.476  17.166  0.00  0.00    +0.000 A 
ATOM      4  C   UNL     1       5.360   3.674  16.168  0.00  0.00    +0.000 A 
ATOM      5  C   UNL     1       5.774   4.904  15.844  0.00  0.00    +0.000 A 
ATOM      6  C   UNL     1       5.182   6.085  16.545  0.00  0.00    +0.000 A 
ATOM      7  O   UNL     1       5.568   7.219  16.259  0.00  0.00    +0.000 OA
ENDROOT
BRANCH   2   8
ATOM      8  C   UNL     1       2.761   4.184  18.802  0.00  0.00    +0.000 A 
ATOM      9  C   UNL     1       3.073   4.243  20.168  0.00  0.00    +0.000 A 
ATOM     10  C   UNL     1       2.187   3.724  21.116  0.00  0.00    +0.000 A 
ATOM     11  C   UNL     1       0.987   3.145  20.708  0.00  0.00    +0.000 A 
ATOM     12  C   UNL     1       0.657   3.103  19.354  0.00  0.00    +0.000 A 
ATOM     13  C   UNL     1       1.541   3.621  18.403  0.00  0.00    +0.000 A 
ENDBRANCH   2   8
BRANCH   1  15
ATOM     14  C   UNL     1       2.372   7.519  17.695  0.00  0.00    +0.000 C 
ATOM     15  C   UNL     1       3.678   6.980  18.256  0.00  0.00    +0.000 C 
ENDBRANCH   1  15
BRANCH   5  16
ATOM     16  C   UNL     1       6.780   5.101  14.858  0.00  0.00    +0.000 C 
ATOM     17  N   UNL     1       7.583   5.337  14.052  0.00  0.00    +0.000 NA
ENDBRANCH   5  16
TORSDOF 3
ENDMDL
MODEL 2
REMARK VINA RESULT:      -6.7      1.714      2.195
REMARK  Name = 
REMARK  4 active torsions:
REMARK  status: ('A' for Active; 'I' for Inactive)
REMARK    1  A    between atoms: C_1  and  C_2
REMARK    2  A    between atoms: C_2  and  N_3
REMARK    3  A    between atoms: C_4  and  C_5
REMARK    4  A    between atoms: C_13  and  C_14
REMARK                            x       y       z     vdW  Elec       q    Type
REMARK                         _______ _______ _______ _____ _____    ______ ____
ROOT
ATOM      1  N   UNL     1       5.629   5.261  16.980  0.00  0.00    +0.000 N 
ATOM      2  C   UNL     1       4.745   4.245  16.623  0.00  0.00    +0.000 A 
ATOM      3  C   UNL     1       4.855   3.630  15.434  0.00  0.00    +0.000 A 
ATOM      4  C   UNL     1       5.868   4.022  14.491  0.00  0.00    +0.000 A 
ATOM      5  C   UNL     1       6.723   5.010  14.773  0.00  0.00    +0.000 A 
ATOM      6  C   UNL     1       6.632   5.703  16.096  0.00  0.00    +0.000 A 
ATOM      7  O   UNL     1       7.424   6.606  16.365  0.00  0.00    +0.000 OA
ENDROOT
BRANCH   2   8
ATOM      8  C   UNL     1       3.671   3.748  17.499  0.00  0.00    +0.000 A 
ATOM      9  C   UNL     1       3.790   2.489  18.105  0.00  0.00    +0.000 A 
ATOM     10  C   UNL     1       2.697   1.916  18.760  0.00  0.00    +0.000 A 
ATOM     11  C   UNL     1       1.480   2.593  18.813  0.00  0.00    +0.000 A 
ATOM     12  C   UNL     1       1.358   3.855  18.234  0.00  0.00    +0.000 A 
ATOM     13  C   UNL     1       2.450   4.432  17.578  0.00  0.00    +0.000 A 
ENDBRANCH   2   8
BRANCH   1  15
ATOM     14  C   UNL     1       6.498   5.231  19.326  0.00  0.00    +0.000 C 
ATOM     15  C   UNL     1       5.592   5.896  18.302  0.00  0.00    +0.000 C 
ENDBRANCH   1  15
BRANCH   5  16
ATOM     16  C   UNL     1       7.725   5.398  13.841  0.00  0.00    +0.000 C 
ATOM     17  N   UNL     1       8.581   5.751  13.139  0.00  0.00    +0.000 NA
ENDBRANCH   5  16
TORSDOF 3
ENDMDL
MODEL 3
REMARK VINA RESULT:      -6.7      0.422      1.208
REMARK  Name = 
REMARK  4 active torsions:
REMARK  status: ('A' for Active; 'I' for Inactive)
REMARK    1  A    between atoms: C_1  and  C_2
REMARK    2  A    between atoms: C_2  and  N_3
REMARK    3  A    between atoms: C_4  and  C_5
REMARK    4  A    between atoms: C_13  and  C_14
REMARK                            x       y       z     vdW  Elec       q    Type
REMARK                         _______ _______ _______ _____ _____    ______ ____
ROOT
ATOM      1  N   UNL     1       4.407   5.486  17.576  0.00  0.00    +0.000 N 
ATOM      2  C   UNL     1       4.001   4.159  17.699  0.00  0.00    +0.000 A 
ATOM      3  C   UNL     1       4.529   3.206  16.911  0.00  0.00    +0.000 A 
ATOM      4  C   UNL     1       5.502   3.536  15.906  0.00  0.00    +0.000 A 
ATOM      5  C   UNL     1       5.905   4.799  15.727  0.00  0.00    +0.000 A 
ATOM      6  C   UNL     1       5.345   5.877  16.600  0.00  0.00    +0.000 A 
ATOM      7  O   UNL     1       5.721   7.039  16.447  0.00  0.00    +0.000 OA
ENDROOT
BRANCH   2   8
ATOM      8  C   UNL     1       3.019   3.691  18.691  0.00  0.00    +0.000 A 
ATOM      9  C   UNL     1       1.654   3.673  18.369  0.00  0.00    +0.000 A 
ATOM     10  C   UNL     1       0.699   3.438  19.361  0.00  0.00    +0.000 A 
ATOM     11  C   UNL     1       1.098   3.219  20.678  0.00  0.00    +0.000 A 
ATOM     12  C   UNL     1       2.453   3.212  21.004  0.00  0.00    +0.000 A 
ATOM     13  C   UNL     1       3.412   3.447  20.014  0.00  0.00    +0.000 A 
ENDBRANCH   2   8
BRANCH   1  15
ATOM     14  C   UNL     1       2.664   7.237  17.971  0.00  0.00    +0.000 C 
ATOM     15  C   UNL     1       3.917   6.537  18.474  0.00  0.00    +0.000 C 
ENDBRANCH   1  15
BRANCH   5  16
ATOM     16  C   UNL     1       6.869   5.125  14.733  0.00  0.00    +0.000 C 
ATOM     17  N   UNL     1       7.649   5.467  13.944  0.00  0.00    +0.000 NA
ENDBRANCH   5  16
TORSDOF 3
ENDMDL
MODEL 4
REMARK VINA RESULT:      -6.5      2.539      5.687
REMARK  Name = 
REMARK  4 active torsions:
REMARK  status: ('A' for Active; 'I' for Inactive)
REMARK    1  A    between atoms: C_1  and  C_2
REMARK    2  A    between atoms: C_2  and  N_3
REMARK    3  A    between atoms: C_4  and  C_5
REMARK    4  A    between atoms: C_13  and  C_14
REMARK                            x       y       z     vdW  Elec       q    Type
REMARK                         _______ _______ _______ _____ _____    ______ ____
ROOT
ATOM      1  N   UNL     1       3.525   5.049  19.199  0.00  0.00    +0.000 N 
ATOM      2  C   UNL     1       4.247   4.101  18.478  0.00  0.00    +0.000 A 
ATOM      3  C   UNL     1       4.123   2.791  18.755  0.00  0.00    +0.000 A 
ATOM      4  C   UNL     1       3.265   2.340  19.818  0.00  0.00    +0.000 A 
ATOM      5  C   UNL     1       2.572   3.211  20.559  0.00  0.00    +0.000 A 
ATOM      6  C   UNL     1       2.680   4.674  20.262  0.00  0.00    +0.000 A 
ATOM      7  O   UNL     1       2.036   5.479  20.934  0.00  0.00    +0.000 OA
ENDROOT
BRANCH   2   8
ATOM      8  C   UNL     1       5.152   4.431  17.365  0.00  0.00    +0.000 A 
ATOM      9  C   UNL     1       4.697   4.335  16.042  0.00  0.00    +0.000 A 
ATOM     10  C   UNL     1       5.596   4.437  14.978  0.00  0.00    +0.000 A 
ATOM     11  C   UNL     1       6.953   4.634  15.226  0.00  0.00    +0.000 A 
ATOM     12  C   UNL     1       7.412   4.754  16.536  0.00  0.00    +0.000 A 
ATOM     13  C   UNL     1       6.515   4.653  17.604  0.00  0.00    +0.000 A 
ENDBRANCH   2   8
BRANCH   1  15
ATOM     14  C   UNL     1       2.444   6.930  17.951  0.00  0.00    +0.000 C 
ATOM     15  C   UNL     1       3.570   6.477  18.869  0.00  0.00    +0.000 C 
ENDBRANCH   1  15
BRANCH   5  16
ATOM     16  C   UNL     1       1.723   2.766  21.609  0.00  0.00    +0.000 C 
ATOM     17  N   UNL     1       1.067   2.333  22.465  0.00  0.00    +0.000 NA
ENDBRANCH   5  16
TORSDOF 3
ENDMDL
MODEL 5
REMARK VINA RESULT:      -6.4      1.550      2.232
REMARK  Name = 
REMARK  4 active torsions:
REMARK  status: ('A' for Active; 'I' for Inactive)
REMARK    1  A    between atoms: C_1  and  C_2
REMARK    2  A    between atoms: C_2  and  N_3
REMARK    3  A    between atoms: C_4  and  C_5
REMARK    4  A    between atoms: C_13  and  C_14
REMARK                            x       y       z     vdW  Elec       q    Type
REMARK                         _______ _______ _______ _____ _____    ______ ____
ROOT
ATOM      1  N   UNL     1       5.784   5.322  17.226  0.00  0.00    +0.000 N 
ATOM      2  C   UNL     1       4.848   4.321  16.977  0.00  0.00    +0.000 A 
ATOM      3  C   UNL     1       4.836   3.674  15.799  0.00  0.00    +0.000 A 
ATOM      4  C   UNL     1       5.768   4.017  14.759  0.00  0.00    +0.000 A 
ATOM      5  C   UNL     1       6.668   4.990  14.937  0.00  0.00    +0.000 A 
ATOM      6  C   UNL     1       6.713   5.717  16.244  0.00  0.00    +0.000 A 
ATOM      7  O   UNL     1       7.547   6.606  16.416  0.00  0.00    +0.000 OA
ENDROOT
BRANCH   2   8
ATOM      8  C   UNL     1       3.847   3.872  17.959  0.00  0.00    +0.000 A 
ATOM      9  C   UNL     1       2.567   4.444  17.964  0.00  0.00    +0.000 A 
ATOM     10  C   UNL     1       1.683   4.186  19.014  0.00  0.00    +0.000 A 
ATOM     11  C   UNL     1       2.069   3.356  20.065  0.00  0.00    +0.000 A 
ATOM     12  C   UNL     1       3.331   2.763  20.058  0.00  0.00    +0.000 A 
ATOM     13  C   UNL     1       4.218   3.020  19.008  0.00  0.00    +0.000 A 
ENDBRANCH   2   8
BRANCH   1  15
ATOM     14  C   UNL     1       6.997   5.450  19.411  0.00  0.00    +0.000 C 
ATOM     15  C   UNL     1       5.882   5.990  18.528  0.00  0.00    +0.000 C 
ENDBRANCH   1  15
BRANCH   5  16
ATOM     16  C   UNL     1       7.590   5.330  13.909  0.00  0.00    +0.000 C 
ATOM     17  N   UNL     1       8.390   5.636  13.124  0.00  0.00    +0.000 NA
ENDBRANCH   5  16
TORSDOF 3
ENDMDL
MODEL 6
REMARK VINA RESULT:      -6.3      1.699      2.231
REMARK  Name = 
REMARK  4 active torsions:
REMARK  status: ('A' for Active; 'I' for Inactive)
REMARK    1  A    between atoms: C_1  and  C_2
REMARK    2  A    between atoms: C_2  and  N_3
REMARK    3  A    between atoms: C_4  and  C_5
REMARK    4  A    between atoms: C_13  and  C_14
REMARK                            x       y       z     vdW  Elec       q    Type
REMARK                         _______ _______ _______ _____ _____    ______ ____
ROOT
ATOM      1  N   UNL     1       6.049   5.410  17.711  0.00  0.00    +0.000 N 
ATOM      2  C   UNL     1       4.973   4.525  17.729  0.00  0.00    +0.000 A 
ATOM      3  C   UNL     1       4.622   3.852  16.619  0.00  0.00    +0.000 A 
ATOM      4  C   UNL     1       5.328   4.050  15.382  0.00  0.00    +0.000 A 
ATOM      5  C   UNL     1       6.350   4.909  15.304  0.00  0.00    +0.000 A 
ATOM      6  C   UNL     1       6.771   5.661  16.528  0.00  0.00    +0.000 A 
ATOM      7  O   UNL     1       7.718   6.444  16.464  0.00  0.00    +0.000 OA
ENDROOT
BRANCH   2   8
ATOM      8  C   UNL     1       4.174   4.230  18.930  0.00  0.00    +0.000 A 
ATOM      9  C   UNL     1       4.315   2.994  19.578  0.00  0.00    +0.000 A 
ATOM     10  C   UNL     1       3.420   2.617  20.581  0.00  0.00    +0.000 A 
ATOM     11  C   UNL     1       2.378   3.469  20.945  0.00  0.00    +0.000 A 
ATOM     12  C   UNL     1       2.243   4.710  20.323  0.00  0.00    +0.000 A 
ATOM     13  C   UNL     1       3.137   5.090  19.318  0.00  0.00    +0.000 A 
ENDBRANCH   2   8
BRANCH   1  15
ATOM     14  C   UNL     1       7.803   5.526  19.492  0.00  0.00    +0.000 C 
ATOM     15  C   UNL     1       6.513   6.096  18.921  0.00  0.00    +0.000 C 
ENDBRANCH   1  15
BRANCH   5  16
ATOM     16  C   UNL     1       7.049   5.105  14.081  0.00  0.00    +0.000 C 
ATOM     17  N   UNL     1       7.662   5.200  13.099  0.00  0.00    +0.000 NA
ENDBRANCH   5  16
TORSDOF 3
ENDMDL
MODEL 7
REMARK VINA RESULT:      -6.3      2.525      5.571
REMARK  Name = 
REMARK  4 active torsions:
REMARK  status: ('A' for Active; 'I' for Inactive)
REMARK    1  A    between atoms: C_1  and  C_2
REMARK    2  A    between atoms: C_2  and  N_3
REMARK    3  A    between atoms: C_4  and  C_5
REMARK    4  A    between atoms: C_13  and  C_14
REMARK                            x       y       z     vdW  Elec       q    Type
REMARK                         _______ _______ _______ _____ _____    ______ ____
ROOT
ATOM      1  N   UNL     1       3.660   4.859  19.155  0.00  0.00    +0.000 N 
ATOM      2  C   UNL     1       4.292   3.867  18.408  0.00  0.00    +0.000 A 
ATOM      3  C   UNL     1       4.060   2.568  18.661  0.00  0.00    +0.000 A 
ATOM      4  C   UNL     1       3.178   2.169  19.724  0.00  0.00    +0.000 A 
ATOM      5  C   UNL     1       2.568   3.082  20.489  0.00  0.00    +0.000 A 
ATOM      6  C   UNL     1       2.797   4.535  20.220  0.00  0.00    +0.000 A 
ATOM      7  O   UNL     1       2.230   5.379  20.914  0.00  0.00    +0.000 OA
ENDROOT
BRANCH   2   8
ATOM      8  C   UNL     1       5.211   4.142  17.291  0.00  0.00    +0.000 A 
ATOM      9  C   UNL     1       6.523   4.563  17.552  0.00  0.00    +0.000 A 
ATOM     10  C   UNL     1       7.334   5.030  16.515  0.00  0.00    +0.000 A 
ATOM     11  C   UNL     1       6.841   5.080  15.211  0.00  0.00    +0.000 A 
ATOM     12  C   UNL     1       5.547   4.642  14.938  0.00  0.00    +0.000 A 
ATOM     13  C   UNL     1       4.733   4.174  15.974  0.00  0.00    +0.000 A 
ENDBRANCH   2   8
BRANCH   1  15
ATOM     14  C   UNL     1       2.744   6.844  17.937  0.00  0.00    +0.000 C 
ATOM     15  C   UNL     1       3.823   6.284  18.852  0.00  0.00    +0.000 C 
ENDBRANCH   1  15
BRANCH   5  16
ATOM     16  C   UNL     1       1.694   2.688  21.540  0.00  0.00    +0.000 C 
ATOM     17  N   UNL     1       1.041   2.375  22.448  0.00  0.00    +0.000 NA
ENDBRANCH   5  16
TORSDOF 3
ENDMDL
MODEL 8
REMARK VINA RESULT:      -6.2      1.815      2.302
REMARK  Name = 
REMARK  4 active torsions:
REMARK  status: ('A' for Active; 'I' for Inactive)
REMARK    1  A    between atoms: C_1  and  C_2
REMARK    2  A    between atoms: C_2  and  N_3
REMARK    3  A    between atoms: C_4  and  C_5
REMARK    4  A    between atoms: C_13  and  C_14
REMARK                            x       y       z     vdW  Elec       q    Type
REMARK                         _______ _______ _______ _____ _____    ______ ____
ROOT
ATOM      1  N   UNL     1       5.718   4.430  17.138  0.00  0.00    +0.000 N 
ATOM      2  C   UNL     1       4.553   3.928  16.563  0.00  0.00    +0.000 A 
ATOM      3  C   UNL     1       4.424   3.860  15.227  0.00  0.00    +0.000 A 
ATOM      4  C   UNL     1       5.471   4.330  14.360  0.00  0.00    +0.000 A 
ATOM      5  C   UNL     1       6.597   4.848  14.861  0.00  0.00    +0.000 A 
ATOM      6  C   UNL     1       6.773   4.922  16.345  0.00  0.00    +0.000 A 
ATOM      7  O   UNL     1       7.813   5.387  16.811  0.00  0.00    +0.000 OA
ENDROOT
BRANCH   2   8
ATOM      8  C   UNL     1       3.413   3.410  17.338  0.00  0.00    +0.000 A 
ATOM      9  C   UNL     1       2.332   4.251  17.638  0.00  0.00    +0.000 A 
ATOM     10  C   UNL     1       1.352   3.843  18.546  0.00  0.00    +0.000 A 
ATOM     11  C   UNL     1       1.443   2.594  19.159  0.00  0.00    +0.000 A 
ATOM     12  C   UNL     1       2.500   1.741  18.849  0.00  0.00    +0.000 A 
ATOM     13  C   UNL     1       3.484   2.147  17.941  0.00  0.00    +0.000 A 
ENDBRANCH   2   8
BRANCH   1  15
ATOM     14  C   UNL     1       5.312   5.642  19.290  0.00  0.00    +0.000 C 
ATOM     15  C   UNL     1       5.928   4.440  18.589  0.00  0.00    +0.000 C 
ENDBRANCH   1  15
BRANCH   5  16
ATOM     16  C   UNL     1       7.633   5.312  14.004  0.00  0.00    +0.000 C 
ATOM     17  N   UNL     1       8.483   5.756  13.348  0.00  0.00    +0.000 NA
ENDBRANCH   5  16
TORSDOF 3
ENDMDL
MODEL 9
REMARK VINA RESULT:      -6.1      2.653      5.764
REMARK  Name = 
REMARK  4 active torsions:
REMARK  status: ('A' for Active; 'I' for Inactive)
REMARK    1  A    between atoms: C_1  and  C_2
REMARK    2  A    between atoms: C_2  and  N_3
REMARK    3  A    between atoms: C_4  and  C_5
REMARK    4  A    between atoms: C_13  and  C_14
REMARK                            x       y       z     vdW  Elec       q    Type
REMARK                         _______ _______ _______ _____ _____    ______ ____
ROOT
ATOM      1  N   UNL     1       3.920   4.940  18.815  0.00  0.00    +0.000 N 
ATOM      2  C   UNL     1       4.298   5.650  17.677  0.00  0.00    +0.000 A 
ATOM      3  C   UNL     1       3.852   6.901  17.472  0.00  0.00    +0.000 A 
ATOM      4  C   UNL     1       2.952   7.526  18.403  0.00  0.00    +0.000 A 
ATOM      5  C   UNL     1       2.536   6.877  19.496  0.00  0.00    +0.000 A 
ATOM      6  C   UNL     1       3.029   5.489  19.757  0.00  0.00    +0.000 A 
ATOM      7  O   UNL     1       2.657   4.892  20.768  0.00  0.00    +0.000 OA
ENDROOT
BRANCH   2   8
ATOM      8  C   UNL     1       5.217   5.127  16.652  0.00  0.00    +0.000 A 
ATOM      9  C   UNL     1       6.582   5.443  16.709  0.00  0.00    +0.000 A 
ATOM     10  C   UNL     1       7.422   5.136  15.637  0.00  0.00    +0.000 A 
ATOM     11  C   UNL     1       6.907   4.513  14.501  0.00  0.00    +0.000 A 
ATOM     12  C   UNL     1       5.557   4.173  14.444  0.00  0.00    +0.000 A 
ATOM     13  C   UNL     1       4.713   4.479  15.516  0.00  0.00    +0.000 A 
ENDBRANCH   2   8
BRANCH   1  15
ATOM     14  C   UNL     1       3.645   2.472  18.505  0.00  0.00    +0.000 C 
ATOM     15  C   UNL     1       4.454   3.607  19.114  0.00  0.00    +0.000 C 
ENDBRANCH   1  15
BRANCH   5  16
ATOM     16  C   UNL     1       1.647   7.495  20.419  0.00  0.00    +0.000 C 
ATOM     17  N   UNL     1       0.949   8.068  21.150  0.00  0.00    +0.000 NA
ENDBRANCH   5  16
TORSDOF 3
ENDMDL
