MODEL 1
REMARK VINA RESULT:      -7.2      0.000      0.000
REMARK  Name = 
REMARK  10 active torsions:
REMARK  status: ('A' for Active; 'I' for Inactive)
REMARK    1  A    between atoms: C_1  and  O_2
REMARK    2  A    between atoms: O_2  and  C_3
REMARK    3  A    between atoms: C_6  and  C_7
REMARK    4  A    between atoms: C_11  and  C_12
REMARK    5  A    between atoms: C_15  and  O_16
REMARK    6  A    between atoms: O_16  and  C_17
REMARK    7  A    between atoms: C_18  and  O_19
REMARK    8  A    between atoms: O_19  and  C_20
REMARK    9  A    between atoms: C_26  and  O_27
REMARK   10  A    between atoms: O_27  and  C_28
REMARK                            x       y       z     vdW  Elec       q    Type
REMARK                         _______ _______ _______ _____ _____    ______ ____
ROOT
ATOM      1  C   UNL     1       1.933   8.628  19.275  0.00  0.00    +0.000 C 
ATOM      2  O   UNL     1       2.557   9.178  18.101  0.00  0.00    +0.000 OA
ATOM      3  C   UNL     1       1.964  10.470  17.933  0.00  0.00    +0.000 C 
ATOM      4  C   UNL     1       0.492  10.274  18.245  0.00  0.00    +0.000 C 
ATOM      5  C   UNL     1      -0.135  11.414  19.042  0.00  0.00    +0.000 C 
ATOM      6  O   UNL     1       0.085  11.036  20.422  0.00  0.00    +0.000 OA
ATOM      7  C   UNL     1      -0.022   9.608  20.504  0.00  0.00    +0.000 C 
ATOM      8  C   UNL     1       0.479   9.077  19.180  0.00  0.00    +0.000 C 
ENDROOT
BRANCH   1  12
ATOM      9  C   UNL     1       2.209   4.314  19.501  0.00  0.00    +0.000 A 
ATOM     10  C   UNL     1       1.755   5.065  20.589  0.00  0.00    +0.000 A 
ATOM     11  C   UNL     1       1.690   6.458  20.529  0.00  0.00    +0.000 A 
ATOM     12  C   UNL     1       2.151   7.139  19.403  0.00  0.00    +0.000 A 
ATOM     13  C   UNL     1       2.706   6.376  18.356  0.00  0.00    +0.000 A 
ATOM     14  C   UNL     1       2.750   4.975  18.392  0.00  0.00    +0.000 A 
BRANCH   9  16
ATOM     15  C   UNL     1       0.910   2.410  18.991  0.00  0.00    +0.000 C 
ATOM     16  O   UNL     1       2.125   2.941  19.512  0.00  0.00    +0.000 OA
ENDBRANCH   9  16
BRANCH  14  17
ATOM     17  O   UNL     1       3.320   4.459  17.257  0.00  0.00    +0.000 OA
ATOM     18  C   UNL     1       4.663   4.774  16.942  0.00  0.00    +0.000 C 
ENDBRANCH  14  17
ENDBRANCH   1  12
BRANCH   5  19
ATOM     19  C   UNL     1      -1.620  11.601  18.767  0.00  0.00    +0.000 A 
ATOM     20  C   UNL     1      -2.455  12.188  19.723  0.00  0.00    +0.000 A 
ATOM     21  C   UNL     1      -3.828  12.274  19.525  0.00  0.00    +0.000 A 
ATOM     22  C   UNL     1      -4.419  11.791  18.349  0.00  0.00    +0.000 A 
ATOM     23  C   UNL     1      -3.592  11.283  17.335  0.00  0.00    +0.000 A 
ATOM     24  C   UNL     1      -2.202  11.194  17.556  0.00  0.00    +0.000 A 
BRANCH  22  25
ATOM     25  O   UNL     1      -5.777  11.830  18.174  0.00  0.00    +0.000 OA
ATOM     26  C   UNL     1      -6.500  10.700  18.650  0.00  0.00    +0.000 C 
ENDBRANCH  22  25
BRANCH  23  27
ATOM     27  O   UNL     1      -3.977  10.768  16.123  0.00  0.00    +0.000 OA
ATOM     28  C   UNL     1      -2.963  10.531  15.156  0.00  0.00    +0.000 C 
ENDBRANCH  23  27
ENDBRANCH   5  19
TORSDOF 6
ENDMDL
MODEL 2
REMARK VINA RESULT:      -6.9      1.213      2.226
REMARK  Name = 
REMARK  10 active torsions:
REMARK  status: ('A' for Active; 'I' for Inactive)
REMARK    1  A    between atoms: C_1  and  O_2
REMARK    2  A    between atoms: O_2  and  C_3
REMARK    3  A    between atoms: C_6  and  C_7
REMARK    4  A    between atoms: C_11  and  C_12
REMARK    5  A    between atoms: C_15  and  O_16
REMARK    6  A    between atoms: O_16  and  C_17
REMARK    7  A    between atoms: C_18  and  O_19
REMARK    8  A    between atoms: O_19  and  C_20
REMARK    9  A    between atoms: C_26  and  O_27
REMARK   10  A    between atoms: O_27  and  C_28
REMARK                            x       y       z     vdW  Elec       q    Type
REMARK                         _______ _______ _______ _____ _____    ______ ____
ROOT
ATOM      1  C   UNL     1       1.506   9.711  19.317  0.00  0.00    +0.000 C 
ATOM      2  O   UNL     1       2.120  10.716  18.491  0.00  0.00    +0.000 OA
ATOM      3  C   UNL     1       1.269  11.862  18.601  0.00  0.00    +0.000 C 
ATOM      4  C   UNL     1      -0.145  11.310  18.566  0.00  0.00    +0.000 C 
ATOM      5  C   UNL     1      -1.107  11.996  19.530  0.00  0.00    +0.000 C 
ATOM      6  O   UNL     1      -0.970  11.238  20.756  0.00  0.00    +0.000 OA
ATOM      7  C   UNL     1      -0.753   9.866  20.396  0.00  0.00    +0.000 C 
ATOM      8  C   UNL     1       0.009   9.894  19.091  0.00  0.00    +0.000 C 
ENDROOT
BRANCH   1  12
ATOM      9  C   UNL     1       3.372   5.854  18.706  0.00  0.00    +0.000 A 
ATOM     10  C   UNL     1       3.457   6.856  17.736  0.00  0.00    +0.000 A 
ATOM     11  C   UNL     1       2.834   8.093  17.918  0.00  0.00    +0.000 A 
ATOM     12  C   UNL     1       2.045   8.327  19.044  0.00  0.00    +0.000 A 
ATOM     13  C   UNL     1       1.881   7.271  19.962  0.00  0.00    +0.000 A 
ATOM     14  C   UNL     1       2.524   6.035  19.806  0.00  0.00    +0.000 A 
BRANCH   9  16
ATOM     15  C   UNL     1       5.456   4.892  18.156  0.00  0.00    +0.000 C 
ATOM     16  O   UNL     1       4.113   4.700  18.590  0.00  0.00    +0.000 OA
ENDBRANCH   9  16
BRANCH  14  17
ATOM     17  O   UNL     1       2.223   5.176  20.831  0.00  0.00    +0.000 OA
ATOM     18  C   UNL     1       1.262   4.157  20.630  0.00  0.00    +0.000 C 
ENDBRANCH  14  17
ENDBRANCH   1  12
BRANCH   5  19
ATOM     19  C   UNL     1      -2.552  11.988  19.053  0.00  0.00    +0.000 A 
ATOM     20  C   UNL     1      -3.583  12.427  19.889  0.00  0.00    +0.000 A 
ATOM     21  C   UNL     1      -4.915  12.332  19.503  0.00  0.00    +0.000 A 
ATOM     22  C   UNL     1      -5.268  11.809  18.251  0.00  0.00    +0.000 A 
ATOM     23  C   UNL     1      -4.247  11.448  17.357  0.00  0.00    +0.000 A 
ATOM     24  C   UNL     1      -2.902  11.542  17.769  0.00  0.00    +0.000 A 
BRANCH  22  25
ATOM     25  O   UNL     1      -6.581  11.669  17.889  0.00  0.00    +0.000 OA
ATOM     26  C   UNL     1      -7.397  12.826  18.038  0.00  0.00    +0.000 C 
ENDBRANCH  22  25
BRANCH  23  27
ATOM     27  O   UNL     1      -4.388  10.922  16.097  0.00  0.00    +0.000 OA
ATOM     28  C   UNL     1      -3.218  10.802  15.299  0.00  0.00    +0.000 C 
ENDBRANCH  23  27
ENDBRANCH   5  19
TORSDOF 6
ENDMDL
MODEL 3
REMARK VINA RESULT:      -6.8      1.251      2.614
REMARK  Name = 
REMARK  10 active torsions:
REMARK  status: ('A' for Active; 'I' for Inactive)
REMARK    1  A    between atoms: C_1  and  O_2
REMARK    2  A    between atoms: O_2  and  C_3
REMARK    3  A    between atoms: C_6  and  C_7
REMARK    4  A    between atoms: C_11  and  C_12
REMARK    5  A    between atoms: C_15  and  O_16
REMARK    6  A    between atoms: O_16  and  C_17
REMARK    7  A    between atoms: C_18  and  O_19
REMARK    8  A    between atoms: O_19  and  C_20
REMARK    9  A    between atoms: C_26  and  O_27
REMARK   10  A    between atoms: O_27  and  C_28
REMARK                            x       y       z     vdW  Elec       q    Type
REMARK                         _______ _______ _______ _____ _____    ______ ____
ROOT
ATOM      1  C   UNL     1       2.237   8.153  19.069  0.00  0.00    +0.000 C 
ATOM      2  O   UNL     1       2.807   8.790  17.913  0.00  0.00    +0.000 OA
ATOM      3  C   UNL     1       2.182  10.076  17.847  0.00  0.00    +0.000 C 
ATOM      4  C   UNL     1       0.726   9.827  18.196  0.00  0.00    +0.000 C 
ATOM      5  C   UNL     1       0.104  10.900  19.083  0.00  0.00    +0.000 C 
ATOM      6  O   UNL     1       0.380  10.441  20.429  0.00  0.00    +0.000 OA
ATOM      7  C   UNL     1       0.306   9.008  20.424  0.00  0.00    +0.000 C 
ATOM      8  C   UNL     1       0.771   8.574  19.052  0.00  0.00    +0.000 C 
ENDROOT
BRANCH   1  12
ATOM      9  C   UNL     1       3.312   3.965  19.276  0.00  0.00    +0.000 A 
ATOM     10  C   UNL     1       3.497   4.699  18.101  0.00  0.00    +0.000 A 
ATOM     11  C   UNL     1       3.126   6.043  18.023  0.00  0.00    +0.000 A 
ATOM     12  C   UNL     1       2.490   6.665  19.096  0.00  0.00    +0.000 A 
ATOM     13  C   UNL     1       2.214   5.884  20.236  0.00  0.00    +0.000 A 
ATOM     14  C   UNL     1       2.606   4.542  20.339  0.00  0.00    +0.000 A 
BRANCH   9  16
ATOM     15  C   UNL     1       3.274   1.742  18.484  0.00  0.00    +0.000 C 
ATOM     16  O   UNL     1       3.819   2.692  19.395  0.00  0.00    +0.000 OA
ENDBRANCH   9  16
BRANCH  14  17
ATOM     17  O   UNL     1       2.240   3.999  21.544  0.00  0.00    +0.000 OA
ATOM     18  C   UNL     1       1.367   2.887  21.574  0.00  0.00    +0.000 C 
ENDBRANCH  14  17
ENDBRANCH   1  12
BRANCH   5  19
ATOM     19  C   UNL     1      -1.394  11.070  18.871  0.00  0.00    +0.000 A 
ATOM     20  C   UNL     1      -2.054  10.377  17.852  0.00  0.00    +0.000 A 
ATOM     21  C   UNL     1      -3.401  10.599  17.585  0.00  0.00    +0.000 A 
ATOM     22  C   UNL     1      -4.146  11.513  18.344  0.00  0.00    +0.000 A 
ATOM     23  C   UNL     1      -3.529  12.150  19.432  0.00  0.00    +0.000 A 
ATOM     24  C   UNL     1      -2.160  11.922  19.682  0.00  0.00    +0.000 A 
BRANCH  22  25
ATOM     25  O   UNL     1      -5.459  11.769  18.051  0.00  0.00    +0.000 OA
ATOM     26  C   UNL     1      -6.399  10.796  18.495  0.00  0.00    +0.000 C 
ENDBRANCH  22  25
BRANCH  23  27
ATOM     27  O   UNL     1      -4.085  13.069  20.286  0.00  0.00    +0.000 OA
ATOM     28  C   UNL     1      -3.641  13.066  21.636  0.00  0.00    +0.000 C 
ENDBRANCH  23  27
ENDBRANCH   5  19
TORSDOF 6
ENDMDL
MODEL 4
REMARK VINA RESULT:      -6.8      0.827      1.930
REMARK  Name = 
REMARK  10 active torsions:
REMARK  status: ('A' for Active; 'I' for Inactive)
REMARK    1  A    between atoms: C_1  and  O_2
REMARK    2  A    between atoms: O_2  and  C_3
REMARK    3  A    between atoms: C_6  and  C_7
REMARK    4  A    between atoms: C_11  and  C_12
REMARK    5  A    between atoms: C_15  and  O_16
REMARK    6  A    between atoms: O_16  and  C_17
REMARK    7  A    between atoms: C_18  and  O_19
REMARK    8  A    between atoms: O_19  and  C_20
REMARK    9  A    between atoms: C_26  and  O_27
REMARK   10  A    between atoms: O_27  and  C_28
REMARK                            x       y       z     vdW  Elec       q    Type
REMARK                         _______ _______ _______ _____ _____    ______ ____
ROOT
ATOM      1  C   UNL     1       2.064   8.407  19.234  0.00  0.00    +0.000 C 
ATOM      2  O   UNL     1       2.606   8.951  18.018  0.00  0.00    +0.000 OA
ATOM      3  C   UNL     1       1.997  10.238  17.878  0.00  0.00    +0.000 C 
ATOM      4  C   UNL     1       0.549  10.038  18.289  0.00  0.00    +0.000 C 
ATOM      5  C   UNL     1      -0.030  11.181  19.115  0.00  0.00    +0.000 C 
ATOM      6  O   UNL     1       0.282  10.816  20.481  0.00  0.00    +0.000 OA
ATOM      7  C   UNL     1       0.189   9.388  20.581  0.00  0.00    +0.000 C 
ATOM      8  C   UNL     1       0.605   8.849  19.231  0.00  0.00    +0.000 C 
ENDROOT
BRANCH   1  12
ATOM      9  C   UNL     1       2.385   4.097  19.458  0.00  0.00    +0.000 A 
ATOM     10  C   UNL     1       1.938   4.843  20.552  0.00  0.00    +0.000 A 
ATOM     11  C   UNL     1       1.858   6.236  20.492  0.00  0.00    +0.000 A 
ATOM     12  C   UNL     1       2.298   6.921  19.361  0.00  0.00    +0.000 A 
ATOM     13  C   UNL     1       2.847   6.163  18.307  0.00  0.00    +0.000 A 
ATOM     14  C   UNL     1       2.906   4.763  18.342  0.00  0.00    +0.000 A 
BRANCH   9  16
ATOM     15  C   UNL     1       1.122   2.179  18.914  0.00  0.00    +0.000 C 
ATOM     16  O   UNL     1       2.315   2.723  19.470  0.00  0.00    +0.000 OA
ENDBRANCH   9  16
BRANCH  14  17
ATOM     17  O   UNL     1       3.466   4.252  17.200  0.00  0.00    +0.000 OA
ATOM     18  C   UNL     1       4.867   4.066  17.129  0.00  0.00    +0.000 C 
ENDBRANCH  14  17
ENDBRANCH   1  12
BRANCH   5  19
ATOM     19  C   UNL     1      -1.531  11.359  18.937  0.00  0.00    +0.000 A 
ATOM     20  C   UNL     1      -2.191  10.805  17.836  0.00  0.00    +0.000 A 
ATOM     21  C   UNL     1      -3.541  11.044  17.609  0.00  0.00    +0.000 A 
ATOM     22  C   UNL     1      -4.292  11.834  18.491  0.00  0.00    +0.000 A 
ATOM     23  C   UNL     1      -3.675  12.324  19.653  0.00  0.00    +0.000 A 
ATOM     24  C   UNL     1      -2.302  12.081  19.862  0.00  0.00    +0.000 A 
BRANCH  22  25
ATOM     25  O   UNL     1      -5.610  12.111  18.243  0.00  0.00    +0.000 OA
ATOM     26  C   UNL     1      -6.512  11.015  18.365  0.00  0.00    +0.000 C 
ENDBRANCH  22  25
BRANCH  23  27
ATOM     27  O   UNL     1      -4.237  13.108  20.629  0.00  0.00    +0.000 OA
ATOM     28  C   UNL     1      -3.769  12.938  21.960  0.00  0.00    +0.000 C 
ENDBRANCH  23  27
ENDBRANCH   5  19
TORSDOF 6
ENDMDL
MODEL 5
REMARK VINA RESULT:      -6.8      2.106      2.838
REMARK  Name = 
REMARK  10 active torsions:
REMARK  status: ('A' for Active; 'I' for Inactive)
REMARK    1  A    between atoms: C_1  and  O_2
REMARK    2  A    between atoms: O_2  and  C_3
REMARK    3  A    between atoms: C_6  and  C_7
REMARK    4  A    between atoms: C_11  and  C_12
REMARK    5  A    between atoms: C_15  and  O_16
REMARK    6  A    between atoms: O_16  and  C_17
REMARK    7  A    between atoms: C_18  and  O_19
REMARK    8  A    between atoms: O_19  and  C_20
REMARK    9  A    between atoms: C_26  and  O_27
REMARK   10  A    between atoms: O_27  and  C_28
REMARK                            x       y       z     vdW  Elec       q    Type
REMARK                         _______ _______ _______ _____ _____    ______ ____
ROOT
ATOM      1  C   UNL     1       1.922   8.446  19.683  0.00  0.00    +0.000 C 
ATOM      2  O   UNL     1       1.624   8.829  18.329  0.00  0.00    +0.000 OA
ATOM      3  C   UNL     1       1.133  10.170  18.418  0.00  0.00    +0.000 C 
ATOM      4  C   UNL     1       0.243  10.186  19.647  0.00  0.00    +0.000 C 
ATOM      5  C   UNL     1       0.366  11.449  20.492  0.00  0.00    +0.000 C 
ATOM      6  O   UNL     1       1.436  11.145  21.419  0.00  0.00    +0.000 OA
ATOM      7  C   UNL     1       1.344   9.750  21.746  0.00  0.00    +0.000 C 
ATOM      8  C   UNL     1       0.803   9.069  20.510  0.00  0.00    +0.000 C 
ENDROOT
BRANCH   1  12
ATOM      9  C   UNL     1       2.182   4.129  19.843  0.00  0.00    +0.000 A 
ATOM     10  C   UNL     1       1.270   4.825  20.641  0.00  0.00    +0.000 A 
ATOM     11  C   UNL     1       1.202   6.220  20.611  0.00  0.00    +0.000 A 
ATOM     12  C   UNL     1       2.099   6.955  19.838  0.00  0.00    +0.000 A 
ATOM     13  C   UNL     1       3.083   6.245  19.122  0.00  0.00    +0.000 A 
ATOM     14  C   UNL     1       3.145   4.844  19.120  0.00  0.00    +0.000 A 
BRANCH   9  16
ATOM     15  C   UNL     1       1.228   2.241  18.796  0.00  0.00    +0.000 C 
ATOM     16  O   UNL     1       2.139   2.756  19.762  0.00  0.00    +0.000 OA
ENDBRANCH   9  16
BRANCH  14  17
ATOM     17  O   UNL     1       4.175   4.385  18.341  0.00  0.00    +0.000 OA
ATOM     18  C   UNL     1       3.948   4.105  16.973  0.00  0.00    +0.000 C 
ENDBRANCH  14  17
ENDBRANCH   1  12
BRANCH   5  19
ATOM     19  C   UNL     1      -0.909  11.804  21.243  0.00  0.00    +0.000 A 
ATOM     20  C   UNL     1      -1.028  11.546  22.613  0.00  0.00    +0.000 A 
ATOM     21  C   UNL     1      -2.221  11.773  23.288  0.00  0.00    +0.000 A 
ATOM     22  C   UNL     1      -3.342  12.287  22.621  0.00  0.00    +0.000 A 
ATOM     23  C   UNL     1      -3.220  12.641  21.268  0.00  0.00    +0.000 A 
ATOM     24  C   UNL     1      -2.006  12.395  20.595  0.00  0.00    +0.000 A 
BRANCH  22  25
ATOM     25  O   UNL     1      -4.533  12.465  23.274  0.00  0.00    +0.000 OA
ATOM     26  C   UNL     1      -4.486  12.368  24.694  0.00  0.00    +0.000 C 
ENDBRANCH  22  25
BRANCH  23  27
ATOM     27  O   UNL     1      -4.194  13.155  20.449  0.00  0.00    +0.000 OA
ATOM     28  C   UNL     1      -4.941  12.238  19.660  0.00  0.00    +0.000 C 
ENDBRANCH  23  27
ENDBRANCH   5  19
TORSDOF 6
ENDMDL
MODEL 6
REMARK VINA RESULT:      -6.7      3.113      9.568
REMARK  Name = 
REMARK  10 active torsions:
REMARK  status: ('A' for Active; 'I' for Inactive)
REMARK    1  A    between atoms: C_1  and  O_2
REMARK    2  A    between atoms: O_2  and  C_3
REMARK    3  A    between atoms: C_6  and  C_7
REMARK    4  A    between atoms: C_11  and  C_12
REMARK    5  A    between atoms: C_15  and  O_16
REMARK    6  A    between atoms: O_16  and  C_17
REMARK    7  A    between atoms: C_18  and  O_19
REMARK    8  A    between atoms: O_19  and  C_20
REMARK    9  A    between atoms: C_26  and  O_27
REMARK   10  A    between atoms: O_27  and  C_28
REMARK                            x       y       z     vdW  Elec       q    Type
REMARK                         _______ _______ _______ _____ _____    ______ ____
ROOT
ATOM      1  C   UNL     1       3.070   6.042  18.811  0.00  0.00    +0.000 C 
ATOM      2  O   UNL     1       2.125   4.976  18.612  0.00  0.00    +0.000 OA
ATOM      3  C   UNL     1       2.878   3.912  18.022  0.00  0.00    +0.000 C 
ATOM      4  C   UNL     1       3.803   4.586  17.024  0.00  0.00    +0.000 C 
ATOM      5  C   UNL     1       5.210   4.000  16.981  0.00  0.00    +0.000 C 
ATOM      6  O   UNL     1       5.933   4.758  17.981  0.00  0.00    +0.000 OA
ATOM      7  C   UNL     1       5.428   6.101  17.958  0.00  0.00    +0.000 C 
ATOM      8  C   UNL     1       3.968   5.990  17.580  0.00  0.00    +0.000 C 
ENDROOT
BRANCH   1  12
ATOM      9  C   UNL     1       0.840   9.703  19.410  0.00  0.00    +0.000 A 
ATOM     10  C   UNL     1       1.631   9.519  18.272  0.00  0.00    +0.000 A 
ATOM     11  C   UNL     1       2.372   8.350  18.088  0.00  0.00    +0.000 A 
ATOM     12  C   UNL     1       2.401   7.369  19.078  0.00  0.00    +0.000 A 
ATOM     13  C   UNL     1       1.685   7.614  20.267  0.00  0.00    +0.000 A 
ATOM     14  C   UNL     1       0.913   8.770  20.452  0.00  0.00    +0.000 A 
BRANCH   9  16
ATOM     15  C   UNL     1      -1.213  10.672  18.766  0.00  0.00    +0.000 C 
ATOM     16  O   UNL     1      -0.004  10.784  19.511  0.00  0.00    +0.000 OA
ENDBRANCH   9  16
BRANCH  14  17
ATOM     17  O   UNL     1       0.301   8.777  21.678  0.00  0.00    +0.000 OA
ATOM     18  C   UNL     1       0.876   9.507  22.745  0.00  0.00    +0.000 C 
ENDBRANCH  14  17
ENDBRANCH   1  12
BRANCH   5  19
ATOM     19  C   UNL     1       5.880   4.131  15.621  0.00  0.00    +0.000 A 
ATOM     20  C   UNL     1       7.107   4.789  15.488  0.00  0.00    +0.000 A 
ATOM     21  C   UNL     1       7.680   5.001  14.240  0.00  0.00    +0.000 A 
ATOM     22  C   UNL     1       7.054   4.545  13.072  0.00  0.00    +0.000 A 
ATOM     23  C   UNL     1       5.869   3.800  13.185  0.00  0.00    +0.000 A 
ATOM     24  C   UNL     1       5.296   3.603  14.458  0.00  0.00    +0.000 A 
BRANCH  22  25
ATOM     25  O   UNL     1       7.592   4.797  11.838  0.00  0.00    +0.000 OA
ATOM     26  C   UNL     1       7.928   6.154  11.569  0.00  0.00    +0.000 C 
ENDBRANCH  22  25
BRANCH  23  27
ATOM     27  O   UNL     1       5.114   3.272  12.168  0.00  0.00    +0.000 OA
ATOM     28  C   UNL     1       5.597   2.096  11.532  0.00  0.00    +0.000 C 
ENDBRANCH  23  27
ENDBRANCH   5  19
TORSDOF 6
ENDMDL
MODEL 7
REMARK VINA RESULT:      -6.7      1.623      2.988
REMARK  Name = 
REMARK  10 active torsions:
REMARK  status: ('A' for Active; 'I' for Inactive)
REMARK    1  A    between atoms: C_1  and  O_2
REMARK    2  A    between atoms: O_2  and  C_3
REMARK    3  A    between atoms: C_6  and  C_7
REMARK    4  A    between atoms: C_11  and  C_12
REMARK    5  A    between atoms: C_15  and  O_16
REMARK    6  A    between atoms: O_16  and  C_17
REMARK    7  A    between atoms: C_18  and  O_19
REMARK    8  A    between atoms: O_19  and  C_20
REMARK    9  A    between atoms: C_26  and  O_27
REMARK   10  A    between atoms: O_27  and  C_28
REMARK                            x       y       z     vdW  Elec       q    Type
REMARK                         _______ _______ _______ _____ _____    ______ ____
ROOT
ATOM      1  C   UNL     1       2.245   8.062  19.119  0.00  0.00    +0.000 C 
ATOM      2  O   UNL     1       2.656   8.628  17.862  0.00  0.00    +0.000 OA
ATOM      3  C   UNL     1       2.217   9.989  17.903  0.00  0.00    +0.000 C 
ATOM      4  C   UNL     1       0.840   9.943  18.540  0.00  0.00    +0.000 C 
ATOM      5  C   UNL     1       0.565  11.081  19.517  0.00  0.00    +0.000 C 
ATOM      6  O   UNL     1       1.037  10.571  20.787  0.00  0.00    +0.000 OA
ATOM      7  C   UNL     1       0.764   9.163  20.819  0.00  0.00    +0.000 C 
ATOM      8  C   UNL     1       0.879   8.685  19.389  0.00  0.00    +0.000 C 
ENDROOT
BRANCH   1  12
ATOM      9  C   UNL     1       2.742   3.762  19.169  0.00  0.00    +0.000 A 
ATOM     10  C   UNL     1       2.779   4.478  17.969  0.00  0.00    +0.000 A 
ATOM     11  C   UNL     1       2.593   5.862  17.946  0.00  0.00    +0.000 A 
ATOM     12  C   UNL     1       2.287   6.553  19.118  0.00  0.00    +0.000 A 
ATOM     13  C   UNL     1       2.147   5.804  20.304  0.00  0.00    +0.000 A 
ATOM     14  C   UNL     1       2.360   4.419  20.345  0.00  0.00    +0.000 A 
BRANCH   9  16
ATOM     15  C   UNL     1       3.383   1.856  17.933  0.00  0.00    +0.000 C 
ATOM     16  O   UNL     1       3.078   2.429  19.201  0.00  0.00    +0.000 OA
ENDBRANCH   9  16
BRANCH  14  17
ATOM     17  O   UNL     1       2.179   3.918  21.608  0.00  0.00    +0.000 OA
ATOM     18  C   UNL     1       1.398   2.753  21.795  0.00  0.00    +0.000 C 
ENDBRANCH  14  17
ENDBRANCH   1  12
BRANCH   5  19
ATOM     19  C   UNL     1      -0.906  11.462  19.606  0.00  0.00    +0.000 A 
ATOM     20  C   UNL     1      -1.781  11.189  18.550  0.00  0.00    +0.000 A 
ATOM     21  C   UNL     1      -3.102  11.620  18.578  0.00  0.00    +0.000 A 
ATOM     22  C   UNL     1      -3.606  12.330  19.677  0.00  0.00    +0.000 A 
ATOM     23  C   UNL     1      -2.774  12.536  20.789  0.00  0.00    +0.000 A 
ATOM     24  C   UNL     1      -1.434  12.100  20.740  0.00  0.00    +0.000 A 
BRANCH  22  25
ATOM     25  O   UNL     1      -4.893  12.799  19.685  0.00  0.00    +0.000 OA
ATOM     26  C   UNL     1      -5.863  11.949  20.288  0.00  0.00    +0.000 C 
ENDBRANCH  22  25
BRANCH  23  27
ATOM     27  O   UNL     1      -3.081  13.201  21.950  0.00  0.00    +0.000 OA
ATOM     28  C   UNL     1      -2.980  12.478  23.169  0.00  0.00    +0.000 C 
ENDBRANCH  23  27
ENDBRANCH   5  19
TORSDOF 6
ENDMDL
MODEL 8
REMARK VINA RESULT:      -6.7      1.196      8.259
REMARK  Name = 
REMARK  10 active torsions:
REMARK  status: ('A' for Active; 'I' for Inactive)
REMARK    1  A    between atoms: C_1  and  O_2
REMARK    2  A    between atoms: O_2  and  C_3
REMARK    3  A    between atoms: C_6  and  C_7
REMARK    4  A    between atoms: C_11  and  C_12
REMARK    5  A    between atoms: C_15  and  O_16
REMARK    6  A    between atoms: O_16  and  C_17
REMARK    7  A    between atoms: C_18  and  O_19
REMARK    8  A    between atoms: O_19  and  C_20
REMARK    9  A    between atoms: C_26  and  O_27
REMARK   10  A    between atoms: O_27  and  C_28
REMARK                            x       y       z     vdW  Elec       q    Type
REMARK                         _______ _______ _______ _____ _____    ______ ____
ROOT
ATOM      1  C   UNL     1      -1.239  11.230  19.250  0.00  0.00    +0.000 C 
ATOM      2  O   UNL     1      -1.196  11.500  20.662  0.00  0.00    +0.000 OA
ATOM      3  C   UNL     1       0.047  10.952  21.111  0.00  0.00    +0.000 C 
ATOM      4  C   UNL     1       0.190   9.634  20.373  0.00  0.00    +0.000 C 
ATOM      5  C   UNL     1       1.606   9.336  19.893  0.00  0.00    +0.000 C 
ATOM      6  O   UNL     1       1.663   9.941  18.579  0.00  0.00    +0.000 OA
ATOM      7  C   UNL     1       0.370   9.789  17.974  0.00  0.00    +0.000 C 
ATOM      8  C   UNL     1      -0.627   9.840  19.110  0.00  0.00    +0.000 C 
ENDROOT
BRANCH   1  12
ATOM      9  C   UNL     1      -5.100  12.064  17.480  0.00  0.00    +0.000 A 
ATOM     10  C   UNL     1      -4.862  12.304  18.836  0.00  0.00    +0.000 A 
ATOM     11  C   UNL     1      -3.626  12.011  19.416  0.00  0.00    +0.000 A 
ATOM     12  C   UNL     1      -2.622  11.398  18.669  0.00  0.00    +0.000 A 
ATOM     13  C   UNL     1      -2.912  11.064  17.331  0.00  0.00    +0.000 A 
ATOM     14  C   UNL     1      -4.138  11.378  16.728  0.00  0.00    +0.000 A 
BRANCH   9  16
ATOM     15  C   UNL     1      -6.900  13.590  17.535  0.00  0.00    +0.000 C 
ATOM     16  O   UNL     1      -6.261  12.495  16.884  0.00  0.00    +0.000 OA
ENDBRANCH   9  16
BRANCH  14  17
ATOM     17  O   UNL     1      -4.178  10.966  15.421  0.00  0.00    +0.000 OA
ATOM     18  C   UNL     1      -3.145  10.145  14.913  0.00  0.00    +0.000 C 
ENDBRANCH  14  17
ENDBRANCH   1  12
BRANCH   5  19
ATOM     19  C   UNL     1       1.920   7.849  19.813  0.00  0.00    +0.000 A 
ATOM     20  C   UNL     1       1.361   6.950  20.727  0.00  0.00    +0.000 A 
ATOM     21  C   UNL     1       1.717   5.607  20.727  0.00  0.00    +0.000 A 
ATOM     22  C   UNL     1       2.637   5.104  19.795  0.00  0.00    +0.000 A 
ATOM     23  C   UNL     1       3.141   5.967  18.809  0.00  0.00    +0.000 A 
ATOM     24  C   UNL     1       2.777   7.329  18.830  0.00  0.00    +0.000 A 
BRANCH  22  25
ATOM     25  O   UNL     1       3.026   3.791  19.825  0.00  0.00    +0.000 OA
ATOM     26  C   UNL     1       1.977   2.829  19.802  0.00  0.00    +0.000 C 
ENDBRANCH  22  25
BRANCH  23  27
ATOM     27  O   UNL     1       4.042   5.667  17.819  0.00  0.00    +0.000 OA
ATOM     28  C   UNL     1       4.490   6.732  16.991  0.00  0.00    +0.000 C 
ENDBRANCH  23  27
ENDBRANCH   5  19
TORSDOF 6
ENDMDL
MODEL 9
REMARK VINA RESULT:      -6.6      2.048      3.091
REMARK  Name = 
REMARK  10 active torsions:
REMARK  status: ('A' for Active; 'I' for Inactive)
REMARK    1  A    between atoms: C_1  and  O_2
REMARK    2  A    between atoms: O_2  and  C_3
REMARK    3  A    between atoms: C_6  and  C_7
REMARK    4  A    between atoms: C_11  and  C_12
REMARK    5  A    between atoms: C_15  and  O_16
REMARK    6  A    between atoms: O_16  and  C_17
REMARK    7  A    between atoms: C_18  and  O_19
REMARK    8  A    between atoms: O_19  and  C_20
REMARK    9  A    between atoms: C_26  and  O_27
REMARK   10  A    between atoms: O_27  and  C_28
REMARK                            x       y       z     vdW  Elec       q    Type
REMARK                         _______ _______ _______ _____ _____    ______ ____
ROOT
ATOM      1  C   UNL     1       2.059   7.990  19.537  0.00  0.00    +0.000 C 
ATOM      2  O   UNL     1       2.285   8.763  18.345  0.00  0.00    +0.000 OA
ATOM      3  C   UNL     1       2.039  10.120  18.726  0.00  0.00    +0.000 C 
ATOM      4  C   UNL     1       0.818  10.064  19.625  0.00  0.00    +0.000 C 
ATOM      5  C   UNL     1       0.885  10.998  20.829  0.00  0.00    +0.000 C 
ATOM      6  O   UNL     1       1.527  10.201  21.853  0.00  0.00    +0.000 OA
ATOM      7  C   UNL     1       1.089   8.845  21.687  0.00  0.00    +0.000 C 
ATOM      8  C   UNL     1       0.862   8.661  20.203  0.00  0.00    +0.000 C 
ENDROOT
BRANCH   1  12
ATOM      9  C   UNL     1       1.995   3.724  18.810  0.00  0.00    +0.000 A 
ATOM     10  C   UNL     1       2.255   4.627  17.776  0.00  0.00    +0.000 A 
ATOM     11  C   UNL     1       2.250   6.005  18.001  0.00  0.00    +0.000 A 
ATOM     12  C   UNL     1       1.908   6.515  19.252  0.00  0.00    +0.000 A 
ATOM     13  C   UNL     1       1.544   5.597  20.258  0.00  0.00    +0.000 A 
ATOM     14  C   UNL     1       1.573   4.211  20.053  0.00  0.00    +0.000 A 
BRANCH   9  16
ATOM     15  C   UNL     1       3.502   1.941  18.458  0.00  0.00    +0.000 C 
ATOM     16  O   UNL     1       2.153   2.371  18.617  0.00  0.00    +0.000 OA
ENDBRANCH   9  16
BRANCH  14  17
ATOM     17  O   UNL     1       1.192   3.526  21.178  0.00  0.00    +0.000 OA
ATOM     18  C   UNL     1       2.158   2.812  21.925  0.00  0.00    +0.000 C 
ENDBRANCH  14  17
ENDBRANCH   1  12
BRANCH   5  19
ATOM     19  C   UNL     1      -0.480  11.479  21.301  0.00  0.00    +0.000 A 
ATOM     20  C   UNL     1      -0.791  11.521  22.664  0.00  0.00    +0.000 A 
ATOM     21  C   UNL     1      -2.065  11.863  23.102  0.00  0.00    +0.000 A 
ATOM     22  C   UNL     1      -3.077  12.195  22.191  0.00  0.00    +0.000 A 
ATOM     23  C   UNL     1      -2.764  12.251  20.823  0.00  0.00    +0.000 A 
ATOM     24  C   UNL     1      -1.469  11.892  20.394  0.00  0.00    +0.000 A 
BRANCH  22  25
ATOM     25  O   UNL     1      -4.345  12.484  22.618  0.00  0.00    +0.000 OA
ATOM     26  C   UNL     1      -4.632  13.861  22.837  0.00  0.00    +0.000 C 
ENDBRANCH  22  25
BRANCH  23  27
ATOM     27  O   UNL     1      -3.609  12.553  19.785  0.00  0.00    +0.000 OA
ATOM     28  C   UNL     1      -3.546  11.735  18.625  0.00  0.00    +0.000 C 
ENDBRANCH  23  27
ENDBRANCH   5  19
TORSDOF 6
ENDMDL
