MODEL 1
REMARK VINA RESULT:      -7.9      0.000      0.000
REMARK  Name = 
REMARK  7 active torsions:
REMARK  status: ('A' for Active; 'I' for Inactive)
REMARK    1  A    between atoms: C_1  and  C_2
REMARK    2  A    between atoms: C_5  and  S_6
REMARK    3  A    between atoms: S_6  and  C_9
REMARK    4  A    between atoms: C_9  and  C_10
REMARK    5  A    between atoms: C_10  and  C_11
REMARK    6  A    between atoms: N_16  and  C_17
REMARK    7  A    between atoms: C_22  and  O_23
REMARK                            x       y       z     vdW  Elec       q    Type
REMARK                         _______ _______ _______ _____ _____    ______ ____
ROOT
ATOM      1  C   UNL     1       2.496   7.146  19.020  0.00  0.00    +0.000 C 
ATOM      2  O   UNL     1       2.930   7.269  17.872  0.00  0.00    +0.000 OA
ATOM      3  N   UNL     1       1.850   8.177  19.674  0.00  0.00    +0.000 N 
ATOM      4  C   UNL     1       1.584   9.441  18.970  0.00  0.00    +0.000 C 
ATOM      5  C   UNL     1       0.110   9.859  19.138  0.00  0.00    +0.000 C 
ATOM      6  N   UNL     1      -0.232   9.910  20.573  0.00  0.00    +0.000 N 
ATOM      7  C   UNL     1       0.018   8.664  21.311  0.00  0.00    +0.000 C 
ATOM      8  C   UNL     1       1.475   8.213  21.096  0.00  0.00    +0.000 C 
ENDROOT
BRANCH   6   9
ATOM      9  C   UNL     1      -0.872  10.994  21.150  0.00  0.00    +0.000 A 
ATOM     10  C   UNL     1      -1.587  11.895  20.339  0.00  0.00    +0.000 A 
ATOM     11  C   UNL     1      -2.217  13.031  20.853  0.00  0.00    +0.000 A 
ATOM     12  C   UNL     1      -2.148  13.309  22.210  0.00  0.00    +0.000 A 
ATOM     13  C   UNL     1      -1.449  12.449  23.051  0.00  0.00    +0.000 A 
ATOM     14  C   UNL     1      -0.824  11.308  22.527  0.00  0.00    +0.000 A 
BRANCH  14  15
ATOM     15  O   UNL     1      -0.186  10.472  23.412  0.00  0.00    +0.000 OA
ATOM     16  H   UNL     1      -0.175   9.575  23.043  0.00  0.00    +0.000 HD
ENDBRANCH  14  15
ENDBRANCH   6   9
BRANCH   1  17
ATOM     17  C   UNL     1       2.572   5.804  19.717  0.00  0.00    +0.000 C 
BRANCH  17  18
ATOM     18  C   UNL     1       3.033   4.702  18.772  0.00  0.00    +0.000 C 
BRANCH  18  19
ATOM     19  S   UNL     1       4.757   4.359  19.054  0.00  0.00    +0.000 S 
ATOM     20  O   UNL     1       4.870   2.999  19.550  0.00  0.00    +0.000 OA
ATOM     21  O   UNL     1       5.314   5.461  19.813  0.00  0.00    +0.000 OA
BRANCH  19  26
ATOM     22  C   UNL     1       7.215   4.739  13.511  0.00  0.00    +0.000 C 
ATOM     23  C   UNL     1       6.611   4.614  14.878  0.00  0.00    +0.000 A 
ATOM     24  C   UNL     1       5.245   4.341  15.036  0.00  0.00    +0.000 A 
ATOM     25  C   UNL     1       4.685   4.237  16.311  0.00  0.00    +0.000 A 
ATOM     26  C   UNL     1       5.496   4.400  17.437  0.00  0.00    +0.000 A 
ATOM     27  C   UNL     1       6.854   4.692  17.297  0.00  0.00    +0.000 A 
ATOM     28  C   UNL     1       7.408   4.793  16.019  0.00  0.00    +0.000 A 
ENDBRANCH  19  26
ENDBRANCH  18  19
ENDBRANCH  17  18
ENDBRANCH   1  17
TORSDOF 6
ENDMDL
MODEL 2
REMARK VINA RESULT:      -7.9      0.645      1.204
REMARK  Name = 
REMARK  7 active torsions:
REMARK  status: ('A' for Active; 'I' for Inactive)
REMARK    1  A    between atoms: C_1  and  C_2
REMARK    2  A    between atoms: C_5  and  S_6
REMARK    3  A    between atoms: S_6  and  C_9
REMARK    4  A    between atoms: C_9  and  C_10
REMARK    5  A    between atoms: C_10  and  C_11
REMARK    6  A    between atoms: N_16  and  C_17
REMARK    7  A    between atoms: C_22  and  O_23
REMARK                            x       y       z     vdW  Elec       q    Type
REMARK                         _______ _______ _______ _____ _____    ______ ____
ROOT
ATOM      1  C   UNL     1       2.449   7.093  18.936  0.00  0.00    +0.000 C 
ATOM      2  O   UNL     1       2.918   7.242  17.806  0.00  0.00    +0.000 OA
ATOM      3  N   UNL     1       1.820   8.122  19.612  0.00  0.00    +0.000 N 
ATOM      4  C   UNL     1       1.619   9.420  18.949  0.00  0.00    +0.000 C 
ATOM      5  C   UNL     1       0.157   9.884  19.093  0.00  0.00    +0.000 C 
ATOM      6  N   UNL     1      -0.224   9.894  20.519  0.00  0.00    +0.000 N 
ATOM      7  C   UNL     1      -0.038   8.614  21.216  0.00  0.00    +0.000 C 
ATOM      8  C   UNL     1       1.407   8.119  21.023  0.00  0.00    +0.000 C 
ENDROOT
BRANCH   6   9
ATOM      9  C   UNL     1      -0.841  10.979  21.119  0.00  0.00    +0.000 A 
ATOM     10  C   UNL     1      -1.597  11.872  20.338  0.00  0.00    +0.000 A 
ATOM     11  C   UNL     1      -2.208  13.008  20.874  0.00  0.00    +0.000 A 
ATOM     12  C   UNL     1      -2.077  13.294  22.225  0.00  0.00    +0.000 A 
ATOM     13  C   UNL     1      -1.335  12.442  23.037  0.00  0.00    +0.000 A 
ATOM     14  C   UNL     1      -0.731  11.301  22.491  0.00  0.00    +0.000 A 
BRANCH  14  15
ATOM     15  O   UNL     1      -0.048  10.473  23.350  0.00  0.00    +0.000 OA
ATOM     16  H   UNL     1       0.358  11.013  24.047  0.00  0.00    +0.000 HD
ENDBRANCH  14  15
ENDBRANCH   6   9
BRANCH   1  17
ATOM     17  C   UNL     1       2.458   5.724  19.584  0.00  0.00    +0.000 C 
BRANCH  17  18
ATOM     18  C   UNL     1       3.873   5.253  19.888  0.00  0.00    +0.000 C 
BRANCH  18  19
ATOM     19  S   UNL     1       4.181   3.712  19.051  0.00  0.00    +0.000 S 
ATOM     20  O   UNL     1       2.904   3.171  18.620  0.00  0.00    +0.000 OA
ATOM     21  O   UNL     1       5.065   2.920  19.882  0.00  0.00    +0.000 OA
BRANCH  19  26
ATOM     22  C   UNL     1       7.369   5.022  14.048  0.00  0.00    +0.000 C 
ATOM     23  C   UNL     1       6.577   4.729  15.288  0.00  0.00    +0.000 A 
ATOM     24  C   UNL     1       7.176   4.792  16.553  0.00  0.00    +0.000 A 
ATOM     25  C   UNL     1       6.438   4.507  17.703  0.00  0.00    +0.000 A 
ATOM     26  C   UNL     1       5.088   4.164  17.590  0.00  0.00    +0.000 A 
ATOM     27  C   UNL     1       4.481   4.077  16.335  0.00  0.00    +0.000 A 
ATOM     28  C   UNL     1       5.225   4.366  15.189  0.00  0.00    +0.000 A 
ENDBRANCH  19  26
ENDBRANCH  18  19
ENDBRANCH  17  18
ENDBRANCH   1  17
TORSDOF 6
ENDMDL
MODEL 3
REMARK VINA RESULT:      -7.8      1.575      1.931
REMARK  Name = 
REMARK  7 active torsions:
REMARK  status: ('A' for Active; 'I' for Inactive)
REMARK    1  A    between atoms: C_1  and  C_2
REMARK    2  A    between atoms: C_5  and  S_6
REMARK    3  A    between atoms: S_6  and  C_9
REMARK    4  A    between atoms: C_9  and  C_10
REMARK    5  A    between atoms: C_10  and  C_11
REMARK    6  A    between atoms: N_16  and  C_17
REMARK    7  A    between atoms: C_22  and  O_23
REMARK                            x       y       z     vdW  Elec       q    Type
REMARK                         _______ _______ _______ _____ _____    ______ ____
ROOT
ATOM      1  C   UNL     1       2.226   6.795  19.458  0.00  0.00    +0.000 C 
ATOM      2  O   UNL     1       2.767   6.604  18.367  0.00  0.00    +0.000 OA
ATOM      3  N   UNL     1       1.744   8.034  19.832  0.00  0.00    +0.000 N 
ATOM      4  C   UNL     1       1.791   9.156  18.882  0.00  0.00    +0.000 C 
ATOM      5  C   UNL     1       0.420   9.854  18.796  0.00  0.00    +0.000 C 
ATOM      6  N   UNL     1      -0.021  10.254  20.146  0.00  0.00    +0.000 N 
ATOM      7  C   UNL     1      -0.082   9.160  21.124  0.00  0.00    +0.000 C 
ATOM      8  C   UNL     1       1.270   8.423  21.169  0.00  0.00    +0.000 C 
ENDROOT
BRANCH   6   9
ATOM      9  C   UNL     1      -0.480  11.528  20.435  0.00  0.00    +0.000 A 
ATOM     10  C   UNL     1      -1.822  11.862  20.177  0.00  0.00    +0.000 A 
ATOM     11  C   UNL     1      -2.335  13.142  20.405  0.00  0.00    +0.000 A 
ATOM     12  C   UNL     1      -1.512  14.142  20.899  0.00  0.00    +0.000 A 
ATOM     13  C   UNL     1      -0.176  13.861  21.166  0.00  0.00    +0.000 A 
ATOM     14  C   UNL     1       0.329  12.572  20.940  0.00  0.00    +0.000 A 
BRANCH  14  15
ATOM     15  O   UNL     1       1.645  12.341  21.264  0.00  0.00    +0.000 OA
ATOM     16  H   UNL     1       2.067  11.861  20.534  0.00  0.00    +0.000 HD
ENDBRANCH  14  15
ENDBRANCH   6   9
BRANCH   1  17
ATOM     17  C   UNL     1       1.979   5.629  20.394  0.00  0.00    +0.000 C 
BRANCH  17  18
ATOM     18  C   UNL     1       1.370   4.439  19.664  0.00  0.00    +0.000 C 
BRANCH  18  19
ATOM     19  S   UNL     1       2.501   3.066  19.716  0.00  0.00    +0.000 S 
ATOM     20  O   UNL     1       1.840   1.915  19.127  0.00  0.00    +0.000 OA
ATOM     21  O   UNL     1       3.046   2.986  21.057  0.00  0.00    +0.000 OA
BRANCH  19  26
ATOM     22  C   UNL     1       6.933   4.884  15.980  0.00  0.00    +0.000 C 
ATOM     23  C   UNL     1       5.848   4.406  16.899  0.00  0.00    +0.000 A 
ATOM     24  C   UNL     1       4.646   3.900  16.387  0.00  0.00    +0.000 A 
ATOM     25  C   UNL     1       3.635   3.468  17.247  0.00  0.00    +0.000 A 
ATOM     26  C   UNL     1       3.829   3.532  18.629  0.00  0.00    +0.000 A 
ATOM     27  C   UNL     1       5.013   4.051  19.156  0.00  0.00    +0.000 A 
ATOM     28  C   UNL     1       6.021   4.480  18.290  0.00  0.00    +0.000 A 
ENDBRANCH  19  26
ENDBRANCH  18  19
ENDBRANCH  17  18
ENDBRANCH   1  17
TORSDOF 6
ENDMDL
MODEL 4
REMARK VINA RESULT:      -7.8      1.707      2.687
REMARK  Name = 
REMARK  7 active torsions:
REMARK  status: ('A' for Active; 'I' for Inactive)
REMARK    1  A    between atoms: C_1  and  C_2
REMARK    2  A    between atoms: C_5  and  S_6
REMARK    3  A    between atoms: S_6  and  C_9
REMARK    4  A    between atoms: C_9  and  C_10
REMARK    5  A    between atoms: C_10  and  C_11
REMARK    6  A    between atoms: N_16  and  C_17
REMARK    7  A    between atoms: C_22  and  O_23
REMARK                            x       y       z     vdW  Elec       q    Type
REMARK                         _______ _______ _______ _____ _____    ______ ____
ROOT
ATOM      1  C   UNL     1       3.520   5.815  19.299  0.00  0.00    +0.000 C 
ATOM      2  O   UNL     1       3.525   4.977  20.202  0.00  0.00    +0.000 OA
ATOM      3  N   UNL     1       2.549   6.794  19.211  0.00  0.00    +0.000 N 
ATOM      4  C   UNL     1       1.528   6.911  20.263  0.00  0.00    +0.000 C 
ATOM      5  C   UNL     1       1.415   8.368  20.753  0.00  0.00    +0.000 C 
ATOM      6  N   UNL     1       1.170   9.261  19.604  0.00  0.00    +0.000 N 
ATOM      7  C   UNL     1       2.170   9.174  18.531  0.00  0.00    +0.000 C 
ATOM      8  C   UNL     1       2.328   7.710  18.082  0.00  0.00    +0.000 C 
ENDROOT
BRANCH   6   9
ATOM      9  C   UNL     1       0.162  10.210  19.597  0.00  0.00    +0.000 A 
ATOM     10  C   UNL     1      -0.863  10.133  18.636  0.00  0.00    +0.000 A 
ATOM     11  C   UNL     1      -1.884  11.083  18.548  0.00  0.00    +0.000 A 
ATOM     12  C   UNL     1      -1.911  12.157  19.426  0.00  0.00    +0.000 A 
ATOM     13  C   UNL     1      -0.916  12.278  20.391  0.00  0.00    +0.000 A 
ATOM     14  C   UNL     1       0.102  11.316  20.475  0.00  0.00    +0.000 A 
BRANCH  14  15
ATOM     15  O   UNL     1       1.032  11.465  21.477  0.00  0.00    +0.000 OA
ATOM     16  H   UNL     1       1.208  10.596  21.870  0.00  0.00    +0.000 HD
ENDBRANCH  14  15
ENDBRANCH   6   9
BRANCH   1  17
ATOM     17  C   UNL     1       4.659   5.858  18.301  0.00  0.00    +0.000 C 
BRANCH  17  18
ATOM     18  C   UNL     1       5.799   4.932  18.705  0.00  0.00    +0.000 C 
BRANCH  18  19
ATOM     19  S   UNL     1       7.216   5.246  17.675  0.00  0.00    +0.000 S 
ATOM     20  O   UNL     1       8.284   4.357  18.095  0.00  0.00    +0.000 OA
ATOM     21  O   UNL     1       7.432   6.679  17.636  0.00  0.00    +0.000 OA
BRANCH  19  26
ATOM     22  C   UNL     1       5.667   3.340  12.117  0.00  0.00    +0.000 C 
ATOM     23  C   UNL     1       6.033   3.836  13.485  0.00  0.00    +0.000 A 
ATOM     24  C   UNL     1       7.091   4.739  13.661  0.00  0.00    +0.000 A 
ATOM     25  C   UNL     1       7.435   5.188  14.937  0.00  0.00    +0.000 A 
ATOM     26  C   UNL     1       6.711   4.741  16.045  0.00  0.00    +0.000 A 
ATOM     27  C   UNL     1       5.667   3.827  15.890  0.00  0.00    +0.000 A 
ATOM     28  C   UNL     1       5.328   3.382  14.610  0.00  0.00    +0.000 A 
ENDBRANCH  19  26
ENDBRANCH  18  19
ENDBRANCH  17  18
ENDBRANCH   1  17
TORSDOF 6
ENDMDL
MODEL 5
REMARK VINA RESULT:      -7.8      1.230      1.598
REMARK  Name = 
REMARK  7 active torsions:
REMARK  status: ('A' for Active; 'I' for Inactive)
REMARK    1  A    between atoms: C_1  and  C_2
REMARK    2  A    between atoms: C_5  and  S_6
REMARK    3  A    between atoms: S_6  and  C_9
REMARK    4  A    between atoms: C_9  and  C_10
REMARK    5  A    between atoms: C_10  and  C_11
REMARK    6  A    between atoms: N_16  and  C_17
REMARK    7  A    between atoms: C_22  and  O_23
REMARK                            x       y       z     vdW  Elec       q    Type
REMARK                         _______ _______ _______ _____ _____    ______ ____
ROOT
ATOM      1  C   UNL     1       2.595   7.077  18.596  0.00  0.00    +0.000 C 
ATOM      2  O   UNL     1       3.073   7.029  17.461  0.00  0.00    +0.000 OA
ATOM      3  N   UNL     1       2.025   8.228  19.105  0.00  0.00    +0.000 N 
ATOM      4  C   UNL     1       1.898   9.422  18.255  0.00  0.00    +0.000 C 
ATOM      5  C   UNL     1       0.464   9.983  18.315  0.00  0.00    +0.000 C 
ATOM      6  N   UNL     1       0.084  10.226  19.720  0.00  0.00    +0.000 N 
ATOM      7  C   UNL     1       0.196   9.057  20.601  0.00  0.00    +0.000 C 
ATOM      8  C   UNL     1       1.612   8.459  20.498  0.00  0.00    +0.000 C 
ENDROOT
BRANCH   6   9
ATOM      9  C   UNL     1      -0.473  11.421  20.146  0.00  0.00    +0.000 A 
ATOM     10  C   UNL     1      -1.810  11.720  19.829  0.00  0.00    +0.000 A 
ATOM     11  C   UNL     1      -2.417  12.926  20.191  0.00  0.00    +0.000 A 
ATOM     12  C   UNL     1      -1.694  13.885  20.886  0.00  0.00    +0.000 A 
ATOM     13  C   UNL     1      -0.367  13.636  21.219  0.00  0.00    +0.000 A 
ATOM     14  C   UNL     1       0.231  12.420  20.856  0.00  0.00    +0.000 A 
BRANCH  14  15
ATOM     15  O   UNL     1       1.532  12.212  21.250  0.00  0.00    +0.000 OA
ATOM     16  H   UNL     1       1.805  11.325  20.969  0.00  0.00    +0.000 HD
ENDBRANCH  14  15
ENDBRANCH   6   9
BRANCH   1  17
ATOM     17  C   UNL     1       2.527   5.821  19.440  0.00  0.00    +0.000 C 
BRANCH  17  18
ATOM     18  C   UNL     1       3.914   5.303  19.795  0.00  0.00    +0.000 C 
BRANCH  18  19
ATOM     19  S   UNL     1       4.199   3.751  18.970  0.00  0.00    +0.000 S 
ATOM     20  O   UNL     1       2.914   3.227  18.541  0.00  0.00    +0.000 OA
ATOM     21  O   UNL     1       5.069   2.952  19.810  0.00  0.00    +0.000 OA
BRANCH  19  26
ATOM     22  C   UNL     1       7.419   4.974  13.966  0.00  0.00    +0.000 C 
ATOM     23  C   UNL     1       6.620   4.702  15.206  0.00  0.00    +0.000 A 
ATOM     24  C   UNL     1       7.214   4.777  16.473  0.00  0.00    +0.000 A 
ATOM     25  C   UNL     1       6.468   4.511  17.623  0.00  0.00    +0.000 A 
ATOM     26  C   UNL     1       5.116   4.178  17.508  0.00  0.00    +0.000 A 
ATOM     27  C   UNL     1       4.514   4.080  16.252  0.00  0.00    +0.000 A 
ATOM     28  C   UNL     1       5.265   4.349  15.106  0.00  0.00    +0.000 A 
ENDBRANCH  19  26
ENDBRANCH  18  19
ENDBRANCH  17  18
ENDBRANCH   1  17
TORSDOF 6
ENDMDL
MODEL 6
REMARK VINA RESULT:      -7.7      1.035      1.035
REMARK  Name = 
REMARK  7 active torsions:
REMARK  status: ('A' for Active; 'I' for Inactive)
REMARK    1  A    between atoms: C_1  and  C_2
REMARK    2  A    between atoms: C_5  and  S_6
REMARK    3  A    between atoms: S_6  and  C_9
REMARK    4  A    between atoms: C_9  and  C_10
REMARK    5  A    between atoms: C_10  and  C_11
REMARK    6  A    between atoms: N_16  and  C_17
REMARK    7  A    between atoms: C_22  and  O_23
REMARK                            x       y       z     vdW  Elec       q    Type
REMARK                         _______ _______ _______ _____ _____    ______ ____
ROOT
ATOM      1  C   UNL     1       2.613   7.160  18.681  0.00  0.00    +0.000 C 
ATOM      2  O   UNL     1       3.055   7.092  17.533  0.00  0.00    +0.000 OA
ATOM      3  N   UNL     1       2.012   8.304  19.170  0.00  0.00    +0.000 N 
ATOM      4  C   UNL     1       1.806   9.460  18.285  0.00  0.00    +0.000 C 
ATOM      5  C   UNL     1       0.353   9.964  18.374  0.00  0.00    +0.000 C 
ATOM      6  N   UNL     1       0.008  10.241  19.782  0.00  0.00    +0.000 N 
ATOM      7  C   UNL     1       0.199   9.109  20.698  0.00  0.00    +0.000 C 
ATOM      8  C   UNL     1       1.634   8.567  20.567  0.00  0.00    +0.000 C 
ENDROOT
BRANCH   6   9
ATOM      9  C   UNL     1      -0.584  11.426  20.186  0.00  0.00    +0.000 A 
ATOM     10  C   UNL     1      -1.930  11.679  19.864  0.00  0.00    +0.000 A 
ATOM     11  C   UNL     1      -2.572  12.873  20.204  0.00  0.00    +0.000 A 
ATOM     12  C   UNL     1      -1.880  13.866  20.880  0.00  0.00    +0.000 A 
ATOM     13  C   UNL     1      -0.545  13.663  21.216  0.00  0.00    +0.000 A 
ATOM     14  C   UNL     1       0.090  12.459  20.876  0.00  0.00    +0.000 A 
BRANCH  14  15
ATOM     15  O   UNL     1       1.396  12.298  21.274  0.00  0.00    +0.000 OA
ATOM     16  H   UNL     1       1.671  13.086  21.769  0.00  0.00    +0.000 HD
ENDBRANCH  14  15
ENDBRANCH   6   9
BRANCH   1  17
ATOM     17  C   UNL     1       2.625   5.933  19.570  0.00  0.00    +0.000 C 
BRANCH  17  18
ATOM     18  C   UNL     1       3.035   4.684  18.802  0.00  0.00    +0.000 C 
BRANCH  18  19
ATOM     19  S   UNL     1       4.764   4.358  19.075  0.00  0.00    +0.000 S 
ATOM     20  O   UNL     1       4.892   3.004  19.583  0.00  0.00    +0.000 OA
ATOM     21  O   UNL     1       5.317   5.472  19.820  0.00  0.00    +0.000 OA
BRANCH  19  26
ATOM     22  C   UNL     1       7.173   4.703  13.508  0.00  0.00    +0.000 C 
ATOM     23  C   UNL     1       6.582   4.587  14.882  0.00  0.00    +0.000 A 
ATOM     24  C   UNL     1       5.231   4.260  15.056  0.00  0.00    +0.000 A 
ATOM     25  C   UNL     1       4.683   4.165  16.337  0.00  0.00    +0.000 A 
ATOM     26  C   UNL     1       5.492   4.390  17.452  0.00  0.00    +0.000 A 
ATOM     27  C   UNL     1       6.836   4.736  17.297  0.00  0.00    +0.000 A 
ATOM     28  C   UNL     1       7.378   4.828  16.013  0.00  0.00    +0.000 A 
ENDBRANCH  19  26
ENDBRANCH  18  19
ENDBRANCH  17  18
ENDBRANCH   1  17
TORSDOF 6
ENDMDL
MODEL 7
REMARK VINA RESULT:      -7.7      1.638      2.228
REMARK  Name = 
REMARK  7 active torsions:
REMARK  status: ('A' for Active; 'I' for Inactive)
REMARK    1  A    between atoms: C_1  and  C_2
REMARK    2  A    between atoms: C_5  and  S_6
REMARK    3  A    between atoms: S_6  and  C_9
REMARK    4  A    between atoms: C_9  and  C_10
REMARK    5  A    between atoms: C_10  and  C_11
REMARK    6  A    between atoms: N_16  and  C_17
REMARK    7  A    between atoms: C_22  and  O_23
REMARK                            x       y       z     vdW  Elec       q    Type
REMARK                         _______ _______ _______ _____ _____    ______ ____
ROOT
ATOM      1  C   UNL     1       1.984   7.079  19.684  0.00  0.00    +0.000 C 
ATOM      2  O   UNL     1       2.167   7.029  18.466  0.00  0.00    +0.000 OA
ATOM      3  N   UNL     1       1.569   8.234  20.318  0.00  0.00    +0.000 N 
ATOM      4  C   UNL     1       1.248   9.431  19.525  0.00  0.00    +0.000 C 
ATOM      5  C   UNL     1      -0.121  10.006  19.937  0.00  0.00    +0.000 C 
ATOM      6  N   UNL     1      -0.140  10.251  21.392  0.00  0.00    +0.000 N 
ATOM      7  C   UNL     1       0.175   9.078  22.219  0.00  0.00    +0.000 C 
ATOM      8  C   UNL     1       1.514   8.466  21.769  0.00  0.00    +0.000 C 
ENDROOT
BRANCH   6   9
ATOM      9  C   UNL     1      -0.562  11.449  21.942  0.00  0.00    +0.000 A 
ATOM     10  C   UNL     1      -1.763  11.498  22.673  0.00  0.00    +0.000 A 
ATOM     11  C   UNL     1      -2.266  12.684  23.215  0.00  0.00    +0.000 A 
ATOM     12  C   UNL     1      -1.578  13.875  23.037  0.00  0.00    +0.000 A 
ATOM     13  C   UNL     1      -0.387  13.877  22.317  0.00  0.00    +0.000 A 
ATOM     14  C   UNL     1       0.113  12.681  21.782  0.00  0.00    +0.000 A 
BRANCH  14  15
ATOM     15  O   UNL     1       1.316  12.738  21.119  0.00  0.00    +0.000 OA
ATOM     16  H   UNL     1       1.876  13.406  21.545  0.00  0.00    +0.000 HD
ENDBRANCH  14  15
ENDBRANCH   6   9
BRANCH   1  17
ATOM     17  C   UNL     1       2.114   5.822  20.520  0.00  0.00    +0.000 C 
BRANCH  17  18
ATOM     18  C   UNL     1       1.320   4.666  19.927  0.00  0.00    +0.000 C 
BRANCH  18  19
ATOM     19  S   UNL     1       2.378   3.245  19.750  0.00  0.00    +0.000 S 
ATOM     20  O   UNL     1       1.635   2.214  19.049  0.00  0.00    +0.000 OA
ATOM     21  O   UNL     1       2.971   2.966  21.043  0.00  0.00    +0.000 OA
BRANCH  19  26
ATOM     22  C   UNL     1       6.934   4.859  16.069  0.00  0.00    +0.000 C 
ATOM     23  C   UNL     1       5.803   4.491  16.983  0.00  0.00    +0.000 A 
ATOM     24  C   UNL     1       5.983   4.466  18.372  0.00  0.00    +0.000 A 
ATOM     25  C   UNL     1       4.930   4.110  19.218  0.00  0.00    +0.000 A 
ATOM     26  C   UNL     1       3.686   3.786  18.672  0.00  0.00    +0.000 A 
ATOM     27  C   UNL     1       3.495   3.787  17.289  0.00  0.00    +0.000 A 
ATOM     28  C   UNL     1       4.552   4.145  16.449  0.00  0.00    +0.000 A 
ENDBRANCH  19  26
ENDBRANCH  18  19
ENDBRANCH  17  18
ENDBRANCH   1  17
TORSDOF 6
ENDMDL
MODEL 8
REMARK VINA RESULT:      -7.7      1.627      2.144
REMARK  Name = 
REMARK  7 active torsions:
REMARK  status: ('A' for Active; 'I' for Inactive)
REMARK    1  A    between atoms: C_1  and  C_2
REMARK    2  A    between atoms: C_5  and  S_6
REMARK    3  A    between atoms: S_6  and  C_9
REMARK    4  A    between atoms: C_9  and  C_10
REMARK    5  A    between atoms: C_10  and  C_11
REMARK    6  A    between atoms: N_16  and  C_17
REMARK    7  A    between atoms: C_22  and  O_23
REMARK                            x       y       z     vdW  Elec       q    Type
REMARK                         _______ _______ _______ _____ _____    ______ ____
ROOT
ATOM      1  C   UNL     1       2.226   6.825  19.594  0.00  0.00    +0.000 C 
ATOM      2  O   UNL     1       2.819   6.697  18.521  0.00  0.00    +0.000 OA
ATOM      3  N   UNL     1       1.689   8.033  19.997  0.00  0.00    +0.000 N 
ATOM      4  C   UNL     1       1.740   9.195  19.097  0.00  0.00    +0.000 C 
ATOM      5  C   UNL     1       0.353   9.854  18.979  0.00  0.00    +0.000 C 
ATOM      6  N   UNL     1      -0.158  10.183  20.324  0.00  0.00    +0.000 N 
ATOM      7  C   UNL     1      -0.225   9.046  21.253  0.00  0.00    +0.000 C 
ATOM      8  C   UNL     1       1.146   8.350  21.326  0.00  0.00    +0.000 C 
ENDROOT
BRANCH   6   9
ATOM      9  C   UNL     1      -0.670  11.429  20.645  0.00  0.00    +0.000 A 
ATOM     10  C   UNL     1      -0.073  12.185  21.670  0.00  0.00    +0.000 A 
ATOM     11  C   UNL     1      -0.568  13.429  22.072  0.00  0.00    +0.000 A 
ATOM     12  C   UNL     1      -1.691  13.961  21.456  0.00  0.00    +0.000 A 
ATOM     13  C   UNL     1      -2.318  13.247  20.440  0.00  0.00    +0.000 A 
ATOM     14  C   UNL     1      -1.811  12.003  20.040  0.00  0.00    +0.000 A 
BRANCH  14  15
ATOM     15  O   UNL     1      -2.446  11.365  19.000  0.00  0.00    +0.000 OA
ATOM     16  H   UNL     1      -1.781  11.091  18.349  0.00  0.00    +0.000 HD
ENDBRANCH  14  15
ENDBRANCH   6   9
BRANCH   1  17
ATOM     17  C   UNL     1       1.977   5.614  20.469  0.00  0.00    +0.000 C 
BRANCH  17  18
ATOM     18  C   UNL     1       1.374   4.461  19.678  0.00  0.00    +0.000 C 
BRANCH  18  19
ATOM     19  S   UNL     1       2.492   3.076  19.696  0.00  0.00    +0.000 S 
ATOM     20  O   UNL     1       1.819   1.946  19.082  0.00  0.00    +0.000 OA
ATOM     21  O   UNL     1       3.038   2.961  21.034  0.00  0.00    +0.000 OA
BRANCH  19  26
ATOM     22  C   UNL     1       6.938   4.942  16.000  0.00  0.00    +0.000 C 
ATOM     23  C   UNL     1       5.849   4.452  16.908  0.00  0.00    +0.000 A 
ATOM     24  C   UNL     1       4.632   3.993  16.386  0.00  0.00    +0.000 A 
ATOM     25  C   UNL     1       3.618   3.550  17.236  0.00  0.00    +0.000 A 
ATOM     26  C   UNL     1       3.823   3.555  18.618  0.00  0.00    +0.000 A 
ATOM     27  C   UNL     1       5.022   4.027  19.156  0.00  0.00    +0.000 A 
ATOM     28  C   UNL     1       6.033   4.468  18.299  0.00  0.00    +0.000 A 
ENDBRANCH  19  26
ENDBRANCH  18  19
ENDBRANCH  17  18
ENDBRANCH   1  17
TORSDOF 6
ENDMDL
MODEL 9
REMARK VINA RESULT:      -7.6      1.828      2.761
REMARK  Name = 
REMARK  7 active torsions:
REMARK  status: ('A' for Active; 'I' for Inactive)
REMARK    1  A    between atoms: C_1  and  C_2
REMARK    2  A    between atoms: C_5  and  S_6
REMARK    3  A    between atoms: S_6  and  C_9
REMARK    4  A    between atoms: C_9  and  C_10
REMARK    5  A    between atoms: C_10  and  C_11
REMARK    6  A    between atoms: N_16  and  C_17
REMARK    7  A    between atoms: C_22  and  O_23
REMARK                            x       y       z     vdW  Elec       q    Type
REMARK                         _______ _______ _______ _____ _____    ______ ____
ROOT
ATOM      1  C   UNL     1       3.659   5.979  19.050  0.00  0.00    +0.000 C 
ATOM      2  O   UNL     1       3.763   5.161  19.966  0.00  0.00    +0.000 OA
ATOM      3  N   UNL     1       2.640   6.912  19.011  0.00  0.00    +0.000 N 
ATOM      4  C   UNL     1       1.689   7.007  20.128  0.00  0.00    +0.000 C 
ATOM      5  C   UNL     1       1.542   8.467  20.597  0.00  0.00    +0.000 C 
ATOM      6  N   UNL     1       1.180   9.324  19.451  0.00  0.00    +0.000 N 
ATOM      7  C   UNL     1       2.108   9.258  18.314  0.00  0.00    +0.000 C 
ATOM      8  C   UNL     1       2.302   7.793  17.882  0.00  0.00    +0.000 C 
ENDROOT
BRANCH   6   9
ATOM      9  C   UNL     1       0.131  10.227  19.496  0.00  0.00    +0.000 A 
ATOM     10  C   UNL     1      -0.933  10.106  18.584  0.00  0.00    +0.000 A 
ATOM     11  C   UNL     1      -1.998  11.010  18.548  0.00  0.00    +0.000 A 
ATOM     12  C   UNL     1      -2.031  12.080  19.431  0.00  0.00    +0.000 A 
ATOM     13  C   UNL     1      -0.998  12.243  20.348  0.00  0.00    +0.000 A 
ATOM     14  C   UNL     1       0.063  11.327  20.381  0.00  0.00    +0.000 A 
BRANCH  14  15
ATOM     15  O   UNL     1       1.032  11.514  21.338  0.00  0.00    +0.000 OA
ATOM     16  H   UNL     1       1.157  12.467  21.474  0.00  0.00    +0.000 HD
ENDBRANCH  14  15
ENDBRANCH   6   9
BRANCH   1  17
ATOM     17  C   UNL     1       4.724   6.050  17.975  0.00  0.00    +0.000 C 
BRANCH  17  18
ATOM     18  C   UNL     1       5.765   4.951  18.139  0.00  0.00    +0.000 C 
BRANCH  18  19
ATOM     19  S   UNL     1       7.128   5.251  17.033  0.00  0.00    +0.000 S 
ATOM     20  O   UNL     1       8.249   4.437  17.468  0.00  0.00    +0.000 OA
ATOM     21  O   UNL     1       7.280   6.686  16.890  0.00  0.00    +0.000 OA
BRANCH  19  26
ATOM     22  C   UNL     1       5.134   3.287  11.641  0.00  0.00    +0.000 C 
ATOM     23  C   UNL     1       5.637   3.744  12.978  0.00  0.00    +0.000 A 
ATOM     24  C   UNL     1       4.883   3.529  14.140  0.00  0.00    +0.000 A 
ATOM     25  C   UNL     1       5.350   3.967  15.380  0.00  0.00    +0.000 A 
ATOM     26  C   UNL     1       6.584   4.616  15.464  0.00  0.00    +0.000 A 
ATOM     27  C   UNL     1       7.339   4.855  14.314  0.00  0.00    +0.000 A 
ATOM     28  C   UNL     1       6.866   4.413  13.076  0.00  0.00    +0.000 A 
ENDBRANCH  19  26
ENDBRANCH  18  19
ENDBRANCH  17  18
ENDBRANCH   1  17
TORSDOF 6
ENDMDL
