MODEL 1
REMARK VINA RESULT:      -7.4      0.000      0.000
REMARK  Name = 
REMARK  8 active torsions:
REMARK  status: ('A' for Active; 'I' for Inactive)
REMARK    1  A    between atoms: C_2  and  C_3
REMARK    2  A    between atoms: C_3  and  O_4
REMARK    3  A    between atoms: O_4  and  C_5
REMARK    4  A    between atoms: C_7  and  C_8
REMARK    5  A    between atoms: C_10  and  C_11
REMARK    6  A    between atoms: C_12  and  S_13
REMARK    7  A    between atoms: S_13  and  C_16
REMARK    8  A    between atoms: C_21  and  C_22
REMARK                            x       y       z     vdW  Elec       q    Type
REMARK                         _______ _______ _______ _____ _____    ______ ____
ROOT
ATOM      1  C   UNL     1       6.912   5.517  16.780  0.00  0.00    +0.000 A 
ATOM      2  N   UNL     1       7.262   5.498  15.465  0.00  0.00    +0.000 NA
ATOM      3  C   UNL     1       6.585   4.684  14.633  0.00  0.00    +0.000 A 
ATOM      4  C   UNL     1       7.023   4.631  13.201  0.00  0.00    +0.000 C 
ATOM      5  C   UNL     1       5.513   3.920  15.058  0.00  0.00    +0.000 A 
ATOM      6  C   UNL     1       5.093   3.983  16.392  0.00  0.00    +0.000 A 
ATOM      7  C   UNL     1       3.878   3.158  16.737  0.00  0.00    +0.000 C 
ATOM      8  C   UNL     1       5.832   4.783  17.282  0.00  0.00    +0.000 A 
ENDROOT
BRANCH   8   9
ATOM      9  S   UNL     1       5.521   4.799  19.032  0.00  0.00    +0.000 S 
ATOM     10  O   UNL     1       5.524   3.414  19.494  0.00  0.00    +0.000 OA
ATOM     11  O   UNL     1       6.465   5.724  19.629  0.00  0.00    +0.000 OA
BRANCH   9  12
ATOM     12  C   UNL     1       3.880   5.385  19.424  0.00  0.00    +0.000 A 
ATOM     13  C   UNL     1       3.137   4.720  20.409  0.00  0.00    +0.000 A 
ATOM     14  C   UNL     1       1.888   5.212  20.788  0.00  0.00    +0.000 A 
ATOM     15  C   UNL     1       1.383   6.370  20.201  0.00  0.00    +0.000 A 
ATOM     16  C   UNL     1       2.121   7.032  19.217  0.00  0.00    +0.000 A 
ATOM     17  C   UNL     1       3.376   6.553  18.806  0.00  0.00    +0.000 A 
ATOM     18  C   UNL     1       4.103   7.292  17.718  0.00  0.00    +0.000 C 
ENDBRANCH   9  12
ENDBRANCH   8   9
BRANCH   1  19
ATOM     19  O   UNL     1       7.636   6.382  17.570  0.00  0.00    +0.000 OA
BRANCH  19  20
ATOM     20  C   UNL     1       7.552   7.751  17.118  0.00  0.00    +0.000 C 
BRANCH  20  22
ATOM     21  C   UNL     1       8.944   9.395  18.944  0.00  0.00    +0.000 C 
ATOM     22  C   UNL     1       8.300   8.636  18.100  0.00  0.00    +0.000 C 
ENDBRANCH  20  22
ENDBRANCH  19  20
ENDBRANCH   1  19
TORSDOF 5
ENDMDL
MODEL 2
REMARK VINA RESULT:      -7.1      2.265      6.224
REMARK  Name = 
REMARK  8 active torsions:
REMARK  status: ('A' for Active; 'I' for Inactive)
REMARK    1  A    between atoms: C_2  and  C_3
REMARK    2  A    between atoms: C_3  and  O_4
REMARK    3  A    between atoms: O_4  and  C_5
REMARK    4  A    between atoms: C_7  and  C_8
REMARK    5  A    between atoms: C_10  and  C_11
REMARK    6  A    between atoms: C_12  and  S_13
REMARK    7  A    between atoms: S_13  and  C_16
REMARK    8  A    between atoms: C_21  and  C_22
REMARK                            x       y       z     vdW  Elec       q    Type
REMARK                         _______ _______ _______ _____ _____    ______ ____
ROOT
ATOM      1  C   UNL     1       2.900   5.574  19.787  0.00  0.00    +0.000 A 
ATOM      2  N   UNL     1       2.095   6.622  20.114  0.00  0.00    +0.000 NA
ATOM      3  C   UNL     1       2.128   7.722  19.337  0.00  0.00    +0.000 A 
ATOM      4  C   UNL     1       1.281   8.889  19.746  0.00  0.00    +0.000 C 
ATOM      5  C   UNL     1       2.899   7.794  18.191  0.00  0.00    +0.000 A 
ATOM      6  C   UNL     1       3.676   6.697  17.800  0.00  0.00    +0.000 A 
ATOM      7  C   UNL     1       4.432   6.857  16.504  0.00  0.00    +0.000 C 
ATOM      8  C   UNL     1       3.697   5.567  18.637  0.00  0.00    +0.000 A 
ENDROOT
BRANCH   8   9
ATOM      9  S   UNL     1       4.786   4.191  18.355  0.00  0.00    +0.000 S 
ATOM     10  O   UNL     1       5.807   4.214  19.399  0.00  0.00    +0.000 OA
ATOM     11  O   UNL     1       3.960   3.006  18.229  0.00  0.00    +0.000 OA
BRANCH   9  12
ATOM     12  C   UNL     1       5.712   4.359  16.837  0.00  0.00    +0.000 A 
ATOM     13  C   UNL     1       5.177   3.840  15.651  0.00  0.00    +0.000 A 
ATOM     14  C   UNL     1       5.845   4.035  14.442  0.00  0.00    +0.000 A 
ATOM     15  C   UNL     1       7.036   4.757  14.409  0.00  0.00    +0.000 A 
ATOM     16  C   UNL     1       7.573   5.272  15.591  0.00  0.00    +0.000 A 
ATOM     17  C   UNL     1       6.929   5.081  16.824  0.00  0.00    +0.000 A 
ATOM     18  C   UNL     1       7.577   5.630  18.064  0.00  0.00    +0.000 C 
ENDBRANCH   9  12
ENDBRANCH   8   9
BRANCH   1  19
ATOM     19  O   UNL     1       2.805   4.478  20.615  0.00  0.00    +0.000 OA
BRANCH  19  20
ATOM     20  C   UNL     1       1.438   4.089  20.870  0.00  0.00    +0.000 C 
BRANCH  20  22
ATOM     21  C   UNL     1       0.586   2.360  18.807  0.00  0.00    +0.000 C 
ATOM     22  C   UNL     1       0.980   3.158  19.760  0.00  0.00    +0.000 C 
ENDBRANCH  20  22
ENDBRANCH  19  20
ENDBRANCH   1  19
TORSDOF 5
ENDMDL
MODEL 3
REMARK VINA RESULT:      -7.1      1.345      1.718
REMARK  Name = 
REMARK  8 active torsions:
REMARK  status: ('A' for Active; 'I' for Inactive)
REMARK    1  A    between atoms: C_2  and  C_3
REMARK    2  A    between atoms: C_3  and  O_4
REMARK    3  A    between atoms: O_4  and  C_5
REMARK    4  A    between atoms: C_7  and  C_8
REMARK    5  A    between atoms: C_10  and  C_11
REMARK    6  A    between atoms: C_12  and  S_13
REMARK    7  A    between atoms: S_13  and  C_16
REMARK    8  A    between atoms: C_21  and  C_22
REMARK                            x       y       z     vdW  Elec       q    Type
REMARK                         _______ _______ _______ _____ _____    ______ ____
ROOT
ATOM      1  C   UNL     1       5.985   5.831  16.530  0.00  0.00    +0.000 A 
ATOM      2  N   UNL     1       6.390   5.585  15.253  0.00  0.00    +0.000 NA
ATOM      3  C   UNL     1       6.068   4.402  14.695  0.00  0.00    +0.000 A 
ATOM      4  C   UNL     1       6.574   4.125  13.312  0.00  0.00    +0.000 C 
ATOM      5  C   UNL     1       5.291   3.464  15.350  0.00  0.00    +0.000 A 
ATOM      6  C   UNL     1       4.803   3.731  16.635  0.00  0.00    +0.000 A 
ATOM      7  C   UNL     1       3.917   2.669  17.234  0.00  0.00    +0.000 C 
ATOM      8  C   UNL     1       5.186   4.937  17.251  0.00  0.00    +0.000 A 
ENDROOT
BRANCH   8   9
ATOM      9  S   UNL     1       4.795   5.308  18.944  0.00  0.00    +0.000 S 
ATOM     10  O   UNL     1       5.925   4.876  19.763  0.00  0.00    +0.000 OA
ATOM     11  O   UNL     1       4.399   6.701  19.001  0.00  0.00    +0.000 OA
BRANCH   9  12
ATOM     12  C   UNL     1       3.423   4.338  19.552  0.00  0.00    +0.000 A 
ATOM     13  C   UNL     1       3.654   3.382  20.549  0.00  0.00    +0.000 A 
ATOM     14  C   UNL     1       2.584   2.674  21.096  0.00  0.00    +0.000 A 
ATOM     15  C   UNL     1       1.284   2.926  20.663  0.00  0.00    +0.000 A 
ATOM     16  C   UNL     1       1.052   3.876  19.666  0.00  0.00    +0.000 A 
ATOM     17  C   UNL     1       2.111   4.595  19.089  0.00  0.00    +0.000 A 
ATOM     18  C   UNL     1       1.798   5.578  17.996  0.00  0.00    +0.000 C 
ENDBRANCH   9  12
ENDBRANCH   8   9
BRANCH   1  19
ATOM     19  O   UNL     1       6.336   7.064  17.032  0.00  0.00    +0.000 OA
BRANCH  19  20
ATOM     20  C   UNL     1       7.668   7.078  17.590  0.00  0.00    +0.000 C 
BRANCH  20  22
ATOM     21  C   UNL     1       8.404   9.755  18.107  0.00  0.00    +0.000 C 
ATOM     22  C   UNL     1       8.064   8.518  17.869  0.00  0.00    +0.000 C 
ENDBRANCH  20  22
ENDBRANCH  19  20
ENDBRANCH   1  19
TORSDOF 5
ENDMDL
MODEL 4
REMARK VINA RESULT:      -7.1      2.218      4.183
REMARK  Name = 
REMARK  8 active torsions:
REMARK  status: ('A' for Active; 'I' for Inactive)
REMARK    1  A    between atoms: C_2  and  C_3
REMARK    2  A    between atoms: C_3  and  O_4
REMARK    3  A    between atoms: O_4  and  C_5
REMARK    4  A    between atoms: C_7  and  C_8
REMARK    5  A    between atoms: C_10  and  C_11
REMARK    6  A    between atoms: C_12  and  S_13
REMARK    7  A    between atoms: S_13  and  C_16
REMARK    8  A    between atoms: C_21  and  C_22
REMARK                            x       y       z     vdW  Elec       q    Type
REMARK                         _______ _______ _______ _____ _____    ______ ____
ROOT
ATOM      1  C   UNL     1       4.518   5.669  18.221  0.00  0.00    +0.000 A 
ATOM      2  N   UNL     1       5.466   6.647  18.226  0.00  0.00    +0.000 NA
ATOM      3  C   UNL     1       6.521   6.521  17.398  0.00  0.00    +0.000 A 
ATOM      4  C   UNL     1       7.584   7.575  17.460  0.00  0.00    +0.000 C 
ATOM      5  C   UNL     1       6.637   5.471  16.504  0.00  0.00    +0.000 A 
ATOM      6  C   UNL     1       5.634   4.497  16.434  0.00  0.00    +0.000 A 
ATOM      7  C   UNL     1       5.829   3.430  15.386  0.00  0.00    +0.000 C 
ATOM      8  C   UNL     1       4.560   4.585  17.338  0.00  0.00    +0.000 A 
ENDROOT
BRANCH   8   9
ATOM      9  S   UNL     1       3.328   3.312  17.481  0.00  0.00    +0.000 S 
ATOM     10  O   UNL     1       2.215   3.674  16.608  0.00  0.00    +0.000 OA
ATOM     11  O   UNL     1       3.991   2.042  17.258  0.00  0.00    +0.000 OA
BRANCH   9  12
ATOM     12  C   UNL     1       2.599   3.254  19.111  0.00  0.00    +0.000 A 
ATOM     13  C   UNL     1       1.273   3.674  19.279  0.00  0.00    +0.000 A 
ATOM     14  C   UNL     1       0.659   3.557  20.527  0.00  0.00    +0.000 A 
ATOM     15  C   UNL     1       1.357   3.012  21.602  0.00  0.00    +0.000 A 
ATOM     16  C   UNL     1       2.680   2.597  21.437  0.00  0.00    +0.000 A 
ATOM     17  C   UNL     1       3.327   2.713  20.196  0.00  0.00    +0.000 A 
ATOM     18  C   UNL     1       4.763   2.280  20.094  0.00  0.00    +0.000 C 
ENDBRANCH   9  12
ENDBRANCH   8   9
BRANCH   1  19
ATOM     19  O   UNL     1       3.462   5.868  19.081  0.00  0.00    +0.000 OA
BRANCH  19  20
ATOM     20  C   UNL     1       2.685   7.038  18.746  0.00  0.00    +0.000 C 
BRANCH  20  22
ATOM     21  C   UNL     1       1.328   7.918  21.061  0.00  0.00    +0.000 C 
ATOM     22  C   UNL     1       1.954   7.512  19.991  0.00  0.00    +0.000 C 
ENDBRANCH  20  22
ENDBRANCH  19  20
ENDBRANCH   1  19
TORSDOF 5
ENDMDL
MODEL 5
REMARK VINA RESULT:      -7.1      2.461      6.370
REMARK  Name = 
REMARK  8 active torsions:
REMARK  status: ('A' for Active; 'I' for Inactive)
REMARK    1  A    between atoms: C_2  and  C_3
REMARK    2  A    between atoms: C_3  and  O_4
REMARK    3  A    between atoms: O_4  and  C_5
REMARK    4  A    between atoms: C_7  and  C_8
REMARK    5  A    between atoms: C_10  and  C_11
REMARK    6  A    between atoms: C_12  and  S_13
REMARK    7  A    between atoms: S_13  and  C_16
REMARK    8  A    between atoms: C_21  and  C_22
REMARK                            x       y       z     vdW  Elec       q    Type
REMARK                         _______ _______ _______ _____ _____    ______ ____
ROOT
ATOM      1  C   UNL     1       2.820   5.089  20.502  0.00  0.00    +0.000 A 
ATOM      2  N   UNL     1       1.793   5.893  20.893  0.00  0.00    +0.000 NA
ATOM      3  C   UNL     1       1.644   7.085  20.284  0.00  0.00    +0.000 A 
ATOM      4  C   UNL     1       0.546   7.981  20.768  0.00  0.00    +0.000 C 
ATOM      5  C   UNL     1       2.457   7.487  19.239  0.00  0.00    +0.000 A 
ATOM      6  C   UNL     1       3.472   6.641  18.775  0.00  0.00    +0.000 A 
ATOM      7  C   UNL     1       4.260   7.149  17.594  0.00  0.00    +0.000 C 
ATOM      8  C   UNL     1       3.675   5.421  19.445  0.00  0.00    +0.000 A 
ENDROOT
BRANCH   8   9
ATOM      9  S   UNL     1       5.045   4.350  19.080  0.00  0.00    +0.000 S 
ATOM     10  O   UNL     1       6.206   4.854  19.808  0.00  0.00    +0.000 OA
ATOM     11  O   UNL     1       4.611   2.991  19.335  0.00  0.00    +0.000 OA
BRANCH   9  12
ATOM     12  C   UNL     1       5.538   4.439  17.365  0.00  0.00    +0.000 A 
ATOM     13  C   UNL     1       6.841   4.846  17.050  0.00  0.00    +0.000 A 
ATOM     14  C   UNL     1       7.270   4.841  15.723  0.00  0.00    +0.000 A 
ATOM     15  C   UNL     1       6.411   4.420  14.710  0.00  0.00    +0.000 A 
ATOM     16  C   UNL     1       5.111   4.018  15.021  0.00  0.00    +0.000 A 
ATOM     17  C   UNL     1       4.647   4.023  16.347  0.00  0.00    +0.000 A 
ATOM     18  C   UNL     1       3.225   3.612  16.611  0.00  0.00    +0.000 C 
ENDBRANCH   9  12
ENDBRANCH   8   9
BRANCH   1  19
ATOM     19  O   UNL     1       2.905   3.880  21.155  0.00  0.00    +0.000 OA
BRANCH  19  20
ATOM     20  C   UNL     1       1.617   3.251  21.329  0.00  0.00    +0.000 C 
BRANCH  20  22
ATOM     21  C   UNL     1       0.721   2.311  18.821  0.00  0.00    +0.000 C 
ATOM     22  C   UNL     1       1.135   2.746  19.979  0.00  0.00    +0.000 C 
ENDBRANCH  20  22
ENDBRANCH  19  20
ENDBRANCH   1  19
TORSDOF 5
ENDMDL
MODEL 6
REMARK VINA RESULT:      -6.9      0.425      1.520
REMARK  Name = 
REMARK  8 active torsions:
REMARK  status: ('A' for Active; 'I' for Inactive)
REMARK    1  A    between atoms: C_2  and  C_3
REMARK    2  A    between atoms: C_3  and  O_4
REMARK    3  A    between atoms: O_4  and  C_5
REMARK    4  A    between atoms: C_7  and  C_8
REMARK    5  A    between atoms: C_10  and  C_11
REMARK    6  A    between atoms: C_12  and  S_13
REMARK    7  A    between atoms: S_13  and  C_16
REMARK    8  A    between atoms: C_21  and  C_22
REMARK                            x       y       z     vdW  Elec       q    Type
REMARK                         _______ _______ _______ _____ _____    ______ ____
ROOT
ATOM      1  C   UNL     1       6.878   5.556  16.922  0.00  0.00    +0.000 A 
ATOM      2  N   UNL     1       7.233   5.617  15.609  0.00  0.00    +0.000 NA
ATOM      3  C   UNL     1       6.628   4.782  14.742  0.00  0.00    +0.000 A 
ATOM      4  C   UNL     1       7.074   4.821  13.312  0.00  0.00    +0.000 C 
ATOM      5  C   UNL     1       5.619   3.919  15.130  0.00  0.00    +0.000 A 
ATOM      6  C   UNL     1       5.190   3.897  16.462  0.00  0.00    +0.000 A 
ATOM      7  C   UNL     1       4.045   2.964  16.767  0.00  0.00    +0.000 C 
ATOM      8  C   UNL     1       5.858   4.719  17.388  0.00  0.00    +0.000 A 
ENDROOT
BRANCH   8   9
ATOM      9  S   UNL     1       5.540   4.643  19.134  0.00  0.00    +0.000 S 
ATOM     10  O   UNL     1       5.423   3.234  19.501  0.00  0.00    +0.000 OA
ATOM     11  O   UNL     1       6.555   5.442  19.793  0.00  0.00    +0.000 OA
BRANCH   9  12
ATOM     12  C   UNL     1       3.952   5.337  19.566  0.00  0.00    +0.000 A 
ATOM     13  C   UNL     1       3.645   6.642  19.158  0.00  0.00    +0.000 A 
ATOM     14  C   UNL     1       2.380   7.171  19.412  0.00  0.00    +0.000 A 
ATOM     15  C   UNL     1       1.415   6.401  20.058  0.00  0.00    +0.000 A 
ATOM     16  C   UNL     1       1.720   5.102  20.469  0.00  0.00    +0.000 A 
ATOM     17  C   UNL     1       2.990   4.547  20.237  0.00  0.00    +0.000 A 
ATOM     18  C   UNL     1       3.265   3.156  20.736  0.00  0.00    +0.000 C 
ENDBRANCH   9  12
ENDBRANCH   8   9
BRANCH   1  19
ATOM     19  O   UNL     1       7.526   6.446  17.749  0.00  0.00    +0.000 OA
BRANCH  19  20
ATOM     20  C   UNL     1       7.296   7.822  17.376  0.00  0.00    +0.000 C 
BRANCH  20  22
ATOM     21  C   UNL     1       9.030   9.471  18.874  0.00  0.00    +0.000 C 
ATOM     22  C   UNL     1       8.229   8.709  18.182  0.00  0.00    +0.000 C 
ENDBRANCH  20  22
ENDBRANCH  19  20
ENDBRANCH   1  19
TORSDOF 5
ENDMDL
MODEL 7
REMARK VINA RESULT:      -6.9      2.278      4.455
REMARK  Name = 
REMARK  8 active torsions:
REMARK  status: ('A' for Active; 'I' for Inactive)
REMARK    1  A    between atoms: C_2  and  C_3
REMARK    2  A    between atoms: C_3  and  O_4
REMARK    3  A    between atoms: O_4  and  C_5
REMARK    4  A    between atoms: C_7  and  C_8
REMARK    5  A    between atoms: C_10  and  C_11
REMARK    6  A    between atoms: C_12  and  S_13
REMARK    7  A    between atoms: S_13  and  C_16
REMARK    8  A    between atoms: C_21  and  C_22
REMARK                            x       y       z     vdW  Elec       q    Type
REMARK                         _______ _______ _______ _____ _____    ______ ____
ROOT
ATOM      1  C   UNL     1       5.637   4.583  16.491  0.00  0.00    +0.000 A 
ATOM      2  N   UNL     1       6.580   5.559  16.385  0.00  0.00    +0.000 NA
ATOM      3  C   UNL     1       6.560   6.570  17.275  0.00  0.00    +0.000 A 
ATOM      4  C   UNL     1       7.567   7.666  17.106  0.00  0.00    +0.000 C 
ATOM      5  C   UNL     1       5.659   6.612  18.324  0.00  0.00    +0.000 A 
ATOM      6  C   UNL     1       4.730   5.578  18.492  0.00  0.00    +0.000 A 
ATOM      7  C   UNL     1       3.834   5.691  19.700  0.00  0.00    +0.000 C 
ATOM      8  C   UNL     1       4.701   4.550  17.531  0.00  0.00    +0.000 A 
ENDROOT
BRANCH   8   9
ATOM      9  S   UNL     1       3.451   3.288  17.523  0.00  0.00    +0.000 S 
ATOM     10  O   UNL     1       2.402   3.712  16.600  0.00  0.00    +0.000 OA
ATOM     11  O   UNL     1       4.115   2.024  17.274  0.00  0.00    +0.000 OA
BRANCH   9  12
ATOM     12  C   UNL     1       2.615   3.150  19.096  0.00  0.00    +0.000 A 
ATOM     13  C   UNL     1       1.277   3.555  19.194  0.00  0.00    +0.000 A 
ATOM     14  C   UNL     1       0.583   3.377  20.390  0.00  0.00    +0.000 A 
ATOM     15  C   UNL     1       1.211   2.786  21.484  0.00  0.00    +0.000 A 
ATOM     16  C   UNL     1       2.546   2.386  21.389  0.00  0.00    +0.000 A 
ATOM     17  C   UNL     1       3.274   2.563  20.201  0.00  0.00    +0.000 A 
ATOM     18  C   UNL     1       4.717   2.143  20.176  0.00  0.00    +0.000 C 
ENDBRANCH   9  12
ENDBRANCH   8   9
BRANCH   1  19
ATOM     19  O   UNL     1       5.725   3.574  15.558  0.00  0.00    +0.000 OA
BRANCH  19  20
ATOM     20  C   UNL     1       6.535   3.939  14.420  0.00  0.00    +0.000 C 
BRANCH  20  22
ATOM     21  C   UNL     1       5.127   3.290  12.060  0.00  0.00    +0.000 C 
ATOM     22  C   UNL     1       5.778   3.589  13.150  0.00  0.00    +0.000 C 
ENDBRANCH  20  22
ENDBRANCH  19  20
ENDBRANCH   1  19
TORSDOF 5
ENDMDL
MODEL 8
REMARK VINA RESULT:      -6.8      1.436      3.774
REMARK  Name = 
REMARK  8 active torsions:
REMARK  status: ('A' for Active; 'I' for Inactive)
REMARK    1  A    between atoms: C_2  and  C_3
REMARK    2  A    between atoms: C_3  and  O_4
REMARK    3  A    between atoms: O_4  and  C_5
REMARK    4  A    between atoms: C_7  and  C_8
REMARK    5  A    between atoms: C_10  and  C_11
REMARK    6  A    between atoms: C_12  and  S_13
REMARK    7  A    between atoms: S_13  and  C_16
REMARK    8  A    between atoms: C_21  and  C_22
REMARK                            x       y       z     vdW  Elec       q    Type
REMARK                         _______ _______ _______ _____ _____    ______ ____
ROOT
ATOM      1  C   UNL     1       4.955   3.606  16.726  0.00  0.00    +0.000 A 
ATOM      2  N   UNL     1       5.132   3.421  15.389  0.00  0.00    +0.000 NA
ATOM      3  C   UNL     1       6.074   4.150  14.761  0.00  0.00    +0.000 A 
ATOM      4  C   UNL     1       6.215   3.978  13.279  0.00  0.00    +0.000 C 
ATOM      5  C   UNL     1       6.904   5.026  15.438  0.00  0.00    +0.000 A 
ATOM      6  C   UNL     1       6.785   5.173  16.825  0.00  0.00    +0.000 A 
ATOM      7  C   UNL     1       7.776   6.106  17.473  0.00  0.00    +0.000 C 
ATOM      8  C   UNL     1       5.762   4.463  17.482  0.00  0.00    +0.000 A 
ENDROOT
BRANCH   8   9
ATOM      9  S   UNL     1       5.384   4.709  19.200  0.00  0.00    +0.000 S 
ATOM     10  O   UNL     1       5.210   3.392  19.807  0.00  0.00    +0.000 OA
ATOM     11  O   UNL     1       6.401   5.587  19.745  0.00  0.00    +0.000 OA
BRANCH   9  12
ATOM     12  C   UNL     1       3.805   5.509  19.440  0.00  0.00    +0.000 A 
ATOM     13  C   UNL     1       2.965   5.064  20.469  0.00  0.00    +0.000 A 
ATOM     14  C   UNL     1       1.766   5.730  20.725  0.00  0.00    +0.000 A 
ATOM     15  C   UNL     1       1.408   6.844  19.970  0.00  0.00    +0.000 A 
ATOM     16  C   UNL     1       2.242   7.287  18.941  0.00  0.00    +0.000 A 
ATOM     17  C   UNL     1       3.449   6.629  18.652  0.00  0.00    +0.000 A 
ATOM     18  C   UNL     1       4.284   7.134  17.509  0.00  0.00    +0.000 C 
ENDBRANCH   9  12
ENDBRANCH   8   9
BRANCH   1  19
ATOM     19  O   UNL     1       3.985   2.819  17.307  0.00  0.00    +0.000 OA
BRANCH  19  20
ATOM     20  C   UNL     1       2.647   3.264  16.995  0.00  0.00    +0.000 C 
BRANCH  20  22
ATOM     21  C   UNL     1       0.901   2.384  19.032  0.00  0.00    +0.000 C 
ATOM     22  C   UNL     1       1.708   2.791  18.092  0.00  0.00    +0.000 C 
ENDBRANCH  20  22
ENDBRANCH  19  20
ENDBRANCH   1  19
TORSDOF 5
ENDMDL
MODEL 9
REMARK VINA RESULT:      -6.7      1.646      2.323
REMARK  Name = 
REMARK  8 active torsions:
REMARK  status: ('A' for Active; 'I' for Inactive)
REMARK    1  A    between atoms: C_2  and  C_3
REMARK    2  A    between atoms: C_3  and  O_4
REMARK    3  A    between atoms: O_4  and  C_5
REMARK    4  A    between atoms: C_7  and  C_8
REMARK    5  A    between atoms: C_10  and  C_11
REMARK    6  A    between atoms: C_12  and  S_13
REMARK    7  A    between atoms: S_13  and  C_16
REMARK    8  A    between atoms: C_21  and  C_22
REMARK                            x       y       z     vdW  Elec       q    Type
REMARK                         _______ _______ _______ _____ _____    ______ ____
ROOT
ATOM      1  C   UNL     1       5.683   5.988  16.690  0.00  0.00    +0.000 A 
ATOM      2  N   UNL     1       6.251   5.624  15.508  0.00  0.00    +0.000 NA
ATOM      3  C   UNL     1       5.788   4.521  14.887  0.00  0.00    +0.000 A 
ATOM      4  C   UNL     1       6.464   4.101  13.618  0.00  0.00    +0.000 C 
ATOM      5  C   UNL     1       4.722   3.790  15.379  0.00  0.00    +0.000 A 
ATOM      6  C   UNL     1       4.078   4.193  16.555  0.00  0.00    +0.000 A 
ATOM      7  C   UNL     1       2.890   3.362  16.971  0.00  0.00    +0.000 C 
ATOM      8  C   UNL     1       4.593   5.307  17.243  0.00  0.00    +0.000 A 
ENDROOT
BRANCH   8   9
ATOM      9  S   UNL     1       3.991   5.802  18.840  0.00  0.00    +0.000 S 
ATOM     10  O   UNL     1       5.141   5.898  19.735  0.00  0.00    +0.000 OA
ATOM     11  O   UNL     1       3.171   6.982  18.646  0.00  0.00    +0.000 OA
BRANCH   9  12
ATOM     12  C   UNL     1       2.958   4.554  19.593  0.00  0.00    +0.000 A 
ATOM     13  C   UNL     1       1.589   4.806  19.750  0.00  0.00    +0.000 A 
ATOM     14  C   UNL     1       0.752   3.812  20.258  0.00  0.00    +0.000 A 
ATOM     15  C   UNL     1       1.272   2.565  20.597  0.00  0.00    +0.000 A 
ATOM     16  C   UNL     1       2.637   2.313  20.444  0.00  0.00    +0.000 A 
ATOM     17  C   UNL     1       3.505   3.298  19.947  0.00  0.00    +0.000 A 
ATOM     18  C   UNL     1       4.969   2.975  19.841  0.00  0.00    +0.000 C 
ENDBRANCH   9  12
ENDBRANCH   8   9
BRANCH   1  19
ATOM     19  O   UNL     1       6.194   7.131  17.262  0.00  0.00    +0.000 OA
BRANCH  19  20
ATOM     20  C   UNL     1       7.620   7.057  17.475  0.00  0.00    +0.000 C 
BRANCH  20  22
ATOM     21  C   UNL     1       8.551   9.603  18.268  0.00  0.00    +0.000 C 
ATOM     22  C   UNL     1       8.122   8.427  17.901  0.00  0.00    +0.000 C 
ENDBRANCH  20  22
ENDBRANCH  19  20
ENDBRANCH   1  19
TORSDOF 5
ENDMDL
