MODEL 1
REMARK VINA RESULT:      -8.4      0.000      0.000
REMARK  Name = 
REMARK  9 active torsions:
REMARK  status: ('A' for Active; 'I' for Inactive)
REMARK    1  A    between atoms: C_1  and  N_2
REMARK    2  A    between atoms: N_2  and  C_3
REMARK    3  A    between atoms: C_4  and  O_6
REMARK    4  A    between atoms: O_6  and  C_7
REMARK    5  A    between atoms: C_10  and  N_11
REMARK    6  A    between atoms: C_16  and  C_17
REMARK    7  A    between atoms: N_19  and  C_20
REMARK    8  A    between atoms: C_23  and  C_24
REMARK    9  A    between atoms: C_24  and  N_25
REMARK                            x       y       z     vdW  Elec       q    Type
REMARK                         _______ _______ _______ _____ _____    ______ ____
ROOT
ATOM      1  C   UNL     1       2.616   5.023  18.163  0.00  0.00    +0.000 A 
ATOM      2  C   UNL     1       3.255   3.947  17.516  0.00  0.00    +0.000 A 
ATOM      3  C   UNL     1       4.363   4.149  16.680  0.00  0.00    +0.000 A 
ATOM      4  C   UNL     1       4.847   5.431  16.445  0.00  0.00    +0.000 A 
ATOM      5  C   UNL     1       4.195   6.489  17.093  0.00  0.00    +0.000 A 
ATOM      6  C   UNL     1       3.073   6.322  17.937  0.00  0.00    +0.000 A 
ENDROOT
BRANCH   4   7
ATOM      7  N   UNL     1       5.964   5.749  15.652  0.00  0.00    +0.000 N 
ATOM      8  C   UNL     1       7.196   5.192  15.596  0.00  0.00    +0.000 C 
ATOM      9  N   UNL     1       7.818   4.469  16.459  0.00  0.00    +0.000 NA
ATOM     10  N   UNL     1       7.864   5.528  14.470  0.00  0.00    +0.000 N 
ATOM     11  H   UNL     1       5.711   6.281  14.830  0.00  0.00    +0.000 HD
ATOM     12  H   UNL     1       7.232   4.375  17.292  0.00  0.00    +0.000 HD
ATOM     13  H   UNL     1       7.885   6.523  14.296  0.00  0.00    +0.000 HD
ATOM     14  H   UNL     1       8.818   5.182  14.549  0.00  0.00    +0.000 HD
ENDBRANCH   4   7
BRANCH   6  15
ATOM     15  C   UNL     1       2.499   7.602  18.449  0.00  0.00    +0.000 C 
ATOM     16  O   UNL     1       2.579   8.579  17.698  0.00  0.00    +0.000 OA
ATOM     17  N   UNL     1       1.941   7.653  19.714  0.00  0.00    +0.000 N 
ATOM     18  H   UNL     1       2.087   6.864  20.330  0.00  0.00    +0.000 HD
BRANCH  17  19
ATOM     19  C   UNL     1       1.310   8.804  20.252  0.00  0.00    +0.000 A 
ATOM     20  C   UNL     1       0.949   9.906  19.466  0.00  0.00    +0.000 A 
ATOM     21  C   UNL     1       0.343  11.032  20.024  0.00  0.00    +0.000 A 
ATOM     22  C   UNL     1       0.065  11.080  21.390  0.00  0.00    +0.000 A 
ATOM     23  C   UNL     1       0.424   9.980  22.184  0.00  0.00    +0.000 A 
ATOM     24  C   UNL     1       1.027   8.845  21.618  0.00  0.00    +0.000 A 
BRANCH  22  25
ATOM     25  C   UNL     1      -0.622  12.289  21.971  0.00  0.00    +0.000 C 
BRANCH  25  26
ATOM     26  N   UNL     1      -1.201  11.989  23.276  0.00  0.00    +0.000 NA
ATOM     27  H   UNL     1      -2.077  11.487  23.132  0.00  0.00    +0.000 HD
ATOM     28  H   UNL     1      -1.446  12.863  23.736  0.00  0.00    +0.000 HD
ENDBRANCH  25  26
ENDBRANCH  22  25
ENDBRANCH  17  19
ENDBRANCH   6  15
BRANCH   1  29
ATOM     29  O   UNL     1       1.443   4.771  18.910  0.00  0.00    +0.000 OA
BRANCH  29  33
ATOM     30  C   UNL     1       1.551   2.444  21.723  0.00  0.00    +0.000 C 
ATOM     31  N   UNL     1       1.121   3.080  20.490  0.00  0.00    +0.000 N 
ATOM     32  C   UNL     1       0.669   2.228  19.408  0.00  0.00    +0.000 C 
ATOM     33  C   UNL     1       1.614   4.360  20.241  0.00  0.00    +0.000 C 
ATOM     34  O   UNL     1       2.181   5.038  21.093  0.00  0.00    +0.000 OA
ENDBRANCH  29  33
ENDBRANCH   1  29
TORSDOF 7
ENDMDL
MODEL 2
REMARK VINA RESULT:      -8.3      1.775      1.837
REMARK  Name = 
REMARK  9 active torsions:
REMARK  status: ('A' for Active; 'I' for Inactive)
REMARK    1  A    between atoms: C_1  and  N_2
REMARK    2  A    between atoms: N_2  and  C_3
REMARK    3  A    between atoms: C_4  and  O_6
REMARK    4  A    between atoms: O_6  and  C_7
REMARK    5  A    between atoms: C_10  and  N_11
REMARK    6  A    between atoms: C_16  and  C_17
REMARK    7  A    between atoms: N_19  and  C_20
REMARK    8  A    between atoms: C_23  and  C_24
REMARK    9  A    between atoms: C_24  and  N_25
REMARK                            x       y       z     vdW  Elec       q    Type
REMARK                         _______ _______ _______ _____ _____    ______ ____
ROOT
ATOM      1  C   UNL     1       2.548   5.041  18.221  0.00  0.00    +0.000 A 
ATOM      2  C   UNL     1       3.189   3.963  17.581  0.00  0.00    +0.000 A 
ATOM      3  C   UNL     1       4.300   4.163  16.747  0.00  0.00    +0.000 A 
ATOM      4  C   UNL     1       4.784   5.445  16.509  0.00  0.00    +0.000 A 
ATOM      5  C   UNL     1       4.129   6.505  17.150  0.00  0.00    +0.000 A 
ATOM      6  C   UNL     1       3.004   6.340  17.991  0.00  0.00    +0.000 A 
ENDROOT
BRANCH   4   7
ATOM      7  N   UNL     1       5.903   5.759  15.718  0.00  0.00    +0.000 N 
ATOM      8  C   UNL     1       7.139   5.211  15.676  0.00  0.00    +0.000 C 
ATOM      9  N   UNL     1       7.761   4.504  16.553  0.00  0.00    +0.000 NA
ATOM     10  N   UNL     1       7.811   5.537  14.550  0.00  0.00    +0.000 N 
ATOM     11  H   UNL     1       5.651   6.279  14.887  0.00  0.00    +0.000 HD
ATOM     12  H   UNL     1       7.171   4.416  17.383  0.00  0.00    +0.000 HD
ATOM     13  H   UNL     1       7.826   6.529  14.363  0.00  0.00    +0.000 HD
ATOM     14  H   UNL     1       8.767   5.199  14.639  0.00  0.00    +0.000 HD
ENDBRANCH   4   7
BRANCH   6  15
ATOM     15  C   UNL     1       2.428   7.622  18.496  0.00  0.00    +0.000 C 
ATOM     16  O   UNL     1       2.425   7.779  19.720  0.00  0.00    +0.000 OA
ATOM     17  N   UNL     1       1.911   8.546  17.605  0.00  0.00    +0.000 N 
ATOM     18  H   UNL     1       1.780   8.259  16.645  0.00  0.00    +0.000 HD
BRANCH  17  19
ATOM     19  C   UNL     1       1.411   9.818  17.990  0.00  0.00    +0.000 A 
ATOM     20  C   UNL     1       2.239  10.931  18.178  0.00  0.00    +0.000 A 
ATOM     21  C   UNL     1       1.722  12.166  18.571  0.00  0.00    +0.000 A 
ATOM     22  C   UNL     1       0.351  12.326  18.772  0.00  0.00    +0.000 A 
ATOM     23  C   UNL     1      -0.485  11.214  18.586  0.00  0.00    +0.000 A 
ATOM     24  C   UNL     1       0.037   9.974  18.183  0.00  0.00    +0.000 A 
BRANCH  22  25
ATOM     25  C   UNL     1      -0.195  13.674  19.162  0.00  0.00    +0.000 C 
BRANCH  25  26
ATOM     26  N   UNL     1      -1.622  13.599  19.459  0.00  0.00    +0.000 NA
ATOM     27  H   UNL     1      -1.737  13.169  20.376  0.00  0.00    +0.000 HD
ATOM     28  H   UNL     1      -2.064  12.970  18.792  0.00  0.00    +0.000 HD
ENDBRANCH  25  26
ENDBRANCH  22  25
ENDBRANCH  17  19
ENDBRANCH   6  15
BRANCH   1  29
ATOM     29  O   UNL     1       1.372   4.793  18.966  0.00  0.00    +0.000 OA
BRANCH  29  33
ATOM     30  C   UNL     1       1.499   2.439  21.756  0.00  0.00    +0.000 C 
ATOM     31  N   UNL     1       1.068   3.080  20.526  0.00  0.00    +0.000 N 
ATOM     32  C   UNL     1       0.641   2.231  19.431  0.00  0.00    +0.000 C 
ATOM     33  C   UNL     1       1.540   4.371  20.294  0.00  0.00    +0.000 C 
ATOM     34  O   UNL     1       2.086   5.051  21.157  0.00  0.00    +0.000 OA
ENDBRANCH  29  33
ENDBRANCH   1  29
TORSDOF 7
ENDMDL
MODEL 3
REMARK VINA RESULT:      -8.1      0.878      1.327
REMARK  Name = 
REMARK  9 active torsions:
REMARK  status: ('A' for Active; 'I' for Inactive)
REMARK    1  A    between atoms: C_1  and  N_2
REMARK    2  A    between atoms: N_2  and  C_3
REMARK    3  A    between atoms: C_4  and  O_6
REMARK    4  A    between atoms: O_6  and  C_7
REMARK    5  A    between atoms: C_10  and  N_11
REMARK    6  A    between atoms: C_16  and  C_17
REMARK    7  A    between atoms: N_19  and  C_20
REMARK    8  A    between atoms: C_23  and  C_24
REMARK    9  A    between atoms: C_24  and  N_25
REMARK                            x       y       z     vdW  Elec       q    Type
REMARK                         _______ _______ _______ _____ _____    ______ ____
ROOT
ATOM      1  C   UNL     1       2.864   4.852  18.020  0.00  0.00    +0.000 A 
ATOM      2  C   UNL     1       3.508   3.712  17.503  0.00  0.00    +0.000 A 
ATOM      3  C   UNL     1       4.680   3.817  16.739  0.00  0.00    +0.000 A 
ATOM      4  C   UNL     1       5.224   5.063  16.446  0.00  0.00    +0.000 A 
ATOM      5  C   UNL     1       4.565   6.186  16.964  0.00  0.00    +0.000 A 
ATOM      6  C   UNL     1       3.380   6.117  17.733  0.00  0.00    +0.000 A 
ENDROOT
BRANCH   4   7
ATOM      7  N   UNL     1       6.404   5.285  15.716  0.00  0.00    +0.000 N 
ATOM      8  C   UNL     1       6.816   4.789  14.526  0.00  0.00    +0.000 C 
ATOM      9  N   UNL     1       6.437   3.734  13.893  0.00  0.00    +0.000 NA
ATOM     10  N   UNL     1       7.825   5.508  13.987  0.00  0.00    +0.000 N 
ATOM     11  H   UNL     1       6.871   6.139  15.993  0.00  0.00    +0.000 HD
ATOM     12  H   UNL     1       5.741   3.244  14.459  0.00  0.00    +0.000 HD
ATOM     13  H   UNL     1       8.593   5.663  14.623  0.00  0.00    +0.000 HD
ATOM     14  H   UNL     1       8.165   5.015  13.164  0.00  0.00    +0.000 HD
ENDBRANCH   4   7
BRANCH   6  15
ATOM     15  C   UNL     1       2.817   7.448  18.105  0.00  0.00    +0.000 C 
ATOM     16  O   UNL     1       3.053   8.381  17.332  0.00  0.00    +0.000 OA
ATOM     17  N   UNL     1       2.096   7.592  19.278  0.00  0.00    +0.000 N 
ATOM     18  H   UNL     1       2.113   6.829  19.942  0.00  0.00    +0.000 HD
BRANCH  17  19
ATOM     19  C   UNL     1       1.465   8.800  19.674  0.00  0.00    +0.000 A 
ATOM     20  C   UNL     1       1.267   9.146  21.016  0.00  0.00    +0.000 A 
ATOM     21  C   UNL     1       0.630  10.334  21.376  0.00  0.00    +0.000 A 
ATOM     22  C   UNL     1       0.185  11.221  20.396  0.00  0.00    +0.000 A 
ATOM     23  C   UNL     1       0.379  10.881  19.049  0.00  0.00    +0.000 A 
ATOM     24  C   UNL     1       1.028   9.688  18.689  0.00  0.00    +0.000 A 
BRANCH  22  25
ATOM     25  C   UNL     1      -0.470  12.516  20.802  0.00  0.00    +0.000 C 
BRANCH  25  26
ATOM     26  N   UNL     1       0.316  13.208  21.819  0.00  0.00    +0.000 NA
ATOM     27  H   UNL     1       0.186  12.725  22.708  0.00  0.00    +0.000 HD
ATOM     28  H   UNL     1      -0.062  14.144  21.945  0.00  0.00    +0.000 HD
ENDBRANCH  25  26
ENDBRANCH  22  25
ENDBRANCH  17  19
ENDBRANCH   6  15
BRANCH   1  29
ATOM     29  O   UNL     1       1.632   4.694  18.696  0.00  0.00    +0.000 OA
BRANCH  29  33
ATOM     30  C   UNL     1       1.437   2.526  21.629  0.00  0.00    +0.000 C 
ATOM     31  N   UNL     1       1.122   3.111  20.338  0.00  0.00    +0.000 N 
ATOM     32  C   UNL     1       0.702   2.221  19.273  0.00  0.00    +0.000 C 
ATOM     33  C   UNL     1       1.694   4.351  20.056  0.00  0.00    +0.000 C 
ATOM     34  O   UNL     1       2.235   5.049  20.907  0.00  0.00    +0.000 OA
ENDBRANCH  29  33
ENDBRANCH   1  29
TORSDOF 7
ENDMDL
MODEL 4
REMARK VINA RESULT:      -8.1      1.892      2.123
REMARK  Name = 
REMARK  9 active torsions:
REMARK  status: ('A' for Active; 'I' for Inactive)
REMARK    1  A    between atoms: C_1  and  N_2
REMARK    2  A    between atoms: N_2  and  C_3
REMARK    3  A    between atoms: C_4  and  O_6
REMARK    4  A    between atoms: O_6  and  C_7
REMARK    5  A    between atoms: C_10  and  N_11
REMARK    6  A    between atoms: C_16  and  C_17
REMARK    7  A    between atoms: N_19  and  C_20
REMARK    8  A    between atoms: C_23  and  C_24
REMARK    9  A    between atoms: C_24  and  N_25
REMARK                            x       y       z     vdW  Elec       q    Type
REMARK                         _______ _______ _______ _____ _____    ______ ____
ROOT
ATOM      1  C   UNL     1       2.502   4.936  18.070  0.00  0.00    +0.000 A 
ATOM      2  C   UNL     1       3.126   3.883  17.374  0.00  0.00    +0.000 A 
ATOM      3  C   UNL     1       4.252   4.106  16.567  0.00  0.00    +0.000 A 
ATOM      4  C   UNL     1       4.768   5.387  16.411  0.00  0.00    +0.000 A 
ATOM      5  C   UNL     1       4.130   6.423  17.107  0.00  0.00    +0.000 A 
ATOM      6  C   UNL     1       2.991   6.235  17.924  0.00  0.00    +0.000 A 
ENDROOT
BRANCH   4   7
ATOM      7  N   UNL     1       5.904   5.722  15.653  0.00  0.00    +0.000 N 
ATOM      8  C   UNL     1       7.144   5.180  15.631  0.00  0.00    +0.000 C 
ATOM      9  N   UNL     1       7.748   4.459  16.509  0.00  0.00    +0.000 NA
ATOM     10  N   UNL     1       7.841   5.530  14.527  0.00  0.00    +0.000 N 
ATOM     11  H   UNL     1       5.669   6.256  14.827  0.00  0.00    +0.000 HD
ATOM     12  H   UNL     1       7.139   4.353  17.323  0.00  0.00    +0.000 HD
ATOM     13  H   UNL     1       7.855   6.526  14.359  0.00  0.00    +0.000 HD
ATOM     14  H   UNL     1       8.796   5.195  14.633  0.00  0.00    +0.000 HD
ENDBRANCH   4   7
BRANCH   6  15
ATOM     15  C   UNL     1       2.438   7.498  18.497  0.00  0.00    +0.000 C 
ATOM     16  O   UNL     1       2.417   7.579  19.729  0.00  0.00    +0.000 OA
ATOM     17  N   UNL     1       1.960   8.488  17.657  0.00  0.00    +0.000 N 
ATOM     18  H   UNL     1       1.839   8.264  16.679  0.00  0.00    +0.000 HD
BRANCH  17  19
ATOM     19  C   UNL     1       1.485   9.746  18.112  0.00  0.00    +0.000 A 
ATOM     20  C   UNL     1       2.303  10.880  18.191  0.00  0.00    +0.000 A 
ATOM     21  C   UNL     1       1.813  12.101  18.656  0.00  0.00    +0.000 A 
ATOM     22  C   UNL     1       0.479  12.226  19.042  0.00  0.00    +0.000 A 
ATOM     23  C   UNL     1      -0.347  11.093  18.966  0.00  0.00    +0.000 A 
ATOM     24  C   UNL     1       0.146   9.867  18.490  0.00  0.00    +0.000 A 
BRANCH  22  25
ATOM     25  C   UNL     1      -0.044  13.559  19.508  0.00  0.00    +0.000 C 
BRANCH  25  26
ATOM     26  N   UNL     1      -0.634  14.310  18.404  0.00  0.00    +0.000 NA
ATOM     27  H   UNL     1       0.103  14.529  17.734  0.00  0.00    +0.000 HD
ATOM     28  H   UNL     1      -0.973  15.202  18.757  0.00  0.00    +0.000 HD
ENDBRANCH  25  26
ENDBRANCH  22  25
ENDBRANCH  17  19
ENDBRANCH   6  15
BRANCH   1  29
ATOM     29  O   UNL     1       1.311   4.671  18.785  0.00  0.00    +0.000 OA
BRANCH  29  33
ATOM     30  C   UNL     1       1.510   2.385  21.626  0.00  0.00    +0.000 C 
ATOM     31  N   UNL     1       1.831   3.478  20.726  0.00  0.00    +0.000 N 
ATOM     32  C   UNL     1       2.284   4.727  21.308  0.00  0.00    +0.000 C 
ATOM     33  C   UNL     1       1.238   3.445  19.464  0.00  0.00    +0.000 C 
ATOM     34  O   UNL     1       0.671   2.454  19.016  0.00  0.00    +0.000 OA
ENDBRANCH  29  33
ENDBRANCH   1  29
TORSDOF 7
ENDMDL
MODEL 5
REMARK VINA RESULT:      -8.0      0.619      1.024
REMARK  Name = 
REMARK  9 active torsions:
REMARK  status: ('A' for Active; 'I' for Inactive)
REMARK    1  A    between atoms: C_1  and  N_2
REMARK    2  A    between atoms: N_2  and  C_3
REMARK    3  A    between atoms: C_4  and  O_6
REMARK    4  A    between atoms: O_6  and  C_7
REMARK    5  A    between atoms: C_10  and  N_11
REMARK    6  A    between atoms: C_16  and  C_17
REMARK    7  A    between atoms: N_19  and  C_20
REMARK    8  A    between atoms: C_23  and  C_24
REMARK    9  A    between atoms: C_24  and  N_25
REMARK                            x       y       z     vdW  Elec       q    Type
REMARK                         _______ _______ _______ _____ _____    ______ ____
ROOT
ATOM      1  C   UNL     1       2.572   4.964  18.117  0.00  0.00    +0.000 A 
ATOM      2  C   UNL     1       3.177   3.895  17.428  0.00  0.00    +0.000 A 
ATOM      3  C   UNL     1       4.287   4.097  16.595  0.00  0.00    +0.000 A 
ATOM      4  C   UNL     1       4.807   5.373  16.406  0.00  0.00    +0.000 A 
ATOM      5  C   UNL     1       4.188   6.424  17.095  0.00  0.00    +0.000 A 
ATOM      6  C   UNL     1       3.065   6.258  17.938  0.00  0.00    +0.000 A 
ENDROOT
BRANCH   4   7
ATOM      7  N   UNL     1       5.929   5.687  15.619  0.00  0.00    +0.000 N 
ATOM      8  C   UNL     1       7.173   5.155  15.600  0.00  0.00    +0.000 C 
ATOM      9  N   UNL     1       7.796   4.474  16.496  0.00  0.00    +0.000 NA
ATOM     10  N   UNL     1       7.852   5.468  14.473  0.00  0.00    +0.000 N 
ATOM     11  H   UNL     1       5.678   6.187  14.776  0.00  0.00    +0.000 HD
ATOM     12  H   UNL     1       7.199   4.394  17.322  0.00  0.00    +0.000 HD
ATOM     13  H   UNL     1       7.855   6.457  14.267  0.00  0.00    +0.000 HD
ATOM     14  H   UNL     1       8.811   5.145  14.578  0.00  0.00    +0.000 HD
ENDBRANCH   4   7
BRANCH   6  15
ATOM     15  C   UNL     1       2.530   7.533  18.499  0.00  0.00    +0.000 C 
ATOM     16  O   UNL     1       2.747   8.557  17.844  0.00  0.00    +0.000 OA
ATOM     17  N   UNL     1       1.855   7.528  19.708  0.00  0.00    +0.000 N 
ATOM     18  H   UNL     1       1.887   6.686  20.266  0.00  0.00    +0.000 HD
BRANCH  17  19
ATOM     19  C   UNL     1       1.252   8.679  20.279  0.00  0.00    +0.000 A 
ATOM     20  C   UNL     1       0.820   9.767  19.510  0.00  0.00    +0.000 A 
ATOM     21  C   UNL     1       0.243  10.893  20.100  0.00  0.00    +0.000 A 
ATOM     22  C   UNL     1       0.068  10.954  21.482  0.00  0.00    +0.000 A 
ATOM     23  C   UNL     1       0.499   9.867  22.259  0.00  0.00    +0.000 A 
ATOM     24  C   UNL     1       1.071   8.732  21.662  0.00  0.00    +0.000 A 
BRANCH  22  25
ATOM     25  C   UNL     1      -0.588  12.161  22.100  0.00  0.00    +0.000 C 
BRANCH  25  26
ATOM     26  N   UNL     1      -1.229  11.822  23.367  0.00  0.00    +0.000 NA
ATOM     27  H   UNL     1      -1.477  12.689  23.843  0.00  0.00    +0.000 HD
ATOM     28  H   UNL     1      -0.551  11.354  23.964  0.00  0.00    +0.000 HD
ENDBRANCH  25  26
ENDBRANCH  22  25
ENDBRANCH  17  19
ENDBRANCH   6  15
BRANCH   1  29
ATOM     29  O   UNL     1       1.395   4.719  18.861  0.00  0.00    +0.000 OA
BRANCH  29  33
ATOM     30  C   UNL     1       1.580   2.365  21.648  0.00  0.00    +0.000 C 
ATOM     31  N   UNL     1       1.913   3.471  20.767  0.00  0.00    +0.000 N 
ATOM     32  C   UNL     1       2.403   4.696  21.370  0.00  0.00    +0.000 C 
ATOM     33  C   UNL     1       1.303   3.480  19.514  0.00  0.00    +0.000 C 
ATOM     34  O   UNL     1       0.707   2.512  19.052  0.00  0.00    +0.000 OA
ENDBRANCH  29  33
ENDBRANCH   1  29
TORSDOF 7
ENDMDL
MODEL 6
REMARK VINA RESULT:      -7.9      1.589      2.193
REMARK  Name = 
REMARK  9 active torsions:
REMARK  status: ('A' for Active; 'I' for Inactive)
REMARK    1  A    between atoms: C_1  and  N_2
REMARK    2  A    between atoms: N_2  and  C_3
REMARK    3  A    between atoms: C_4  and  O_6
REMARK    4  A    between atoms: O_6  and  C_7
REMARK    5  A    between atoms: C_10  and  N_11
REMARK    6  A    between atoms: C_16  and  C_17
REMARK    7  A    between atoms: N_19  and  C_20
REMARK    8  A    between atoms: C_23  and  C_24
REMARK    9  A    between atoms: C_24  and  N_25
REMARK                            x       y       z     vdW  Elec       q    Type
REMARK                         _______ _______ _______ _____ _____    ______ ____
ROOT
ATOM      1  C   UNL     1       4.351   4.240  17.181  0.00  0.00    +0.000 A 
ATOM      2  C   UNL     1       5.016   3.247  16.436  0.00  0.00    +0.000 A 
ATOM      3  C   UNL     1       6.070   3.567  15.567  0.00  0.00    +0.000 A 
ATOM      4  C   UNL     1       6.470   4.887  15.397  0.00  0.00    +0.000 A 
ATOM      5  C   UNL     1       5.793   5.862  16.142  0.00  0.00    +0.000 A 
ATOM      6  C   UNL     1       4.724   5.576  17.022  0.00  0.00    +0.000 A 
ENDROOT
BRANCH   4   7
ATOM      7  N   UNL     1       7.528   5.320  14.577  0.00  0.00    +0.000 N 
ATOM      8  C   UNL     1       7.727   5.187  13.245  0.00  0.00    +0.000 C 
ATOM      9  N   UNL     1       7.213   4.353  12.411  0.00  0.00    +0.000 NA
ATOM     10  N   UNL     1       8.665   6.039  12.775  0.00  0.00    +0.000 N 
ATOM     11  H   UNL     1       8.065   6.063  15.005  0.00  0.00    +0.000 HD
ATOM     12  H   UNL     1       6.597   3.716  12.920  0.00  0.00    +0.000 HD
ATOM     13  H   UNL     1       9.529   6.012  13.295  0.00  0.00    +0.000 HD
ATOM     14  H   UNL     1       8.851   5.804  11.803  0.00  0.00    +0.000 HD
ENDBRANCH   4   7
BRANCH   6  15
ATOM     15  C   UNL     1       4.106   6.785  17.643  0.00  0.00    +0.000 C 
ATOM     16  O   UNL     1       4.810   7.797  17.694  0.00  0.00    +0.000 OA
ATOM     17  N   UNL     1       2.818   6.722  18.148  0.00  0.00    +0.000 N 
ATOM     18  H   UNL     1       2.387   5.812  18.238  0.00  0.00    +0.000 HD
BRANCH  17  19
ATOM     19  C   UNL     1       2.128   7.838  18.688  0.00  0.00    +0.000 A 
ATOM     20  C   UNL     1       1.709   8.919  17.905  0.00  0.00    +0.000 A 
ATOM     21  C   UNL     1       1.044  10.011  18.465  0.00  0.00    +0.000 A 
ATOM     22  C   UNL     1       0.766  10.043  19.832  0.00  0.00    +0.000 A 
ATOM     23  C   UNL     1       1.184   8.962  20.624  0.00  0.00    +0.000 A 
ATOM     24  C   UNL     1       1.845   7.861  20.055  0.00  0.00    +0.000 A 
BRANCH  22  25
ATOM     25  C   UNL     1       0.017  11.212  20.416  0.00  0.00    +0.000 C 
BRANCH  25  26
ATOM     26  N   UNL     1       0.301  11.362  21.840  0.00  0.00    +0.000 NA
ATOM     27  H   UNL     1       0.509  12.343  22.024  0.00  0.00    +0.000 HD
ATOM     28  H   UNL     1       1.148  10.844  22.062  0.00  0.00    +0.000 HD
ENDBRANCH  25  26
ENDBRANCH  22  25
ENDBRANCH  17  19
ENDBRANCH   6  15
BRANCH   1  29
ATOM     29  O   UNL     1       3.232   3.873  17.962  0.00  0.00    +0.000 OA
BRANCH  29  33
ATOM     30  C   UNL     1       2.435   2.775  21.352  0.00  0.00    +0.000 C 
ATOM     31  N   UNL     1       2.360   3.502  20.098  0.00  0.00    +0.000 N 
ATOM     32  C   UNL     1       1.046   3.783  19.553  0.00  0.00    +0.000 C 
ATOM     33  C   UNL     1       3.485   3.450  19.275  0.00  0.00    +0.000 C 
ATOM     34  O   UNL     1       4.574   3.031  19.655  0.00  0.00    +0.000 OA
ENDBRANCH  29  33
ENDBRANCH   1  29
TORSDOF 7
ENDMDL
MODEL 7
REMARK VINA RESULT:      -7.9      1.147      1.191
REMARK  Name = 
REMARK  9 active torsions:
REMARK  status: ('A' for Active; 'I' for Inactive)
REMARK    1  A    between atoms: C_1  and  N_2
REMARK    2  A    between atoms: N_2  and  C_3
REMARK    3  A    between atoms: C_4  and  O_6
REMARK    4  A    between atoms: O_6  and  C_7
REMARK    5  A    between atoms: C_10  and  N_11
REMARK    6  A    between atoms: C_16  and  C_17
REMARK    7  A    between atoms: N_19  and  C_20
REMARK    8  A    between atoms: C_23  and  C_24
REMARK    9  A    between atoms: C_24  and  N_25
REMARK                            x       y       z     vdW  Elec       q    Type
REMARK                         _______ _______ _______ _____ _____    ______ ____
ROOT
ATOM      1  C   UNL     1       2.722   5.463  18.433  0.00  0.00    +0.000 A 
ATOM      2  C   UNL     1       3.473   4.333  18.056  0.00  0.00    +0.000 A 
ATOM      3  C   UNL     1       4.574   4.441  17.193  0.00  0.00    +0.000 A 
ATOM      4  C   UNL     1       4.938   5.673  16.662  0.00  0.00    +0.000 A 
ATOM      5  C   UNL     1       4.175   6.785  17.044  0.00  0.00    +0.000 A 
ATOM      6  C   UNL     1       3.057   6.711  17.907  0.00  0.00    +0.000 A 
ENDROOT
BRANCH   4   7
ATOM      7  N   UNL     1       6.036   5.903  15.814  0.00  0.00    +0.000 N 
ATOM      8  C   UNL     1       7.205   5.235  15.679  0.00  0.00    +0.000 C 
ATOM      9  N   UNL     1       7.802   4.438  16.494  0.00  0.00    +0.000 NA
ATOM     10  N   UNL     1       7.840   5.533  14.524  0.00  0.00    +0.000 N 
ATOM     11  H   UNL     1       5.790   6.475  15.016  0.00  0.00    +0.000 HD
ATOM     12  H   UNL     1       7.255   4.380  17.356  0.00  0.00    +0.000 HD
ATOM     13  H   UNL     1       7.945   6.525  14.366  0.00  0.00    +0.000 HD
ATOM     14  H   UNL     1       8.760   5.098  14.543  0.00  0.00    +0.000 HD
ENDBRANCH   4   7
BRANCH   6  15
ATOM     15  C   UNL     1       2.353   8.013  18.104  0.00  0.00    +0.000 C 
ATOM     16  O   UNL     1       2.287   8.757  17.121  0.00  0.00    +0.000 OA
ATOM     17  N   UNL     1       1.840   8.341  19.347  0.00  0.00    +0.000 N 
ATOM     18  H   UNL     1       2.103   7.766  20.136  0.00  0.00    +0.000 HD
BRANCH  17  19
ATOM     19  C   UNL     1       1.096   9.521  19.607  0.00  0.00    +0.000 A 
ATOM     20  C   UNL     1       1.311  10.719  18.915  0.00  0.00    +0.000 A 
ATOM     21  C   UNL     1       0.574  11.869  19.201  0.00  0.00    +0.000 A 
ATOM     22  C   UNL     1      -0.416  11.846  20.183  0.00  0.00    +0.000 A 
ATOM     23  C   UNL     1      -0.637  10.649  20.882  0.00  0.00    +0.000 A 
ATOM     24  C   UNL     1       0.101   9.491  20.586  0.00  0.00    +0.000 A 
BRANCH  22  25
ATOM     25  C   UNL     1      -1.227  13.086  20.456  0.00  0.00    +0.000 C 
BRANCH  25  26
ATOM     26  N   UNL     1      -1.099  14.050  19.367  0.00  0.00    +0.000 NA
ATOM     27  H   UNL     1      -0.244  14.587  19.513  0.00  0.00    +0.000 HD
ATOM     28  H   UNL     1      -1.867  14.715  19.425  0.00  0.00    +0.000 HD
ENDBRANCH  25  26
ENDBRANCH  22  25
ENDBRANCH  17  19
ENDBRANCH   6  15
BRANCH   1  29
ATOM     29  O   UNL     1       1.563   5.281  19.222  0.00  0.00    +0.000 OA
BRANCH  29  33
ATOM     30  C   UNL     1       1.552   2.564  21.663  0.00  0.00    +0.000 C 
ATOM     31  N   UNL     1       1.143   3.407  20.554  0.00  0.00    +0.000 N 
ATOM     32  C   UNL     1       0.591   2.762  19.378  0.00  0.00    +0.000 C 
ATOM     33  C   UNL     1       1.736   4.667  20.472  0.00  0.00    +0.000 C 
ATOM     34  O   UNL     1       2.381   5.165  21.389  0.00  0.00    +0.000 OA
ENDBRANCH  29  33
ENDBRANCH   1  29
TORSDOF 7
ENDMDL
MODEL 8
REMARK VINA RESULT:      -7.6      1.712      2.067
REMARK  Name = 
REMARK  9 active torsions:
REMARK  status: ('A' for Active; 'I' for Inactive)
REMARK    1  A    between atoms: C_1  and  N_2
REMARK    2  A    between atoms: N_2  and  C_3
REMARK    3  A    between atoms: C_4  and  O_6
REMARK    4  A    between atoms: O_6  and  C_7
REMARK    5  A    between atoms: C_10  and  N_11
REMARK    6  A    between atoms: C_16  and  C_17
REMARK    7  A    between atoms: N_19  and  C_20
REMARK    8  A    between atoms: C_23  and  C_24
REMARK    9  A    between atoms: C_24  and  N_25
REMARK                            x       y       z     vdW  Elec       q    Type
REMARK                         _______ _______ _______ _____ _____    ______ ____
ROOT
ATOM      1  C   UNL     1       4.315   5.160  18.825  0.00  0.00    +0.000 A 
ATOM      2  C   UNL     1       5.256   4.133  18.620  0.00  0.00    +0.000 A 
ATOM      3  C   UNL     1       6.194   4.197  17.579  0.00  0.00    +0.000 A 
ATOM      4  C   UNL     1       6.202   5.273  16.699  0.00  0.00    +0.000 A 
ATOM      5  C   UNL     1       5.255   6.283  16.916  0.00  0.00    +0.000 A 
ATOM      6  C   UNL     1       4.292   6.248  17.951  0.00  0.00    +0.000 A 
ENDROOT
BRANCH   4   7
ATOM      7  N   UNL     1       7.110   5.456  15.642  0.00  0.00    +0.000 N 
ATOM      8  C   UNL     1       7.147   4.912  14.403  0.00  0.00    +0.000 C 
ATOM      9  N   UNL     1       6.596   3.839  13.953  0.00  0.00    +0.000 NA
ATOM     10  N   UNL     1       7.950   5.599  13.560  0.00  0.00    +0.000 N 
ATOM     11  H   UNL     1       7.639   6.313  15.734  0.00  0.00    +0.000 HD
ATOM     12  H   UNL     1       6.101   3.379  14.719  0.00  0.00    +0.000 HD
ATOM     13  H   UNL     1       8.873   5.768  13.932  0.00  0.00    +0.000 HD
ATOM     14  H   UNL     1       8.028   5.072  12.693  0.00  0.00    +0.000 HD
ENDBRANCH   4   7
BRANCH   6  15
ATOM     15  C   UNL     1       3.337   7.396  17.935  0.00  0.00    +0.000 C 
ATOM     16  O   UNL     1       3.369   8.123  16.938  0.00  0.00    +0.000 OA
ATOM     17  N   UNL     1       2.497   7.613  19.013  0.00  0.00    +0.000 N 
ATOM     18  H   UNL     1       2.667   7.089  19.861  0.00  0.00    +0.000 HD
BRANCH  17  19
ATOM     19  C   UNL     1       1.511   8.633  19.051  0.00  0.00    +0.000 A 
ATOM     20  C   UNL     1       1.029   9.264  17.898  0.00  0.00    +0.000 A 
ATOM     21  C   UNL     1       0.070  10.275  17.966  0.00  0.00    +0.000 A 
ATOM     22  C   UNL     1      -0.449  10.673  19.198  0.00  0.00    +0.000 A 
ATOM     23  C   UNL     1       0.029  10.046  20.359  0.00  0.00    +0.000 A 
ATOM     24  C   UNL     1       0.989   9.023  20.286  0.00  0.00    +0.000 A 
BRANCH  22  25
ATOM     25  C   UNL     1      -1.510  11.741  19.252  0.00  0.00    +0.000 C 
BRANCH  25  26
ATOM     26  N   UNL     1      -1.892  12.174  17.912  0.00  0.00    +0.000 NA
ATOM     27  H   UNL     1      -1.137  11.933  17.269  0.00  0.00    +0.000 HD
ATOM     28  H   UNL     1      -1.962  13.189  17.901  0.00  0.00    +0.000 HD
ENDBRANCH  25  26
ENDBRANCH  22  25
ENDBRANCH  17  19
ENDBRANCH   6  15
BRANCH   1  29
ATOM     29  O   UNL     1       3.329   4.995  19.825  0.00  0.00    +0.000 OA
BRANCH  29  33
ATOM     30  C   UNL     1       0.686   2.497  20.167  0.00  0.00    +0.000 C 
ATOM     31  N   UNL     1       1.999   3.115  20.223  0.00  0.00    +0.000 N 
ATOM     32  C   UNL     1       2.833   2.835  21.376  0.00  0.00    +0.000 C 
ATOM     33  C   UNL     1       2.179   4.273  19.468  0.00  0.00    +0.000 C 
ATOM     34  O   UNL     1       1.384   4.645  18.610  0.00  0.00    +0.000 OA
ENDBRANCH  29  33
ENDBRANCH   1  29
TORSDOF 7
ENDMDL
MODEL 9
REMARK VINA RESULT:      -7.6      1.767      2.056
REMARK  Name = 
REMARK  9 active torsions:
REMARK  status: ('A' for Active; 'I' for Inactive)
REMARK    1  A    between atoms: C_1  and  N_2
REMARK    2  A    between atoms: N_2  and  C_3
REMARK    3  A    between atoms: C_4  and  O_6
REMARK    4  A    between atoms: O_6  and  C_7
REMARK    5  A    between atoms: C_10  and  N_11
REMARK    6  A    between atoms: C_16  and  C_17
REMARK    7  A    between atoms: N_19  and  C_20
REMARK    8  A    between atoms: C_23  and  C_24
REMARK    9  A    between atoms: C_24  and  N_25
REMARK                            x       y       z     vdW  Elec       q    Type
REMARK                         _______ _______ _______ _____ _____    ______ ____
ROOT
ATOM      1  C   UNL     1       4.208   5.181  18.866  0.00  0.00    +0.000 A 
ATOM      2  C   UNL     1       5.144   4.147  18.668  0.00  0.00    +0.000 A 
ATOM      3  C   UNL     1       6.088   4.204  17.632  0.00  0.00    +0.000 A 
ATOM      4  C   UNL     1       6.107   5.278  16.750  0.00  0.00    +0.000 A 
ATOM      5  C   UNL     1       5.165   6.294  16.959  0.00  0.00    +0.000 A 
ATOM      6  C   UNL     1       4.196   6.267  17.989  0.00  0.00    +0.000 A 
ENDROOT
BRANCH   4   7
ATOM      7  N   UNL     1       7.023   5.453  15.698  0.00  0.00    +0.000 N 
ATOM      8  C   UNL     1       7.083   4.879  14.473  0.00  0.00    +0.000 C 
ATOM      9  N   UNL     1       6.558   3.786  14.044  0.00  0.00    +0.000 NA
ATOM     10  N   UNL     1       7.881   5.562  13.622  0.00  0.00    +0.000 N 
ATOM     11  H   UNL     1       7.533   6.323  15.774  0.00  0.00    +0.000 HD
ATOM     12  H   UNL     1       6.064   3.334  14.817  0.00  0.00    +0.000 HD
ATOM     13  H   UNL     1       8.797   5.758  13.998  0.00  0.00    +0.000 HD
ATOM     14  H   UNL     1       7.979   5.016  12.769  0.00  0.00    +0.000 HD
ENDBRANCH   4   7
BRANCH   6  15
ATOM     15  C   UNL     1       3.247   7.420  17.964  0.00  0.00    +0.000 C 
ATOM     16  O   UNL     1       3.280   8.136  16.959  0.00  0.00    +0.000 OA
ATOM     17  N   UNL     1       2.412   7.653  19.043  0.00  0.00    +0.000 N 
ATOM     18  H   UNL     1       2.583   7.137  19.896  0.00  0.00    +0.000 HD
BRANCH  17  19
ATOM     19  C   UNL     1       1.432   8.679  19.074  0.00  0.00    +0.000 A 
ATOM     20  C   UNL     1       0.842   9.196  17.915  0.00  0.00    +0.000 A 
ATOM     21  C   UNL     1      -0.109  10.216  17.975  0.00  0.00    +0.000 A 
ATOM     22  C   UNL     1      -0.509  10.738  19.205  0.00  0.00    +0.000 A 
ATOM     23  C   UNL     1       0.080  10.224  20.371  0.00  0.00    +0.000 A 
ATOM     24  C   UNL     1       1.031   9.193  20.309  0.00  0.00    +0.000 A 
BRANCH  22  25
ATOM     25  C   UNL     1      -1.562  11.814  19.254  0.00  0.00    +0.000 C 
BRANCH  25  26
ATOM     26  N   UNL     1      -1.657  12.517  17.979  0.00  0.00    +0.000 NA
ATOM     27  H   UNL     1      -1.575  13.518  18.157  0.00  0.00    +0.000 HD
ATOM     28  H   UNL     1      -2.586  12.372  17.592  0.00  0.00    +0.000 HD
ENDBRANCH  25  26
ENDBRANCH  22  25
ENDBRANCH  17  19
ENDBRANCH   6  15
BRANCH   1  29
ATOM     29  O   UNL     1       3.215   5.023  19.860  0.00  0.00    +0.000 OA
BRANCH  29  33
ATOM     30  C   UNL     1       1.358   1.991  19.024  0.00  0.00    +0.000 C 
ATOM     31  N   UNL     1       1.702   3.398  19.132  0.00  0.00    +0.000 N 
ATOM     32  C   UNL     1       1.401   4.260  18.005  0.00  0.00    +0.000 C 
ATOM     33  C   UNL     1       2.702   3.730  20.045  0.00  0.00    +0.000 C 
ATOM     34  O   UNL     1       3.120   2.950  20.895  0.00  0.00    +0.000 OA
ENDBRANCH  29  33
ENDBRANCH   1  29
TORSDOF 7
ENDMDL
