MODEL 1
REMARK VINA RESULT:      -8.4      0.000      0.000
REMARK  Name = 
REMARK  4 active torsions:
REMARK  status: ('A' for Active; 'I' for Inactive)
REMARK    1  A    between atoms: N_3  and  C_4
REMARK    2  A    between atoms: C_4  and  C_5
REMARK    3  A    between atoms: C_8  and  C_9
REMARK    4  A    between atoms: N_29  and  C_30
REMARK                            x       y       z     vdW  Elec       q    Type
REMARK                         _______ _______ _______ _____ _____    ______ ____
ROOT
ATOM      1  C   UNL     1       0.684   8.343  21.261  0.00  0.00    +0.000 A 
ATOM      2  C   UNL     1      -0.208   8.621  22.308  0.00  0.00    +0.000 A 
ATOM      3  C   UNL     1      -0.611   9.941  22.592  0.00  0.00    +0.000 A 
ATOM      4  C   UNL     1      -0.128  11.015  21.841  0.00  0.00    +0.000 A 
ATOM      5  C   UNL     1       0.821  10.729  20.842  0.00  0.00    +0.000 A 
ATOM      6  C   UNL     1       1.189   9.416  20.523  0.00  0.00    +0.000 A 
ENDROOT
BRANCH   4   7
ATOM      7  C   UNL     1      -0.559  12.405  22.124  0.00  0.00    +0.000 A 
ATOM      8  N   UNL     1      -0.434  13.035  23.276  0.00  0.00    +0.000 NA
ATOM      9  N   UNL     1      -0.465  14.382  23.011  0.00  0.00    +0.000 NA
ATOM     10  C   UNL     1      -0.624  14.557  21.704  0.00  0.00    +0.000 A 
ATOM     11  N   UNL     1      -1.024  13.340  21.188  0.00  0.00    +0.000 N 
ATOM     12  C   UNL     1      -1.552  13.012  19.926  0.00  0.00    +0.000 A 
ATOM     13  C   UNL     1      -2.315  11.837  19.824  0.00  0.00    +0.000 A 
ATOM     14  C   UNL     1      -2.214  11.081  18.671  0.00  0.00    +0.000 A 
ATOM     15  C   UNL     1      -1.414  11.577  17.663  0.00  0.00    +0.000 A 
ATOM     16  N   UNL     1      -0.883  12.823  17.672  0.00  0.00    +0.000 NA
ATOM     17  C   UNL     1      -0.993  13.571  18.796  0.00  0.00    +0.000 A 
ATOM     18  N   UNL     1      -0.477  14.847  18.695  0.00  0.00    +0.000 N 
ATOM     19  C   UNL     1      -0.328  15.916  19.586  0.00  0.00    +0.000 A 
ATOM     20  C   UNL     1      -0.083  17.187  19.015  0.00  0.00    +0.000 A 
ATOM     21  C   UNL     1       0.184  18.310  19.798  0.00  0.00    +0.000 A 
ATOM     22  C   UNL     1       0.195  18.190  21.178  0.00  0.00    +0.000 A 
ATOM     23  C   UNL     1      -0.113  16.960  21.762  0.00  0.00    +0.000 A 
ATOM     24  C   UNL     1      -0.403  15.814  20.987  0.00  0.00    +0.000 A 
ATOM     25  H   UNL     1      -0.171  15.012  17.743  0.00  0.00    +0.000 HD
ENDBRANCH   4   7
BRANCH   1  26
ATOM     26  C   UNL     1       1.135   6.933  20.966  0.00  0.00    +0.000 C 
BRANCH  26  29
ATOM     27  O   UNL     1       1.801   5.480  18.754  0.00  0.00    +0.000 OA
ATOM     28  C   UNL     1       2.694   6.130  19.287  0.00  0.00    +0.000 C 
ATOM     29  N   UNL     1       2.484   6.865  20.442  0.00  0.00    +0.000 N 
ATOM     30  N   UNL     1       3.999   6.227  18.861  0.00  0.00    +0.000 N 
ATOM     31  H   UNL     1       3.042   7.701  20.526  0.00  0.00    +0.000 HD
ATOM     32  H   UNL     1       4.681   6.500  19.551  0.00  0.00    +0.000 HD
BRANCH  30  33
ATOM     33  C   UNL     1       4.527   5.725  17.646  0.00  0.00    +0.000 A 
ATOM     34  C   UNL     1       4.753   6.494  16.508  0.00  0.00    +0.000 A 
ATOM     35  C   UNL     1       5.304   5.931  15.349  0.00  0.00    +0.000 A 
ATOM     36  C   UNL     1       5.637   4.579  15.316  0.00  0.00    +0.000 A 
ATOM     37  C   UNL     1       5.420   3.791  16.443  0.00  0.00    +0.000 A 
ATOM     38  C   UNL     1       4.879   4.360  17.593  0.00  0.00    +0.000 A 
ATOM     39  F   UNL     1       4.683   3.594  18.677  0.00  0.00    +0.000 F 
ENDBRANCH  30  33
ENDBRANCH  26  29
ENDBRANCH   1  26
TORSDOF 4
ENDMDL
MODEL 2
REMARK VINA RESULT:      -8.3      3.070      4.969
REMARK  Name = 
REMARK  4 active torsions:
REMARK  status: ('A' for Active; 'I' for Inactive)
REMARK    1  A    between atoms: N_3  and  C_4
REMARK    2  A    between atoms: C_4  and  C_5
REMARK    3  A    between atoms: C_8  and  C_9
REMARK    4  A    between atoms: N_29  and  C_30
REMARK                            x       y       z     vdW  Elec       q    Type
REMARK                         _______ _______ _______ _____ _____    ______ ____
ROOT
ATOM      1  C   UNL     1       0.762   9.920  18.863  0.00  0.00    +0.000 A 
ATOM      2  C   UNL     1       0.040  10.341  17.736  0.00  0.00    +0.000 A 
ATOM      3  C   UNL     1      -1.228  10.942  17.864  0.00  0.00    +0.000 A 
ATOM      4  C   UNL     1      -1.807  11.131  19.121  0.00  0.00    +0.000 A 
ATOM      5  C   UNL     1      -1.105  10.638  20.237  0.00  0.00    +0.000 A 
ATOM      6  C   UNL     1       0.176  10.084  20.120  0.00  0.00    +0.000 A 
ENDROOT
BRANCH   4   7
ATOM      7  C   UNL     1      -3.135  11.775  19.266  0.00  0.00    +0.000 A 
ATOM      8  N   UNL     1      -4.225  11.460  18.595  0.00  0.00    +0.000 NA
ATOM      9  N   UNL     1      -5.299  11.893  19.334  0.00  0.00    +0.000 NA
ATOM     10  C   UNL     1      -4.850  12.481  20.437  0.00  0.00    +0.000 A 
ATOM     11  N   UNL     1      -3.503  12.715  20.240  0.00  0.00    +0.000 N 
ATOM     12  C   UNL     1      -2.597  13.507  20.968  0.00  0.00    +0.000 A 
ATOM     13  C   UNL     1      -1.446  13.959  20.303  0.00  0.00    +0.000 A 
ATOM     14  C   UNL     1      -0.260  14.036  21.010  0.00  0.00    +0.000 A 
ATOM     15  C   UNL     1      -0.310  13.726  22.353  0.00  0.00    +0.000 A 
ATOM     16  N   UNL     1      -1.463  13.533  23.037  0.00  0.00    +0.000 NA
ATOM     17  C   UNL     1      -2.627  13.471  22.346  0.00  0.00    +0.000 A 
ATOM     18  N   UNL     1      -3.757  13.334  23.127  0.00  0.00    +0.000 N 
ATOM     19  C   UNL     1      -5.122  13.181  22.857  0.00  0.00    +0.000 A 
ATOM     20  C   UNL     1      -6.012  13.436  23.927  0.00  0.00    +0.000 A 
ATOM     21  C   UNL     1      -7.385  13.221  23.813  0.00  0.00    +0.000 A 
ATOM     22  C   UNL     1      -7.904  12.760  22.614  0.00  0.00    +0.000 A 
ATOM     23  C   UNL     1      -7.052  12.570  21.525  0.00  0.00    +0.000 A 
ATOM     24  C   UNL     1      -5.660  12.799  21.615  0.00  0.00    +0.000 A 
ATOM     25  H   UNL     1      -3.498  13.382  24.106  0.00  0.00    +0.000 HD
ENDBRANCH   4   7
BRANCH   1  26
ATOM     26  C   UNL     1       2.111   9.256  18.730  0.00  0.00    +0.000 C 
BRANCH  26  29
ATOM     27  O   UNL     1       2.784   6.816  19.748  0.00  0.00    +0.000 OA
ATOM     28  C   UNL     1       2.393   6.850  18.587  0.00  0.00    +0.000 C 
ATOM     29  N   UNL     1       2.071   8.037  17.950  0.00  0.00    +0.000 N 
ATOM     30  N   UNL     1       2.227   5.770  17.748  0.00  0.00    +0.000 N 
ATOM     31  H   UNL     1       1.340   7.968  17.258  0.00  0.00    +0.000 HD
ATOM     32  H   UNL     1       2.233   5.961  16.759  0.00  0.00    +0.000 HD
BRANCH  30  33
ATOM     33  C   UNL     1       2.326   4.403  18.108  0.00  0.00    +0.000 A 
ATOM     34  C   UNL     1       1.255   3.620  18.530  0.00  0.00    +0.000 A 
ATOM     35  C   UNL     1       1.425   2.266  18.844  0.00  0.00    +0.000 A 
ATOM     36  C   UNL     1       2.682   1.674  18.739  0.00  0.00    +0.000 A 
ATOM     37  C   UNL     1       3.768   2.438  18.319  0.00  0.00    +0.000 A 
ATOM     38  C   UNL     1       3.587   3.782  18.001  0.00  0.00    +0.000 A 
ATOM     39  F   UNL     1       4.638   4.507  17.588  0.00  0.00    +0.000 F 
ENDBRANCH  30  33
ENDBRANCH  26  29
ENDBRANCH   1  26
TORSDOF 4
ENDMDL
MODEL 3
REMARK VINA RESULT:      -8.2      2.874      4.478
REMARK  Name = 
REMARK  4 active torsions:
REMARK  status: ('A' for Active; 'I' for Inactive)
REMARK    1  A    between atoms: N_3  and  C_4
REMARK    2  A    between atoms: C_4  and  C_5
REMARK    3  A    between atoms: C_8  and  C_9
REMARK    4  A    between atoms: N_29  and  C_30
REMARK                            x       y       z     vdW  Elec       q    Type
REMARK                         _______ _______ _______ _____ _____    ______ ____
ROOT
ATOM      1  C   UNL     1       0.866   9.670  19.056  0.00  0.00    +0.000 A 
ATOM      2  C   UNL     1       0.159  10.052  17.906  0.00  0.00    +0.000 A 
ATOM      3  C   UNL     1      -1.026  10.809  17.996  0.00  0.00    +0.000 A 
ATOM      4  C   UNL     1      -1.536  11.197  19.237  0.00  0.00    +0.000 A 
ATOM      5  C   UNL     1      -0.857  10.745  20.384  0.00  0.00    +0.000 A 
ATOM      6  C   UNL     1       0.347  10.034  20.300  0.00  0.00    +0.000 A 
ENDROOT
BRANCH   4   7
ATOM      7  C   UNL     1      -2.774  12.005  19.339  0.00  0.00    +0.000 A 
ATOM      8  N   UNL     1      -3.951  11.686  18.838  0.00  0.00    +0.000 NA
ATOM      9  N   UNL     1      -4.900  12.383  19.545  0.00  0.00    +0.000 NA
ATOM     10  C   UNL     1      -4.289  13.130  20.457  0.00  0.00    +0.000 A 
ATOM     11  N   UNL     1      -2.952  13.162  20.112  0.00  0.00    +0.000 N 
ATOM     12  C   UNL     1      -1.907  13.979  20.580  0.00  0.00    +0.000 A 
ATOM     13  C   UNL     1      -0.789  14.147  19.748  0.00  0.00    +0.000 A 
ATOM     14  C   UNL     1       0.463  14.233  20.329  0.00  0.00    +0.000 A 
ATOM     15  C   UNL     1       0.517  14.215  21.708  0.00  0.00    +0.000 A 
ATOM     16  N   UNL     1      -0.577  14.301  22.502  0.00  0.00    +0.000 NA
ATOM     17  C   UNL     1      -1.804  14.232  21.932  0.00  0.00    +0.000 A 
ATOM     18  N   UNL     1      -2.858  14.390  22.808  0.00  0.00    +0.000 N 
ATOM     19  C   UNL     1      -4.252  14.343  22.682  0.00  0.00    +0.000 A 
ATOM     20  C   UNL     1      -5.004  14.914  23.736  0.00  0.00    +0.000 A 
ATOM     21  C   UNL     1      -6.396  14.839  23.776  0.00  0.00    +0.000 A 
ATOM     22  C   UNL     1      -7.073  14.203  22.749  0.00  0.00    +0.000 A 
ATOM     23  C   UNL     1      -6.354  13.696  21.665  0.00  0.00    +0.000 A 
ATOM     24  C   UNL     1      -4.944  13.776  21.597  0.00  0.00    +0.000 A 
ATOM     25  H   UNL     1      -2.500  14.609  23.731  0.00  0.00    +0.000 HD
ENDBRANCH   4   7
BRANCH   1  26
ATOM     26  C   UNL     1       2.125   8.841  18.966  0.00  0.00    +0.000 C 
BRANCH  26  29
ATOM     27  O   UNL     1       2.815   6.516  17.717  0.00  0.00    +0.000 OA
ATOM     28  C   UNL     1       2.418   6.433  18.873  0.00  0.00    +0.000 C 
ATOM     29  N   UNL     1       1.995   7.541  19.590  0.00  0.00    +0.000 N 
ATOM     30  N   UNL     1       2.316   5.282  19.622  0.00  0.00    +0.000 N 
ATOM     31  H   UNL     1       2.163   7.499  20.584  0.00  0.00    +0.000 HD
ATOM     32  H   UNL     1       1.678   5.306  20.402  0.00  0.00    +0.000 HD
BRANCH  30  33
ATOM     33  C   UNL     1       2.790   3.998  19.259  0.00  0.00    +0.000 A 
ATOM     34  C   UNL     1       3.893   3.374  19.836  0.00  0.00    +0.000 A 
ATOM     35  C   UNL     1       4.288   2.089  19.443  0.00  0.00    +0.000 A 
ATOM     36  C   UNL     1       3.577   1.407  18.459  0.00  0.00    +0.000 A 
ATOM     37  C   UNL     1       2.470   2.012  17.867  0.00  0.00    +0.000 A 
ATOM     38  C   UNL     1       2.081   3.286  18.270  0.00  0.00    +0.000 A 
ATOM     39  F   UNL     1       1.007   3.856  17.702  0.00  0.00    +0.000 F 
ENDBRANCH  30  33
ENDBRANCH  26  29
ENDBRANCH   1  26
TORSDOF 4
ENDMDL
MODEL 4
REMARK VINA RESULT:      -8.1      0.757      1.360
REMARK  Name = 
REMARK  4 active torsions:
REMARK  status: ('A' for Active; 'I' for Inactive)
REMARK    1  A    between atoms: N_3  and  C_4
REMARK    2  A    between atoms: C_4  and  C_5
REMARK    3  A    between atoms: C_8  and  C_9
REMARK    4  A    between atoms: N_29  and  C_30
REMARK                            x       y       z     vdW  Elec       q    Type
REMARK                         _______ _______ _______ _____ _____    ______ ____
ROOT
ATOM      1  C   UNL     1       0.687   8.241  21.269  0.00  0.00    +0.000 A 
ATOM      2  C   UNL     1       1.166   9.305  20.488  0.00  0.00    +0.000 A 
ATOM      3  C   UNL     1       0.774  10.634  20.745  0.00  0.00    +0.000 A 
ATOM      4  C   UNL     1      -0.109  10.931  21.785  0.00  0.00    +0.000 A 
ATOM      5  C   UNL     1      -0.638   9.848  22.513  0.00  0.00    +0.000 A 
ATOM      6  C   UNL     1      -0.216   8.531  22.293  0.00  0.00    +0.000 A 
ENDROOT
BRANCH   4   7
ATOM      7  C   UNL     1      -0.515  12.328  22.072  0.00  0.00    +0.000 A 
ATOM      8  N   UNL     1      -0.355  12.961  23.217  0.00  0.00    +0.000 NA
ATOM      9  N   UNL     1      -0.375  14.308  22.946  0.00  0.00    +0.000 NA
ATOM     10  C   UNL     1      -0.563  14.478  21.643  0.00  0.00    +0.000 A 
ATOM     11  N   UNL     1      -0.991  13.264  21.143  0.00  0.00    +0.000 N 
ATOM     12  C   UNL     1      -1.553  12.937  19.895  0.00  0.00    +0.000 A 
ATOM     13  C   UNL     1      -2.333  11.771  19.817  0.00  0.00    +0.000 A 
ATOM     14  C   UNL     1      -2.270  11.008  18.666  0.00  0.00    +0.000 A 
ATOM     15  C   UNL     1      -1.488  11.490  17.637  0.00  0.00    +0.000 A 
ATOM     16  N   UNL     1      -0.941  12.729  17.627  0.00  0.00    +0.000 NA
ATOM     17  C   UNL     1      -1.014  13.483  18.749  0.00  0.00    +0.000 A 
ATOM     18  N   UNL     1      -0.485  14.752  18.629  0.00  0.00    +0.000 N 
ATOM     19  C   UNL     1      -0.301  15.824  19.512  0.00  0.00    +0.000 A 
ATOM     20  C   UNL     1      -0.054  17.089  18.928  0.00  0.00    +0.000 A 
ATOM     21  C   UNL     1       0.246  18.212  19.699  0.00  0.00    +0.000 A 
ATOM     22  C   UNL     1       0.289  18.098  21.079  0.00  0.00    +0.000 A 
ATOM     23  C   UNL     1      -0.021  16.875  21.676  0.00  0.00    +0.000 A 
ATOM     24  C   UNL     1      -0.344  15.729  20.914  0.00  0.00    +0.000 A 
ATOM     25  H   UNL     1      -0.199  14.909  17.670  0.00  0.00    +0.000 HD
ENDBRANCH   4   7
BRANCH   1  26
ATOM     26  C   UNL     1       1.087   6.814  20.983  0.00  0.00    +0.000 C 
BRANCH  26  29
ATOM     27  O   UNL     1       1.771   5.343  18.789  0.00  0.00    +0.000 OA
ATOM     28  C   UNL     1       2.670   5.950  19.358  0.00  0.00    +0.000 C 
ATOM     29  N   UNL     1       2.450   6.689  20.509  0.00  0.00    +0.000 N 
ATOM     30  N   UNL     1       3.994   5.992  18.981  0.00  0.00    +0.000 N 
ATOM     31  H   UNL     1       3.041   7.499  20.619  0.00  0.00    +0.000 HD
ATOM     32  H   UNL     1       4.661   6.232  19.698  0.00  0.00    +0.000 HD
BRANCH  30  33
ATOM     33  C   UNL     1       4.544   5.472  17.784  0.00  0.00    +0.000 A 
ATOM     34  C   UNL     1       4.890   4.138  17.590  0.00  0.00    +0.000 A 
ATOM     35  C   UNL     1       5.405   3.692  16.367  0.00  0.00    +0.000 A 
ATOM     36  C   UNL     1       5.584   4.585  15.313  0.00  0.00    +0.000 A 
ATOM     37  C   UNL     1       5.245   5.925  15.484  0.00  0.00    +0.000 A 
ATOM     38  C   UNL     1       4.726   6.358  16.702  0.00  0.00    +0.000 A 
ATOM     39  F   UNL     1       4.393   7.649  16.853  0.00  0.00    +0.000 F 
ENDBRANCH  30  33
ENDBRANCH  26  29
ENDBRANCH   1  26
TORSDOF 4
ENDMDL
MODEL 5
REMARK VINA RESULT:      -8.1      2.785      4.204
REMARK  Name = 
REMARK  4 active torsions:
REMARK  status: ('A' for Active; 'I' for Inactive)
REMARK    1  A    between atoms: N_3  and  C_4
REMARK    2  A    between atoms: C_4  and  C_5
REMARK    3  A    between atoms: C_8  and  C_9
REMARK    4  A    between atoms: N_29  and  C_30
REMARK                            x       y       z     vdW  Elec       q    Type
REMARK                         _______ _______ _______ _____ _____    ______ ____
ROOT
ATOM      1  C   UNL     1       0.868   9.771  19.372  0.00  0.00    +0.000 A 
ATOM      2  C   UNL     1       0.468  10.239  20.633  0.00  0.00    +0.000 A 
ATOM      3  C   UNL     1      -0.633  11.107  20.774  0.00  0.00    +0.000 A 
ATOM      4  C   UNL     1      -1.356  11.534  19.658  0.00  0.00    +0.000 A 
ATOM      5  C   UNL     1      -0.898  11.116  18.394  0.00  0.00    +0.000 A 
ATOM      6  C   UNL     1       0.164  10.215  18.251  0.00  0.00    +0.000 A 
ENDROOT
BRANCH   4   7
ATOM      7  C   UNL     1      -2.523  12.437  19.799  0.00  0.00    +0.000 A 
ATOM      8  N   UNL     1      -3.757  12.172  19.417  0.00  0.00    +0.000 NA
ATOM      9  N   UNL     1      -4.593  12.983  20.144  0.00  0.00    +0.000 NA
ATOM     10  C   UNL     1      -3.859  13.743  20.948  0.00  0.00    +0.000 A 
ATOM     11  N   UNL     1      -2.557  13.653  20.496  0.00  0.00    +0.000 N 
ATOM     12  C   UNL     1      -1.423  14.420  20.819  0.00  0.00    +0.000 A 
ATOM     13  C   UNL     1      -0.370  14.449  19.891  0.00  0.00    +0.000 A 
ATOM     14  C   UNL     1       0.929  14.481  20.363  0.00  0.00    +0.000 A 
ATOM     15  C   UNL     1       1.098  14.552  21.731  0.00  0.00    +0.000 A 
ATOM     16  N   UNL     1       0.083  14.772  22.601  0.00  0.00    +0.000 NA
ATOM     17  C   UNL     1      -1.189  14.755  22.137  0.00  0.00    +0.000 A 
ATOM     18  N   UNL     1      -2.153  15.049  23.080  0.00  0.00    +0.000 N 
ATOM     19  C   UNL     1      -3.552  15.097  23.068  0.00  0.00    +0.000 A 
ATOM     20  C   UNL     1      -4.171  15.791  24.134  0.00  0.00    +0.000 A 
ATOM     21  C   UNL     1      -5.557  15.822  24.289  0.00  0.00    +0.000 A 
ATOM     22  C   UNL     1      -6.360  15.170  23.368  0.00  0.00    +0.000 A 
ATOM     23  C   UNL     1      -5.771  14.539  22.271  0.00  0.00    +0.000 A 
ATOM     24  C   UNL     1      -4.370  14.511  22.086  0.00  0.00    +0.000 A 
ATOM     25  H   UNL     1      -1.704  15.303  23.953  0.00  0.00    +0.000 HD
ENDBRANCH   4   7
BRANCH   1  26
ATOM     26  C   UNL     1       2.059   8.857  19.214  0.00  0.00    +0.000 C 
BRANCH  26  29
ATOM     27  O   UNL     1       2.942   6.603  17.955  0.00  0.00    +0.000 OA
ATOM     28  C   UNL     1       2.358   6.456  19.022  0.00  0.00    +0.000 C 
ATOM     29  N   UNL     1       1.823   7.522  19.725  0.00  0.00    +0.000 N 
ATOM     30  N   UNL     1       2.128   5.262  19.669  0.00  0.00    +0.000 N 
ATOM     31  H   UNL     1       1.822   7.418  20.729  0.00  0.00    +0.000 HD
ATOM     32  H   UNL     1       1.369   5.247  20.332  0.00  0.00    +0.000 HD
BRANCH  30  33
ATOM     33  C   UNL     1       2.653   3.996  19.311  0.00  0.00    +0.000 A 
ATOM     34  C   UNL     1       3.706   3.365  19.969  0.00  0.00    +0.000 A 
ATOM     35  C   UNL     1       4.154   2.099  19.573  0.00  0.00    +0.000 A 
ATOM     36  C   UNL     1       3.550   1.443  18.504  0.00  0.00    +0.000 A 
ATOM     37  C   UNL     1       2.495   2.056  17.831  0.00  0.00    +0.000 A 
ATOM     38  C   UNL     1       2.051   3.311  18.236  0.00  0.00    +0.000 A 
ATOM     39  F   UNL     1       1.027   3.888  17.588  0.00  0.00    +0.000 F 
ENDBRANCH  30  33
ENDBRANCH  26  29
ENDBRANCH   1  26
TORSDOF 4
ENDMDL
MODEL 6
REMARK VINA RESULT:      -8.1      3.121      4.892
REMARK  Name = 
REMARK  4 active torsions:
REMARK  status: ('A' for Active; 'I' for Inactive)
REMARK    1  A    between atoms: N_3  and  C_4
REMARK    2  A    between atoms: C_4  and  C_5
REMARK    3  A    between atoms: C_8  and  C_9
REMARK    4  A    between atoms: N_29  and  C_30
REMARK                            x       y       z     vdW  Elec       q    Type
REMARK                         _______ _______ _______ _____ _____    ______ ____
ROOT
ATOM      1  C   UNL     1       0.717   9.643  18.960  0.00  0.00    +0.000 A 
ATOM      2  C   UNL     1       0.081   9.819  20.199  0.00  0.00    +0.000 A 
ATOM      3  C   UNL     1      -1.154  10.491  20.297  0.00  0.00    +0.000 A 
ATOM      4  C   UNL     1      -1.781  11.007  19.160  0.00  0.00    +0.000 A 
ATOM      5  C   UNL     1      -1.097  10.888  17.936  0.00  0.00    +0.000 A 
ATOM      6  C   UNL     1       0.106  10.180  17.825  0.00  0.00    +0.000 A 
ENDROOT
BRANCH   4   7
ATOM      7  C   UNL     1      -3.087  11.702  19.253  0.00  0.00    +0.000 A 
ATOM      8  N   UNL     1      -4.175  11.400  18.572  0.00  0.00    +0.000 NA
ATOM      9  N   UNL     1      -5.247  11.898  19.272  0.00  0.00    +0.000 NA
ATOM     10  C   UNL     1      -4.798  12.510  20.361  0.00  0.00    +0.000 A 
ATOM     11  N   UNL     1      -3.441  12.690  20.183  0.00  0.00    +0.000 N 
ATOM     12  C   UNL     1      -2.522  13.477  20.901  0.00  0.00    +0.000 A 
ATOM     13  C   UNL     1      -1.342  13.863  20.244  0.00  0.00    +0.000 A 
ATOM     14  C   UNL     1      -0.169  13.926  20.973  0.00  0.00    +0.000 A 
ATOM     15  C   UNL     1      -0.256  13.668  22.325  0.00  0.00    +0.000 A 
ATOM     16  N   UNL     1      -1.429  13.542  22.991  0.00  0.00    +0.000 NA
ATOM     17  C   UNL     1      -2.580  13.494  22.279  0.00  0.00    +0.000 A 
ATOM     18  N   UNL     1      -3.729  13.426  23.041  0.00  0.00    +0.000 N 
ATOM     19  C   UNL     1      -5.093  13.311  22.747  0.00  0.00    +0.000 A 
ATOM     20  C   UNL     1      -5.994  13.636  23.788  0.00  0.00    +0.000 A 
ATOM     21  C   UNL     1      -7.372  13.465  23.653  0.00  0.00    +0.000 A 
ATOM     22  C   UNL     1      -7.883  12.977  22.462  0.00  0.00    +0.000 A 
ATOM     23  C   UNL     1      -7.017  12.717  21.399  0.00  0.00    +0.000 A 
ATOM     24  C   UNL     1      -5.619  12.901  21.510  0.00  0.00    +0.000 A 
ATOM     25  H   UNL     1      -3.487  13.501  24.022  0.00  0.00    +0.000 HD
ENDBRANCH   4   7
BRANCH   1  26
ATOM     26  C   UNL     1       2.050   8.944  18.853  0.00  0.00    +0.000 C 
BRANCH  26  29
ATOM     27  O   UNL     1       3.009   6.552  19.749  0.00  0.00    +0.000 OA
ATOM     28  C   UNL     1       2.472   6.562  18.648  0.00  0.00    +0.000 C 
ATOM     29  N   UNL     1       1.991   7.726  18.071  0.00  0.00    +0.000 N 
ATOM     30  N   UNL     1       2.273   5.475  17.826  0.00  0.00    +0.000 N 
ATOM     31  H   UNL     1       1.184   7.610  17.477  0.00  0.00    +0.000 HD
ATOM     32  H   UNL     1       2.139   5.669  16.846  0.00  0.00    +0.000 HD
BRANCH  30  33
ATOM     33  C   UNL     1       2.509   4.118  18.154  0.00  0.00    +0.000 A 
ATOM     34  C   UNL     1       3.521   3.338  17.601  0.00  0.00    +0.000 A 
ATOM     35  C   UNL     1       3.710   2.007  17.996  0.00  0.00    +0.000 A 
ATOM     36  C   UNL     1       2.879   1.436  18.957  0.00  0.00    +0.000 A 
ATOM     37  C   UNL     1       1.860   2.198  19.524  0.00  0.00    +0.000 A 
ATOM     38  C   UNL     1       1.685   3.522  19.131  0.00  0.00    +0.000 A 
ATOM     39  F   UNL     1       0.706   4.250  19.690  0.00  0.00    +0.000 F 
ENDBRANCH  30  33
ENDBRANCH  26  29
ENDBRANCH   1  26
TORSDOF 4
ENDMDL
MODEL 7
REMARK VINA RESULT:      -8.0      2.620      3.821
REMARK  Name = 
REMARK  4 active torsions:
REMARK  status: ('A' for Active; 'I' for Inactive)
REMARK    1  A    between atoms: N_3  and  C_4
REMARK    2  A    between atoms: C_4  and  C_5
REMARK    3  A    between atoms: C_8  and  C_9
REMARK    4  A    between atoms: N_29  and  C_30
REMARK                            x       y       z     vdW  Elec       q    Type
REMARK                         _______ _______ _______ _____ _____    ______ ____
ROOT
ATOM      1  C   UNL     1       0.108   9.659  21.739  0.00  0.00    +0.000 A 
ATOM      2  C   UNL     1      -0.424  10.227  20.572  0.00  0.00    +0.000 A 
ATOM      3  C   UNL     1      -1.361  11.278  20.631  0.00  0.00    +0.000 A 
ATOM      4  C   UNL     1      -1.794  11.782  21.860  0.00  0.00    +0.000 A 
ATOM      5  C   UNL     1      -1.309  11.154  23.023  0.00  0.00    +0.000 A 
ATOM      6  C   UNL     1      -0.342  10.142  22.970  0.00  0.00    +0.000 A 
ENDROOT
BRANCH   4   7
ATOM      7  C   UNL     1      -2.768  12.896  21.932  0.00  0.00    +0.000 A 
ATOM      8  N   UNL     1      -4.079  12.776  21.999  0.00  0.00    +0.000 NA
ATOM      9  N   UNL     1      -4.570  13.936  22.546  0.00  0.00    +0.000 NA
ATOM     10  C   UNL     1      -3.554  14.756  22.790  0.00  0.00    +0.000 A 
ATOM     11  N   UNL     1      -2.468  14.256  22.099  0.00  0.00    +0.000 N 
ATOM     12  C   UNL     1      -1.220  14.839  21.813  0.00  0.00    +0.000 A 
ATOM     13  C   UNL     1      -0.504  14.340  20.713  0.00  0.00    +0.000 A 
ATOM     14  C   UNL     1       0.874  14.264  20.799  0.00  0.00    +0.000 A 
ATOM     15  C   UNL     1       1.458  14.755  21.948  0.00  0.00    +0.000 A 
ATOM     16  N   UNL     1       0.785  15.457  22.891  0.00  0.00    +0.000 NA
ATOM     17  C   UNL     1      -0.563  15.543  22.800  0.00  0.00    +0.000 A 
ATOM     18  N   UNL     1      -1.159  16.327  23.767  0.00  0.00    +0.000 N 
ATOM     19  C   UNL     1      -2.484  16.651  24.087  0.00  0.00    +0.000 A 
ATOM     20  C   UNL     1      -2.676  17.774  24.925  0.00  0.00    +0.000 A 
ATOM     21  C   UNL     1      -3.938  18.137  25.396  0.00  0.00    +0.000 A 
ATOM     22  C   UNL     1      -5.043  17.390  25.023  0.00  0.00    +0.000 A 
ATOM     23  C   UNL     1      -4.883  16.322  24.140  0.00  0.00    +0.000 A 
ATOM     24  C   UNL     1      -3.615  15.948  23.638  0.00  0.00    +0.000 A 
ATOM     25  H   UNL     1      -0.442  16.763  24.337  0.00  0.00    +0.000 HD
ENDBRANCH   4   7
BRANCH   1  26
ATOM     26  C   UNL     1       1.095   8.519  21.680  0.00  0.00    +0.000 C 
BRANCH  26  29
ATOM     27  O   UNL     1       2.204   6.141  20.930  0.00  0.00    +0.000 OA
ATOM     28  C   UNL     1       2.095   7.005  20.067  0.00  0.00    +0.000 C 
ATOM     29  N   UNL     1       1.592   8.266  20.343  0.00  0.00    +0.000 N 
ATOM     30  N   UNL     1       2.448   6.885  18.741  0.00  0.00    +0.000 N 
ATOM     31  H   UNL     1       1.091   8.704  19.586  0.00  0.00    +0.000 HD
ATOM     32  H   UNL     1       2.622   7.743  18.241  0.00  0.00    +0.000 HD
BRANCH  30  33
ATOM     33  C   UNL     1       2.858   5.700  18.084  0.00  0.00    +0.000 A 
ATOM     34  C   UNL     1       2.056   4.575  17.915  0.00  0.00    +0.000 A 
ATOM     35  C   UNL     1       2.523   3.446  17.230  0.00  0.00    +0.000 A 
ATOM     36  C   UNL     1       3.811   3.430  16.701  0.00  0.00    +0.000 A 
ATOM     37  C   UNL     1       4.632   4.545  16.858  0.00  0.00    +0.000 A 
ATOM     38  C   UNL     1       4.156   5.665  17.534  0.00  0.00    +0.000 A 
ATOM     39  F   UNL     1       4.951   6.737  17.671  0.00  0.00    +0.000 F 
ENDBRANCH  30  33
ENDBRANCH  26  29
ENDBRANCH   1  26
TORSDOF 4
ENDMDL
MODEL 8
REMARK VINA RESULT:      -8.0      3.290     11.201
REMARK  Name = 
REMARK  4 active torsions:
REMARK  status: ('A' for Active; 'I' for Inactive)
REMARK    1  A    between atoms: N_3  and  C_4
REMARK    2  A    between atoms: C_4  and  C_5
REMARK    3  A    between atoms: C_8  and  C_9
REMARK    4  A    between atoms: N_29  and  C_30
REMARK                            x       y       z     vdW  Elec       q    Type
REMARK                         _______ _______ _______ _____ _____    ______ ____
ROOT
ATOM      1  C   UNL     1       2.230   6.745  20.231  0.00  0.00    +0.000 A 
ATOM      2  C   UNL     1       2.680   7.280  19.014  0.00  0.00    +0.000 A 
ATOM      3  C   UNL     1       3.226   6.455  18.011  0.00  0.00    +0.000 A 
ATOM      4  C   UNL     1       3.341   5.076  18.203  0.00  0.00    +0.000 A 
ATOM      5  C   UNL     1       2.954   4.563  19.455  0.00  0.00    +0.000 A 
ATOM      6  C   UNL     1       2.366   5.371  20.436  0.00  0.00    +0.000 A 
ENDROOT
BRANCH   4   7
ATOM      7  C   UNL     1       3.901   4.199  17.147  0.00  0.00    +0.000 A 
ATOM      8  N   UNL     1       3.217   3.367  16.388  0.00  0.00    +0.000 NA
ATOM      9  N   UNL     1       3.961   3.140  15.255  0.00  0.00    +0.000 NA
ATOM     10  C   UNL     1       5.095   3.823  15.346  0.00  0.00    +0.000 A 
ATOM     11  N   UNL     1       5.218   4.212  16.665  0.00  0.00    +0.000 N 
ATOM     12  C   UNL     1       6.318   4.745  17.362  0.00  0.00    +0.000 A 
ATOM     13  C   UNL     1       6.339   4.599  18.758  0.00  0.00    +0.000 A 
ATOM     14  C   UNL     1       6.855   5.627  19.524  0.00  0.00    +0.000 A 
ATOM     15  C   UNL     1       7.383   6.708  18.850  0.00  0.00    +0.000 A 
ATOM     16  N   UNL     1       7.584   6.731  17.510  0.00  0.00    +0.000 NA
ATOM     17  C   UNL     1       7.090   5.717  16.760  0.00  0.00    +0.000 A 
ATOM     18  N   UNL     1       7.393   5.792  15.416  0.00  0.00    +0.000 N 
ATOM     19  C   UNL     1       7.063   5.022  14.293  0.00  0.00    +0.000 A 
ATOM     20  C   UNL     1       7.861   5.210  13.140  0.00  0.00    +0.000 A 
ATOM     21  C   UNL     1       7.571   4.579  11.930  0.00  0.00    +0.000 A 
ATOM     22  C   UNL     1       6.481   3.729  11.850  0.00  0.00    +0.000 A 
ATOM     23  C   UNL     1       5.724   3.476  12.995  0.00  0.00    +0.000 A 
ATOM     24  C   UNL     1       6.011   4.092  14.235  0.00  0.00    +0.000 A 
ATOM     25  H   UNL     1       8.011   6.579  15.252  0.00  0.00    +0.000 HD
ENDBRANCH   4   7
BRANCH   1  26
ATOM     26  C   UNL     1       1.663   7.628  21.317  0.00  0.00    +0.000 C 
BRANCH  26  29
ATOM     27  O   UNL     1       1.002   9.761  22.884  0.00  0.00    +0.000 OA
ATOM     28  C   UNL     1       0.762   9.851  21.685  0.00  0.00    +0.000 C 
ATOM     29  N   UNL     1       1.010   8.813  20.802  0.00  0.00    +0.000 N 
ATOM     30  N   UNL     1       0.218  10.940  21.040  0.00  0.00    +0.000 N 
ATOM     31  H   UNL     1       1.260   9.096  19.867  0.00  0.00    +0.000 HD
ATOM     32  H   UNL     1      -0.228  10.763  20.154  0.00  0.00    +0.000 HD
BRANCH  30  33
ATOM     33  C   UNL     1      -0.025  12.216  21.604  0.00  0.00    +0.000 A 
ATOM     34  C   UNL     1       0.689  13.368  21.283  0.00  0.00    +0.000 A 
ATOM     35  C   UNL     1       0.374  14.603  21.864  0.00  0.00    +0.000 A 
ATOM     36  C   UNL     1      -0.670  14.701  22.781  0.00  0.00    +0.000 A 
ATOM     37  C   UNL     1      -1.398  13.562  23.116  0.00  0.00    +0.000 A 
ATOM     38  C   UNL     1      -1.082  12.340  22.529  0.00  0.00    +0.000 A 
ATOM     39  F   UNL     1      -1.796  11.250  22.851  0.00  0.00    +0.000 F 
ENDBRANCH  30  33
ENDBRANCH  26  29
ENDBRANCH   1  26
TORSDOF 4
ENDMDL
MODEL 9
REMARK VINA RESULT:      -8.0      2.965      4.613
REMARK  Name = 
REMARK  4 active torsions:
REMARK  status: ('A' for Active; 'I' for Inactive)
REMARK    1  A    between atoms: N_3  and  C_4
REMARK    2  A    between atoms: C_4  and  C_5
REMARK    3  A    between atoms: C_8  and  C_9
REMARK    4  A    between atoms: N_29  and  C_30
REMARK                            x       y       z     vdW  Elec       q    Type
REMARK                         _______ _______ _______ _____ _____    ______ ____
ROOT
ATOM      1  C   UNL     1       0.850   9.774  18.976  0.00  0.00    +0.000 A 
ATOM      2  C   UNL     1       0.390  10.243  20.216  0.00  0.00    +0.000 A 
ATOM      3  C   UNL     1      -0.825  10.947  20.327  0.00  0.00    +0.000 A 
ATOM      4  C   UNL     1      -1.608  11.205  19.199  0.00  0.00    +0.000 A 
ATOM      5  C   UNL     1      -1.100  10.794  17.952  0.00  0.00    +0.000 A 
ATOM      6  C   UNL     1       0.083  10.052  17.843  0.00  0.00    +0.000 A 
ENDROOT
BRANCH   4   7
ATOM      7  C   UNL     1      -2.895  11.932  19.308  0.00  0.00    +0.000 A 
ATOM      8  N   UNL     1      -4.036  11.574  18.754  0.00  0.00    +0.000 NA
ATOM      9  N   UNL     1      -5.044  12.173  19.469  0.00  0.00    +0.000 NA
ATOM     10  C   UNL     1      -4.505  12.901  20.439  0.00  0.00    +0.000 A 
ATOM     11  N   UNL     1      -3.163  13.031  20.137  0.00  0.00    +0.000 N 
ATOM     12  C   UNL     1      -2.182  13.879  20.682  0.00  0.00    +0.000 A 
ATOM     13  C   UNL     1      -1.054  14.160  19.895  0.00  0.00    +0.000 A 
ATOM     14  C   UNL     1       0.174  14.285  20.518  0.00  0.00    +0.000 A 
ATOM     15  C   UNL     1       0.192  14.191  21.894  0.00  0.00    +0.000 A 
ATOM     16  N   UNL     1      -0.926  14.169  22.658  0.00  0.00    +0.000 NA
ATOM     17  C   UNL     1      -2.131  14.060  22.048  0.00  0.00    +0.000 A 
ATOM     18  N   UNL     1      -3.217  14.107  22.899  0.00  0.00    +0.000 N 
ATOM     19  C   UNL     1      -4.601  13.985  22.728  0.00  0.00    +0.000 A 
ATOM     20  C   UNL     1      -5.414  14.450  23.789  0.00  0.00    +0.000 A 
ATOM     21  C   UNL     1      -6.800  14.292  23.782  0.00  0.00    +0.000 A 
ATOM     22  C   UNL     1      -7.409  13.677  22.701  0.00  0.00    +0.000 A 
ATOM     23  C   UNL     1      -6.632  13.275  21.613  0.00  0.00    +0.000 A 
ATOM     24  C   UNL     1      -5.228  13.442  21.593  0.00  0.00    +0.000 A 
ATOM     25  H   UNL     1      -2.898  14.293  23.843  0.00  0.00    +0.000 HD
ENDBRANCH   4   7
BRANCH   1  26
ATOM     26  C   UNL     1       2.161   9.038  18.850  0.00  0.00    +0.000 C 
BRANCH  26  29
ATOM     27  O   UNL     1       2.880   6.564  19.749  0.00  0.00    +0.000 OA
ATOM     28  C   UNL     1       2.421   6.636  18.615  0.00  0.00    +0.000 C 
ATOM     29  N   UNL     1       2.067   7.844  18.036  0.00  0.00    +0.000 N 
ATOM     30  N   UNL     1       2.199   5.584  17.755  0.00  0.00    +0.000 N 
ATOM     31  H   UNL     1       1.296   7.800  17.388  0.00  0.00    +0.000 HD
ATOM     32  H   UNL     1       2.147   5.806  16.773  0.00  0.00    +0.000 HD
BRANCH  30  33
ATOM     33  C   UNL     1       2.312   4.206  18.065  0.00  0.00    +0.000 A 
ATOM     34  C   UNL     1       1.399   3.496  18.841  0.00  0.00    +0.000 A 
ATOM     35  C   UNL     1       1.563   2.127  19.083  0.00  0.00    +0.000 A 
ATOM     36  C   UNL     1       2.653   1.445  18.547  0.00  0.00    +0.000 A 
ATOM     37  C   UNL     1       3.578   2.135  17.767  0.00  0.00    +0.000 A 
ATOM     38  C   UNL     1       3.403   3.495  17.526  0.00  0.00    +0.000 A 
ATOM     39  F   UNL     1       4.295   4.148  16.765  0.00  0.00    +0.000 F 
ENDBRANCH  30  33
ENDBRANCH  26  29
ENDBRANCH   1  26
TORSDOF 4
ENDMDL
