MODEL 1
REMARK VINA RESULT:      -7.5      0.000      0.000
REMARK  Name = 
REMARK  2 active torsions:
REMARK  status: ('A' for Active; 'I' for Inactive)
REMARK    1  A    between atoms: C_1  and  O_2
REMARK    2  A    between atoms: O_2  and  C_3
REMARK                            x       y       z     vdW  Elec       q    Type
REMARK                         _______ _______ _______ _____ _____    ______ ____
ROOT
ATOM      1  C   UNL     1      -3.552  11.210  17.280  0.00  0.00    +0.000 A 
ATOM      2  C   UNL     1      -2.199  11.580  17.302  0.00  0.00    +0.000 A 
ATOM      3  C   UNL     1      -1.622  12.172  18.433  0.00  0.00    +0.000 A 
ATOM      4  C   UNL     1      -2.411  12.394  19.559  0.00  0.00    +0.000 A 
ATOM      5  C   UNL     1      -3.807  12.098  19.464  0.00  0.00    +0.000 A 
ATOM      6  C   UNL     1      -4.407  11.514  18.346  0.00  0.00    +0.000 A 
ATOM      7  O   UNL     1      -5.768  11.179  18.264  0.00  0.00    +0.000 OA
ATOM      8  C   UNL     1      -6.654  11.745  19.158  0.00  0.00    +0.000 A 
ATOM      9  C   UNL     1      -7.283  12.953  18.847  0.00  0.00    +0.000 A 
ATOM     10  C   UNL     1      -7.915  13.687  19.862  0.00  0.00    +0.000 A 
ATOM     11  C   UNL     1      -7.903  13.193  21.170  0.00  0.00    +0.000 A 
ATOM     12  C   UNL     1      -7.686  11.818  21.345  0.00  0.00    +0.000 A 
ATOM     13  C   UNL     1      -6.972  11.116  20.363  0.00  0.00    +0.000 A 
ATOM     14  C   UNL     1      -7.535  14.154  22.337  0.00  0.00    +0.000 C 
ATOM     15  C   UNL     1      -6.135  13.727  22.812  0.00  0.00    +0.000 C 
ATOM     16  N   UNL     1      -6.050  12.775  23.894  0.00  0.00    +0.000 N 
ATOM     17  C   UNL     1      -4.710  12.651  24.221  0.00  0.00    +0.000 C 
ATOM     18  O   UNL     1      -4.223  11.592  24.584  0.00  0.00    +0.000 OA
ATOM     19  N   UNL     1      -4.054  13.800  23.842  0.00  0.00    +0.000 N 
ATOM     20  C   UNL     1      -2.677  13.693  23.307  0.00  0.00    +0.000 C 
ATOM     21  C   UNL     1      -2.842  13.141  21.889  0.00  0.00    +0.000 C 
ATOM     22  C   UNL     1      -1.750  12.899  20.863  0.00  0.00    +0.000 C 
ATOM     23  C   UNL     1      -4.973  14.640  23.190  0.00  0.00    +0.000 C 
ATOM     24  O   UNL     1      -4.742  15.741  22.713  0.00  0.00    +0.000 OA
ATOM     25  H   UNL     1      -6.529  11.884  23.841  0.00  0.00    +0.000 HD
ENDROOT
BRANCH   1  27
ATOM     26  C   UNL     1      -2.955  10.484  15.165  0.00  0.00    +0.000 C 
ATOM     27  O   UNL     1      -3.999  10.590  16.136  0.00  0.00    +0.000 OA
ENDBRANCH   1  27
TORSDOF 1
ENDMDL
MODEL 2
REMARK VINA RESULT:      -7.4      2.531      4.755
REMARK  Name = 
REMARK  2 active torsions:
REMARK  status: ('A' for Active; 'I' for Inactive)
REMARK    1  A    between atoms: C_1  and  O_2
REMARK    2  A    between atoms: O_2  and  C_3
REMARK                            x       y       z     vdW  Elec       q    Type
REMARK                         _______ _______ _______ _____ _____    ______ ____
ROOT
ATOM      1  C   UNL     1      -0.299  10.827  18.709  0.00  0.00    +0.000 A 
ATOM      2  C   UNL     1      -0.725  10.011  17.651  0.00  0.00    +0.000 A 
ATOM      3  C   UNL     1      -2.072   9.952  17.269  0.00  0.00    +0.000 A 
ATOM      4  C   UNL     1      -3.004  10.725  17.957  0.00  0.00    +0.000 A 
ATOM      5  C   UNL     1      -2.551  11.465  19.094  0.00  0.00    +0.000 A 
ATOM      6  C   UNL     1      -1.215  11.534  19.497  0.00  0.00    +0.000 A 
ATOM      7  O   UNL     1      -0.756  12.295  20.584  0.00  0.00    +0.000 OA
ATOM      8  C   UNL     1      -1.663  12.729  21.530  0.00  0.00    +0.000 A 
ATOM      9  C   UNL     1      -1.943  11.934  22.644  0.00  0.00    +0.000 A 
ATOM     10  C   UNL     1      -3.079  12.206  23.421  0.00  0.00    +0.000 A 
ATOM     11  C   UNL     1      -3.910  13.272  23.065  0.00  0.00    +0.000 A 
ATOM     12  C   UNL     1      -3.363  14.285  22.263  0.00  0.00    +0.000 A 
ATOM     13  C   UNL     1      -2.284  13.974  21.422  0.00  0.00    +0.000 A 
ATOM     14  C   UNL     1      -5.450  13.049  23.026  0.00  0.00    +0.000 C 
ATOM     15  C   UNL     1      -5.840  13.043  21.538  0.00  0.00    +0.000 C 
ATOM     16  N   UNL     1      -6.252  14.292  20.942  0.00  0.00    +0.000 N 
ATOM     17  C   UNL     1      -6.669  14.009  19.652  0.00  0.00    +0.000 C 
ATOM     18  O   UNL     1      -6.488  14.782  18.724  0.00  0.00    +0.000 OA
ATOM     19  N   UNL     1      -7.063  12.692  19.594  0.00  0.00    +0.000 N 
ATOM     20  C   UNL     1      -6.777  11.914  18.366  0.00  0.00    +0.000 C 
ATOM     21  C   UNL     1      -5.276  11.617  18.425  0.00  0.00    +0.000 C 
ATOM     22  C   UNL     1      -4.464  10.789  17.446  0.00  0.00    +0.000 C 
ATOM     23  C   UNL     1      -6.820  12.101  20.845  0.00  0.00    +0.000 C 
ATOM     24  O   UNL     1      -7.041  10.941  21.159  0.00  0.00    +0.000 OA
ATOM     25  H   UNL     1      -5.662  15.113  20.997  0.00  0.00    +0.000 HD
ENDROOT
BRANCH   1  27
ATOM     26  C   UNL     1       1.750   9.934  18.109  0.00  0.00    +0.000 C 
ATOM     27  O   UNL     1       1.053  10.844  18.962  0.00  0.00    +0.000 OA
ENDBRANCH   1  27
TORSDOF 1
ENDMDL
MODEL 3
REMARK VINA RESULT:      -7.1      2.244      4.990
REMARK  Name = 
REMARK  2 active torsions:
REMARK  status: ('A' for Active; 'I' for Inactive)
REMARK    1  A    between atoms: C_1  and  O_2
REMARK    2  A    between atoms: O_2  and  C_3
REMARK                            x       y       z     vdW  Elec       q    Type
REMARK                         _______ _______ _______ _____ _____    ______ ____
ROOT
ATOM      1  C   UNL     1      -0.663  12.875  21.221  0.00  0.00    +0.000 A 
ATOM      2  C   UNL     1      -0.345  12.181  20.045  0.00  0.00    +0.000 A 
ATOM      3  C   UNL     1      -1.342  11.734  19.167  0.00  0.00    +0.000 A 
ATOM      4  C   UNL     1      -2.676  11.989  19.472  0.00  0.00    +0.000 A 
ATOM      5  C   UNL     1      -2.968  12.608  20.728  0.00  0.00    +0.000 A 
ATOM      6  C   UNL     1      -1.992  13.057  21.622  0.00  0.00    +0.000 A 
ATOM      7  O   UNL     1      -2.271  13.706  22.836  0.00  0.00    +0.000 OA
ATOM      8  C   UNL     1      -3.538  13.610  23.373  0.00  0.00    +0.000 A 
ATOM      9  C   UNL     1      -3.846  12.569  24.253  0.00  0.00    +0.000 A 
ATOM     10  C   UNL     1      -5.188  12.278  24.539  0.00  0.00    +0.000 A 
ATOM     11  C   UNL     1      -6.195  13.037  23.936  0.00  0.00    +0.000 A 
ATOM     12  C   UNL     1      -5.852  14.311  23.457  0.00  0.00    +0.000 A 
ATOM     13  C   UNL     1      -4.521  14.559  23.088  0.00  0.00    +0.000 A 
ATOM     14  C   UNL     1      -7.408  12.307  23.291  0.00  0.00    +0.000 C 
ATOM     15  C   UNL     1      -7.231  12.452  21.770  0.00  0.00    +0.000 C 
ATOM     16  N   UNL     1      -7.870  13.570  21.118  0.00  0.00    +0.000 N 
ATOM     17  C   UNL     1      -7.675  13.413  19.756  0.00  0.00    +0.000 C 
ATOM     18  O   UNL     1      -7.507  14.363  19.008  0.00  0.00    +0.000 OA
ATOM     19  N   UNL     1      -7.474  12.078  19.489  0.00  0.00    +0.000 N 
ATOM     20  C   UNL     1      -6.504  11.698  18.436  0.00  0.00    +0.000 C 
ATOM     21  C   UNL     1      -5.126  11.934  19.060  0.00  0.00    +0.000 C 
ATOM     22  C   UNL     1      -3.773  11.642  18.438  0.00  0.00    +0.000 C 
ATOM     23  C   UNL     1      -7.461  11.380  20.709  0.00  0.00    +0.000 C 
ATOM     24  O   UNL     1      -7.301  10.178  20.859  0.00  0.00    +0.000 OA
ATOM     25  H   UNL     1      -7.707  14.519  21.435  0.00  0.00    +0.000 HD
ENDROOT
BRANCH   1  27
ATOM     26  C   UNL     1       1.227  14.210  21.241  0.00  0.00    +0.000 C 
ATOM     27  O   UNL     1       0.398  13.311  21.981  0.00  0.00    +0.000 OA
ENDBRANCH   1  27
TORSDOF 1
ENDMDL
MODEL 4
REMARK VINA RESULT:      -7.1      2.856      4.712
REMARK  Name = 
REMARK  2 active torsions:
REMARK  status: ('A' for Active; 'I' for Inactive)
REMARK    1  A    between atoms: C_1  and  O_2
REMARK    2  A    between atoms: O_2  and  C_3
REMARK                            x       y       z     vdW  Elec       q    Type
REMARK                         _______ _______ _______ _____ _____    ______ ____
ROOT
ATOM      1  C   UNL     1      -5.466  12.109  17.668  0.00  0.00    +0.000 A 
ATOM      2  C   UNL     1      -4.909  11.511  16.528  0.00  0.00    +0.000 A 
ATOM      3  C   UNL     1      -3.635  10.926  16.557  0.00  0.00    +0.000 A 
ATOM      4  C   UNL     1      -2.913  10.938  17.748  0.00  0.00    +0.000 A 
ATOM      5  C   UNL     1      -3.468  11.645  18.860  0.00  0.00    +0.000 A 
ATOM      6  C   UNL     1      -4.732  12.241  18.852  0.00  0.00    +0.000 A 
ATOM      7  O   UNL     1      -5.303  12.897  19.955  0.00  0.00    +0.000 OA
ATOM      8  C   UNL     1      -4.487  13.296  20.994  0.00  0.00    +0.000 A 
ATOM      9  C   UNL     1      -3.904  14.566  20.975  0.00  0.00    +0.000 A 
ATOM     10  C   UNL     1      -2.837  14.851  21.839  0.00  0.00    +0.000 A 
ATOM     11  C   UNL     1      -2.377  13.857  22.707  0.00  0.00    +0.000 A 
ATOM     12  C   UNL     1      -3.253  12.804  23.015  0.00  0.00    +0.000 A 
ATOM     13  C   UNL     1      -4.260  12.472  22.097  0.00  0.00    +0.000 A 
ATOM     14  C   UNL     1      -0.846  13.601  22.819  0.00  0.00    +0.000 C 
ATOM     15  C   UNL     1      -0.589  12.255  22.118  0.00  0.00    +0.000 C 
ATOM     16  N   UNL     1      -0.600  11.059  22.927  0.00  0.00    +0.000 N 
ATOM     17  C   UNL     1      -0.222  10.010  22.105  0.00  0.00    +0.000 C 
ATOM     18  O   UNL     1      -0.689   8.888  22.224  0.00  0.00    +0.000 OA
ATOM     19  N   UNL     1       0.528  10.510  21.065  0.00  0.00    +0.000 N 
ATOM     20  C   UNL     1       0.380   9.904  19.722  0.00  0.00    +0.000 C 
ATOM     21  C   UNL     1      -0.963  10.418  19.198  0.00  0.00    +0.000 C 
ATOM     22  C   UNL     1      -1.578  10.160  17.835  0.00  0.00    +0.000 C 
ATOM     23  C   UNL     1       0.563  11.910  21.179  0.00  0.00    +0.000 C 
ATOM     24  O   UNL     1       1.131  12.689  20.427  0.00  0.00    +0.000 OA
ATOM     25  H   UNL     1      -1.395  10.837  23.514  0.00  0.00    +0.000 HD
ENDROOT
BRANCH   1  27
ATOM     26  C   UNL     1      -6.742  13.850  16.833  0.00  0.00    +0.000 C 
ATOM     27  O   UNL     1      -6.742  12.605  17.536  0.00  0.00    +0.000 OA
ENDBRANCH   1  27
TORSDOF 1
ENDMDL
MODEL 5
REMARK VINA RESULT:      -7.1      2.411      4.783
REMARK  Name = 
REMARK  2 active torsions:
REMARK  status: ('A' for Active; 'I' for Inactive)
REMARK    1  A    between atoms: C_1  and  O_2
REMARK    2  A    between atoms: O_2  and  C_3
REMARK                            x       y       z     vdW  Elec       q    Type
REMARK                         _______ _______ _______ _____ _____    ______ ____
ROOT
ATOM      1  C   UNL     1      -0.445  12.092  19.644  0.00  0.00    +0.000 A 
ATOM      2  C   UNL     1      -0.418  11.177  18.581  0.00  0.00    +0.000 A 
ATOM      3  C   UNL     1      -1.599  10.706  17.992  0.00  0.00    +0.000 A 
ATOM      4  C   UNL     1      -2.824  11.161  18.474  0.00  0.00    +0.000 A 
ATOM      5  C   UNL     1      -2.816  12.012  19.623  0.00  0.00    +0.000 A 
ATOM      6  C   UNL     1      -1.652  12.490  20.231  0.00  0.00    +0.000 A 
ATOM      7  O   UNL     1      -1.637  13.363  21.331  0.00  0.00    +0.000 OA
ATOM      8  C   UNL     1      -2.780  13.505  22.091  0.00  0.00    +0.000 A 
ATOM      9  C   UNL     1      -2.995  12.671  23.190  0.00  0.00    +0.000 A 
ATOM     10  C   UNL     1      -4.275  12.587  23.758  0.00  0.00    +0.000 A 
ATOM     11  C   UNL     1      -5.315  13.345  23.209  0.00  0.00    +0.000 A 
ATOM     12  C   UNL     1      -4.968  14.471  22.447  0.00  0.00    +0.000 A 
ATOM     13  C   UNL     1      -3.719  14.499  21.811  0.00  0.00    +0.000 A 
ATOM     14  C   UNL     1      -6.685  12.661  22.937  0.00  0.00    +0.000 C 
ATOM     15  C   UNL     1      -6.794  12.525  21.408  0.00  0.00    +0.000 C 
ATOM     16  N   UNL     1      -7.455  13.583  20.681  0.00  0.00    +0.000 N 
ATOM     17  C   UNL     1      -7.540  13.176  19.360  0.00  0.00    +0.000 C 
ATOM     18  O   UNL     1      -7.444  13.961  18.429  0.00  0.00    +0.000 OA
ATOM     19  N   UNL     1      -7.504  11.801  19.317  0.00  0.00    +0.000 N 
ATOM     20  C   UNL     1      -6.791  11.140  18.200  0.00  0.00    +0.000 C 
ATOM     21  C   UNL     1      -5.303  11.318  18.516  0.00  0.00    +0.000 C 
ATOM     22  C   UNL     1      -4.125  10.772  17.732  0.00  0.00    +0.000 C 
ATOM     23  C   UNL     1      -7.312  11.323  20.624  0.00  0.00    +0.000 C 
ATOM     24  O   UNL     1      -7.224  10.153  20.966  0.00  0.00    +0.000 OA
ATOM     25  H   UNL     1      -7.157  14.546  20.781  0.00  0.00    +0.000 HD
ENDROOT
BRANCH   1  27
ATOM     26  C   UNL     1       1.707  12.692  19.039  0.00  0.00    +0.000 C 
ATOM     27  O   UNL     1       0.775  12.525  20.110  0.00  0.00    +0.000 OA
ENDBRANCH   1  27
TORSDOF 1
ENDMDL
MODEL 6
REMARK VINA RESULT:      -7.1      2.795      5.887
REMARK  Name = 
REMARK  2 active torsions:
REMARK  status: ('A' for Active; 'I' for Inactive)
REMARK    1  A    between atoms: C_1  and  O_2
REMARK    2  A    between atoms: O_2  and  C_3
REMARK                            x       y       z     vdW  Elec       q    Type
REMARK                         _______ _______ _______ _____ _____    ______ ____
ROOT
ATOM      1  C   UNL     1      -6.160  12.942  23.175  0.00  0.00    +0.000 A 
ATOM      2  C   UNL     1      -5.317  12.934  24.296  0.00  0.00    +0.000 A 
ATOM      3  C   UNL     1      -3.932  12.767  24.168  0.00  0.00    +0.000 A 
ATOM      4  C   UNL     1      -3.383  12.611  22.897  0.00  0.00    +0.000 A 
ATOM      5  C   UNL     1      -4.282  12.522  21.788  0.00  0.00    +0.000 A 
ATOM      6  C   UNL     1      -5.666  12.678  21.892  0.00  0.00    +0.000 A 
ATOM      7  O   UNL     1      -6.550  12.638  20.801  0.00  0.00    +0.000 OA
ATOM      8  C   UNL     1      -6.124  12.081  19.612  0.00  0.00    +0.000 A 
ATOM      9  C   UNL     1      -6.310  10.717  19.375  0.00  0.00    +0.000 A 
ATOM     10  C   UNL     1      -5.603  10.091  18.338  0.00  0.00    +0.000 A 
ATOM     11  C   UNL     1      -4.723  10.848  17.559  0.00  0.00    +0.000 A 
ATOM     12  C   UNL     1      -4.914  12.238  17.524  0.00  0.00    +0.000 A 
ATOM     13  C   UNL     1      -5.542  12.861  18.612  0.00  0.00    +0.000 A 
ATOM     14  C   UNL     1      -3.300  10.290  17.268  0.00  0.00    +0.000 C 
ATOM     15  C   UNL     1      -2.331  11.145  18.103  0.00  0.00    +0.000 C 
ATOM     16  N   UNL     1      -1.738  12.302  17.477  0.00  0.00    +0.000 N 
ATOM     17  C   UNL     1      -0.820  12.824  18.373  0.00  0.00    +0.000 C 
ATOM     18  O   UNL     1      -0.619  14.024  18.476  0.00  0.00    +0.000 OA
ATOM     19  N   UNL     1      -0.407  11.820  19.218  0.00  0.00    +0.000 N 
ATOM     20  C   UNL     1      -0.144  12.144  20.639  0.00  0.00    +0.000 C 
ATOM     21  C   UNL     1      -1.528  12.312  21.271  0.00  0.00    +0.000 C 
ATOM     22  C   UNL     1      -1.845  12.585  22.730  0.00  0.00    +0.000 C 
ATOM     23  C   UNL     1      -1.131  10.656  18.909  0.00  0.00    +0.000 C 
ATOM     24  O   UNL     1      -1.033   9.569  19.460  0.00  0.00    +0.000 OA
ATOM     25  H   UNL     1      -2.317  13.012  17.044  0.00  0.00    +0.000 HD
ENDROOT
BRANCH   1  27
ATOM     26  C   UNL     1      -7.708  14.449  24.004  0.00  0.00    +0.000 C 
ATOM     27  O   UNL     1      -7.496  13.164  23.416  0.00  0.00    +0.000 OA
ENDBRANCH   1  27
TORSDOF 1
ENDMDL
MODEL 7
REMARK VINA RESULT:      -7.0      1.156      1.347
REMARK  Name = 
REMARK  2 active torsions:
REMARK  status: ('A' for Active; 'I' for Inactive)
REMARK    1  A    between atoms: C_1  and  O_2
REMARK    2  A    between atoms: O_2  and  C_3
REMARK                            x       y       z     vdW  Elec       q    Type
REMARK                         _______ _______ _______ _____ _____    ______ ____
ROOT
ATOM      1  C   UNL     1      -2.739  10.360  17.119  0.00  0.00    +0.000 A 
ATOM      2  C   UNL     1      -1.391  10.561  17.450  0.00  0.00    +0.000 A 
ATOM      3  C   UNL     1      -1.018  11.292  18.586  0.00  0.00    +0.000 A 
ATOM      4  C   UNL     1      -2.011  11.825  19.404  0.00  0.00    +0.000 A 
ATOM      5  C   UNL     1      -3.371  11.687  18.981  0.00  0.00    +0.000 A 
ATOM      6  C   UNL     1      -3.766  10.969  17.850  0.00  0.00    +0.000 A 
ATOM      7  O   UNL     1      -5.102  10.791  17.454  0.00  0.00    +0.000 OA
ATOM      8  C   UNL     1      -6.072  11.626  17.971  0.00  0.00    +0.000 A 
ATOM      9  C   UNL     1      -6.393  12.815  17.311  0.00  0.00    +0.000 A 
ATOM     10  C   UNL     1      -7.123  13.806  17.985  0.00  0.00    +0.000 A 
ATOM     11  C   UNL     1      -7.516  13.582  19.308  0.00  0.00    +0.000 A 
ATOM     12  C   UNL     1      -7.583  12.253  19.752  0.00  0.00    +0.000 A 
ATOM     13  C   UNL     1      -6.778  11.289  19.127  0.00  0.00    +0.000 A 
ATOM     14  C   UNL     1      -7.291  14.703  20.363  0.00  0.00    +0.000 C 
ATOM     15  C   UNL     1      -6.143  14.214  21.263  0.00  0.00    +0.000 C 
ATOM     16  N   UNL     1      -6.488  13.491  22.465  0.00  0.00    +0.000 N 
ATOM     17  C   UNL     1      -5.310  13.274  23.160  0.00  0.00    +0.000 C 
ATOM     18  O   UNL     1      -5.113  12.257  23.806  0.00  0.00    +0.000 OA
ATOM     19  N   UNL     1      -4.397  14.238  22.797  0.00  0.00    +0.000 N 
ATOM     20  C   UNL     1      -2.969  13.862  22.682  0.00  0.00    +0.000 C 
ATOM     21  C   UNL     1      -2.871  13.065  21.379  0.00  0.00    +0.000 C 
ATOM     22  C   UNL     1      -1.617  12.495  20.742  0.00  0.00    +0.000 C 
ATOM     23  C   UNL     1      -4.973  15.036  21.794  0.00  0.00    +0.000 C 
ATOM     24  O   UNL     1      -4.450  15.986  21.229  0.00  0.00    +0.000 OA
ATOM     25  H   UNL     1      -7.083  12.672  22.425  0.00  0.00    +0.000 HD
ENDROOT
BRANCH   1  27
ATOM     26  C   UNL     1      -3.042  10.382  14.825  0.00  0.00    +0.000 C 
ATOM     27  O   UNL     1      -2.988   9.585  16.010  0.00  0.00    +0.000 OA
ENDBRANCH   1  27
TORSDOF 1
ENDMDL
MODEL 8
REMARK VINA RESULT:      -6.9      1.512      4.228
REMARK  Name = 
REMARK  2 active torsions:
REMARK  status: ('A' for Active; 'I' for Inactive)
REMARK    1  A    between atoms: C_1  and  O_2
REMARK    2  A    between atoms: O_2  and  C_3
REMARK                            x       y       z     vdW  Elec       q    Type
REMARK                         _______ _______ _______ _____ _____    ______ ____
ROOT
ATOM      1  C   UNL     1      -3.435  11.393  17.690  0.00  0.00    +0.000 A 
ATOM      2  C   UNL     1      -4.648  10.906  17.182  0.00  0.00    +0.000 A 
ATOM      3  C   UNL     1      -5.860  11.119  17.853  0.00  0.00    +0.000 A 
ATOM      4  C   UNL     1      -5.855  11.833  19.049  0.00  0.00    +0.000 A 
ATOM      5  C   UNL     1      -4.590  12.225  19.588  0.00  0.00    +0.000 A 
ATOM      6  C   UNL     1      -3.369  12.019  18.941  0.00  0.00    +0.000 A 
ATOM      7  O   UNL     1      -2.127  12.442  19.443  0.00  0.00    +0.000 OA
ATOM      8  C   UNL     1      -2.019  12.767  20.780  0.00  0.00    +0.000 A 
ATOM      9  C   UNL     1      -1.676  11.784  21.711  0.00  0.00    +0.000 A 
ATOM     10  C   UNL     1      -1.882  12.022  23.078  0.00  0.00    +0.000 A 
ATOM     11  C   UNL     1      -2.428  13.244  23.483  0.00  0.00    +0.000 A 
ATOM     12  C   UNL     1      -2.321  14.330  22.601  0.00  0.00    +0.000 A 
ATOM     13  C   UNL     1      -2.207  14.076  21.226  0.00  0.00    +0.000 A 
ATOM     14  C   UNL     1      -3.588  13.246  24.520  0.00  0.00    +0.000 C 
ATOM     15  C   UNL     1      -4.855  13.633  23.738  0.00  0.00    +0.000 C 
ATOM     16  N   UNL     1      -5.221  15.029  23.693  0.00  0.00    +0.000 N 
ATOM     17  C   UNL     1      -6.446  15.107  23.051  0.00  0.00    +0.000 C 
ATOM     18  O   UNL     1      -6.740  16.040  22.320  0.00  0.00    +0.000 OA
ATOM     19  N   UNL     1      -7.098  13.904  23.195  0.00  0.00    +0.000 N 
ATOM     20  C   UNL     1      -7.915  13.396  22.069  0.00  0.00    +0.000 C 
ATOM     21  C   UNL     1      -6.903  12.894  21.036  0.00  0.00    +0.000 C 
ATOM     22  C   UNL     1      -7.200  12.210  19.715  0.00  0.00    +0.000 C 
ATOM     23  C   UNL     1      -6.244  13.016  23.870  0.00  0.00    +0.000 C 
ATOM     24  O   UNL     1      -6.487  11.855  24.167  0.00  0.00    +0.000 OA
ATOM     25  H   UNL     1      -4.561  15.729  23.374  0.00  0.00    +0.000 HD
ENDROOT
BRANCH   1  27
ATOM     26  C   UNL     1      -2.663  10.598  15.659  0.00  0.00    +0.000 C 
ATOM     27  O   UNL     1      -2.316  11.170  16.922  0.00  0.00    +0.000 OA
ENDBRANCH   1  27
TORSDOF 1
ENDMDL
MODEL 9
REMARK VINA RESULT:      -6.9      1.948      4.698
REMARK  Name = 
REMARK  2 active torsions:
REMARK  status: ('A' for Active; 'I' for Inactive)
REMARK    1  A    between atoms: C_1  and  O_2
REMARK    2  A    between atoms: O_2  and  C_3
REMARK                            x       y       z     vdW  Elec       q    Type
REMARK                         _______ _______ _______ _____ _____    ______ ____
ROOT
ATOM      1  C   UNL     1      -3.190  10.887  16.497  0.00  0.00    +0.000 A 
ATOM      2  C   UNL     1      -4.570  11.031  16.292  0.00  0.00    +0.000 A 
ATOM      3  C   UNL     1      -5.384  11.683  17.228  0.00  0.00    +0.000 A 
ATOM      4  C   UNL     1      -4.805  12.201  18.384  0.00  0.00    +0.000 A 
ATOM      5  C   UNL     1      -3.416  11.946  18.607  0.00  0.00    +0.000 A 
ATOM      6  C   UNL     1      -2.586  11.294  17.692  0.00  0.00    +0.000 A 
ATOM      7  O   UNL     1      -1.211  11.081  17.884  0.00  0.00    +0.000 OA
ATOM      8  C   UNL     1      -0.686  11.191  19.156  0.00  0.00    +0.000 A 
ATOM      9  C   UNL     1      -0.628  10.069  19.986  0.00  0.00    +0.000 A 
ATOM     10  C   UNL     1      -0.408  10.236  21.362  0.00  0.00    +0.000 A 
ATOM     11  C   UNL     1      -0.249  11.527  21.876  0.00  0.00    +0.000 A 
ATOM     12  C   UNL     1       0.141  12.539  20.986  0.00  0.00    +0.000 A 
ATOM     13  C   UNL     1      -0.168  12.399  19.625  0.00  0.00    +0.000 A 
ATOM     14  C   UNL     1      -1.033  11.931  23.157  0.00  0.00    +0.000 C 
ATOM     15  C   UNL     1      -2.128  12.908  22.694  0.00  0.00    +0.000 C 
ATOM     16  N   UNL     1      -1.831  14.320  22.726  0.00  0.00    +0.000 N 
ATOM     17  C   UNL     1      -2.998  14.988  22.391  0.00  0.00    +0.000 C 
ATOM     18  O   UNL     1      -2.992  16.024  21.744  0.00  0.00    +0.000 OA
ATOM     19  N   UNL     1      -4.071  14.182  22.692  0.00  0.00    +0.000 N 
ATOM     20  C   UNL     1      -5.249  14.196  21.795  0.00  0.00    +0.000 C 
ATOM     21  C   UNL     1      -4.815  13.408  20.556  0.00  0.00    +0.000 C 
ATOM     22  C   UNL     1      -5.662  13.058  19.347  0.00  0.00    +0.000 C 
ATOM     23  C   UNL     1      -3.582  12.948  23.153  0.00  0.00    +0.000 C 
ATOM     24  O   UNL     1      -4.249  11.986  23.507  0.00  0.00    +0.000 OA
ATOM     25  H   UNL     1      -1.014  14.690  22.256  0.00  0.00    +0.000 HD
ENDROOT
BRANCH   1  27
ATOM     26  C   UNL     1      -3.311  10.037  14.348  0.00  0.00    +0.000 C 
ATOM     27  O   UNL     1      -2.483  10.276  15.488  0.00  0.00    +0.000 OA
ENDBRANCH   1  27
TORSDOF 1
ENDMDL
