MODEL 1
REMARK VINA RESULT:      -6.7      0.000      0.000
REMARK  Name = 
REMARK  11 active torsions:
REMARK  status: ('A' for Active; 'I' for Inactive)
REMARK    1  A    between atoms: C_1  and  O_2
REMARK    2  A    between atoms: O_2  and  C_3
REMARK    3  A    between atoms: C_6  and  C_7
REMARK    4  A    between atoms: C_7  and  C_8
REMARK    5  A    between atoms: C_8  and  C_9
REMARK    6  A    between atoms: C_9  and  C_11
REMARK    7  A    between atoms: C_14  and  O_15
REMARK    8  A    between atoms: O_15  and  C_16
REMARK    9  A    between atoms: C_17  and  O_18
REMARK   10  A    between atoms: O_18  and  C_19
REMARK   11  A    between atoms: C_22  and  O_23
REMARK                            x       y       z     vdW  Elec       q    Type
REMARK                         _______ _______ _______ _____ _____    ______ ____
ROOT
ATOM      1  C   UNL     1       3.178   2.511  18.602  0.00  0.00    +0.000 C 
ENDROOT
BRANCH   1   2
ATOM      2  C   UNL     1       4.465   2.895  19.314  0.00  0.00    +0.000 C 
ATOM      3  O   UNL     1       4.815   2.370  20.369  0.00  0.00    +0.000 OA
BRANCH   2   4
ATOM      4  C   UNL     1       5.322   3.950  18.684  0.00  0.00    +0.000 A 
ATOM      5  C   UNL     1       5.736   5.074  19.401  0.00  0.00    +0.000 A 
ATOM      6  C   UNL     1       6.511   6.059  18.784  0.00  0.00    +0.000 A 
ATOM      7  C   UNL     1       6.899   5.947  17.443  0.00  0.00    +0.000 A 
ATOM      8  C   UNL     1       6.501   4.807  16.718  0.00  0.00    +0.000 A 
ATOM      9  C   UNL     1       5.716   3.822  17.349  0.00  0.00    +0.000 A 
BRANCH   7  10
ATOM     10  O   UNL     1       7.650   6.902  16.811  0.00  0.00    +0.000 OA
ATOM     11  C   UNL     1       7.865   8.141  17.475  0.00  0.00    +0.000 C 
ENDBRANCH   7  10
BRANCH   8  12
ATOM     12  O   UNL     1       6.775   4.491  15.412  0.00  0.00    +0.000 OA
ATOM     13  C   UNL     1       5.729   4.539  14.453  0.00  0.00    +0.000 C 
ENDBRANCH   8  12
ENDBRANCH   2   4
ENDBRANCH   1   2
BRANCH   1  14
ATOM     14  C   UNL     1       1.936   3.162  19.203  0.00  0.00    +0.000 C 
BRANCH  14  18
ATOM     15  C   UNL     1       2.161   7.495  19.010  0.00  0.00    +0.000 A 
ATOM     16  C   UNL     1       2.270   6.713  17.854  0.00  0.00    +0.000 A 
ATOM     17  C   UNL     1       2.201   5.317  17.910  0.00  0.00    +0.000 A 
ATOM     18  C   UNL     1       2.026   4.669  19.136  0.00  0.00    +0.000 A 
ATOM     19  C   UNL     1       1.905   5.446  20.297  0.00  0.00    +0.000 A 
ATOM     20  C   UNL     1       1.977   6.846  20.236  0.00  0.00    +0.000 A 
BRANCH  15  22
ATOM     21  C   UNL     1       1.292   9.427  17.898  0.00  0.00    +0.000 C 
ATOM     22  O   UNL     1       2.254   8.837  18.761  0.00  0.00    +0.000 OA
ENDBRANCH  15  22
BRANCH  20  23
ATOM     23  O   UNL     1       1.861   7.547  21.405  0.00  0.00    +0.000 OA
ATOM     24  H   UNL     1       2.742   7.664  21.795  0.00  0.00    +0.000 HD
ENDBRANCH  20  23
ENDBRANCH  14  18
ENDBRANCH   1  14
TORSDOF 8
ENDMDL
MODEL 2
REMARK VINA RESULT:      -6.6      1.583      3.207
REMARK  Name = 
REMARK  11 active torsions:
REMARK  status: ('A' for Active; 'I' for Inactive)
REMARK    1  A    between atoms: C_1  and  O_2
REMARK    2  A    between atoms: O_2  and  C_3
REMARK    3  A    between atoms: C_6  and  C_7
REMARK    4  A    between atoms: C_7  and  C_8
REMARK    5  A    between atoms: C_8  and  C_9
REMARK    6  A    between atoms: C_9  and  C_11
REMARK    7  A    between atoms: C_14  and  O_15
REMARK    8  A    between atoms: O_15  and  C_16
REMARK    9  A    between atoms: C_17  and  O_18
REMARK   10  A    between atoms: O_18  and  C_19
REMARK   11  A    between atoms: C_22  and  O_23
REMARK                            x       y       z     vdW  Elec       q    Type
REMARK                         _______ _______ _______ _____ _____    ______ ____
ROOT
ATOM      1  C   UNL     1       3.649   5.147  19.463  0.00  0.00    +0.000 C 
ENDROOT
BRANCH   1   2
ATOM      2  C   UNL     1       4.739   4.192  19.006  0.00  0.00    +0.000 C 
ATOM      3  O   UNL     1       5.048   3.190  19.648  0.00  0.00    +0.000 OA
BRANCH   2   4
ATOM      4  C   UNL     1       5.444   4.501  17.721  0.00  0.00    +0.000 A 
ATOM      5  C   UNL     1       5.216   3.751  16.567  0.00  0.00    +0.000 A 
ATOM      6  C   UNL     1       5.907   4.039  15.388  0.00  0.00    +0.000 A 
ATOM      7  C   UNL     1       6.838   5.084  15.327  0.00  0.00    +0.000 A 
ATOM      8  C   UNL     1       7.061   5.858  16.482  0.00  0.00    +0.000 A 
ATOM      9  C   UNL     1       6.361   5.556  17.666  0.00  0.00    +0.000 A 
BRANCH   7  10
ATOM     10  O   UNL     1       7.537   5.382  14.188  0.00  0.00    +0.000 OA
ATOM     11  C   UNL     1       7.252   4.641  13.007  0.00  0.00    +0.000 C 
ENDBRANCH   7  10
BRANCH   8  12
ATOM     12  O   UNL     1       7.910   6.924  16.641  0.00  0.00    +0.000 OA
ATOM     13  C   UNL     1       7.606   7.911  17.615  0.00  0.00    +0.000 C 
ENDBRANCH   8  12
ENDBRANCH   2   4
ENDBRANCH   1   2
BRANCH   1  14
ATOM     14  C   UNL     1       3.068   5.988  18.330  0.00  0.00    +0.000 C 
BRANCH  14  18
ATOM     15  C   UNL     1       0.978   9.463  19.886  0.00  0.00    +0.000 A 
ATOM     16  C   UNL     1       1.317   8.390  20.719  0.00  0.00    +0.000 A 
ATOM     17  C   UNL     1       1.987   7.267  20.223  0.00  0.00    +0.000 A 
ATOM     18  C   UNL     1       2.330   7.192  18.870  0.00  0.00    +0.000 A 
ATOM     19  C   UNL     1       2.005   8.268  18.033  0.00  0.00    +0.000 A 
ATOM     20  C   UNL     1       1.330   9.391  18.534  0.00  0.00    +0.000 A 
BRANCH  15  22
ATOM     21  C   UNL     1       1.038  11.668  20.816  0.00  0.00    +0.000 C 
ATOM     22  O   UNL     1       0.325  10.469  20.546  0.00  0.00    +0.000 OA
ENDBRANCH  15  22
BRANCH  20  23
ATOM     23  O   UNL     1       1.032  10.404  17.664  0.00  0.00    +0.000 OA
ATOM     24  H   UNL     1       1.491  10.246  16.823  0.00  0.00    +0.000 HD
ENDBRANCH  20  23
ENDBRANCH  14  18
ENDBRANCH   1  14
TORSDOF 8
ENDMDL
MODEL 3
REMARK VINA RESULT:      -6.6      1.720      3.260
REMARK  Name = 
REMARK  11 active torsions:
REMARK  status: ('A' for Active; 'I' for Inactive)
REMARK    1  A    between atoms: C_1  and  O_2
REMARK    2  A    between atoms: O_2  and  C_3
REMARK    3  A    between atoms: C_6  and  C_7
REMARK    4  A    between atoms: C_7  and  C_8
REMARK    5  A    between atoms: C_8  and  C_9
REMARK    6  A    between atoms: C_9  and  C_11
REMARK    7  A    between atoms: C_14  and  O_15
REMARK    8  A    between atoms: O_15  and  C_16
REMARK    9  A    between atoms: C_17  and  O_18
REMARK   10  A    between atoms: O_18  and  C_19
REMARK   11  A    between atoms: C_22  and  O_23
REMARK                            x       y       z     vdW  Elec       q    Type
REMARK                         _______ _______ _______ _____ _____    ______ ____
ROOT
ATOM      1  C   UNL     1       2.071   5.152  19.380  0.00  0.00    +0.000 C 
ENDROOT
BRANCH   1   2
ATOM      2  C   UNL     1       3.185   4.119  19.377  0.00  0.00    +0.000 C 
ATOM      3  O   UNL     1       3.218   3.183  20.173  0.00  0.00    +0.000 OA
BRANCH   2   4
ATOM      4  C   UNL     1       4.269   4.265  18.352  0.00  0.00    +0.000 A 
ATOM      5  C   UNL     1       3.996   4.171  16.987  0.00  0.00    +0.000 A 
ATOM      6  C   UNL     1       5.027   4.281  16.051  0.00  0.00    +0.000 A 
ATOM      7  C   UNL     1       6.353   4.493  16.450  0.00  0.00    +0.000 A 
ATOM      8  C   UNL     1       6.634   4.607  17.825  0.00  0.00    +0.000 A 
ATOM      9  C   UNL     1       5.587   4.491  18.760  0.00  0.00    +0.000 A 
BRANCH   7  10
ATOM     10  O   UNL     1       7.384   4.595  15.555  0.00  0.00    +0.000 OA
ATOM     11  C   UNL     1       7.071   4.682  14.170  0.00  0.00    +0.000 C 
ENDBRANCH   7  10
BRANCH   8  12
ATOM     12  O   UNL     1       7.846   4.825  18.431  0.00  0.00    +0.000 OA
ATOM     13  C   UNL     1       7.979   5.903  19.344  0.00  0.00    +0.000 C 
ENDBRANCH   8  12
ENDBRANCH   2   4
ENDBRANCH   1   2
BRANCH   1  14
ATOM     14  C   UNL     1       2.096   6.065  20.602  0.00  0.00    +0.000 C 
BRANCH  14  18
ATOM     15  C   UNL     1       0.997  10.133  19.551  0.00  0.00    +0.000 A 
ATOM     16  C   UNL     1       0.719   9.614  20.822  0.00  0.00    +0.000 A 
ATOM     17  C   UNL     1       1.067   8.304  21.165  0.00  0.00    +0.000 A 
ATOM     18  C   UNL     1       1.702   7.477  20.234  0.00  0.00    +0.000 A 
ATOM     19  C   UNL     1       1.995   7.994  18.964  0.00  0.00    +0.000 A 
ATOM     20  C   UNL     1       1.641   9.308  18.623  0.00  0.00    +0.000 A 
BRANCH  15  22
ATOM     21  C   UNL     1      -0.701  11.658  18.831  0.00  0.00    +0.000 C 
ATOM     22  O   UNL     1       0.581  11.428  19.398  0.00  0.00    +0.000 OA
ENDBRANCH  15  22
BRANCH  20  23
ATOM     23  O   UNL     1       1.945   9.750  17.365  0.00  0.00    +0.000 OA
ATOM     24  H   UNL     1       2.700  10.359  17.415  0.00  0.00    +0.000 HD
ENDBRANCH  20  23
ENDBRANCH  14  18
ENDBRANCH   1  14
TORSDOF 8
ENDMDL
MODEL 4
REMARK VINA RESULT:      -6.6      1.394      5.303
REMARK  Name = 
REMARK  11 active torsions:
REMARK  status: ('A' for Active; 'I' for Inactive)
REMARK    1  A    between atoms: C_1  and  O_2
REMARK    2  A    between atoms: O_2  and  C_3
REMARK    3  A    between atoms: C_6  and  C_7
REMARK    4  A    between atoms: C_7  and  C_8
REMARK    5  A    between atoms: C_8  and  C_9
REMARK    6  A    between atoms: C_9  and  C_11
REMARK    7  A    between atoms: C_14  and  O_15
REMARK    8  A    between atoms: O_15  and  C_16
REMARK    9  A    between atoms: C_17  and  O_18
REMARK   10  A    between atoms: O_18  and  C_19
REMARK   11  A    between atoms: C_22  and  O_23
REMARK                            x       y       z     vdW  Elec       q    Type
REMARK                         _______ _______ _______ _____ _____    ______ ____
ROOT
ATOM      1  C   UNL     1       3.074   2.787  17.587  0.00  0.00    +0.000 C 
ENDROOT
BRANCH   1   2
ATOM      2  C   UNL     1       1.792   3.256  18.256  0.00  0.00    +0.000 C 
ATOM      3  O   UNL     1       0.755   2.597  18.225  0.00  0.00    +0.000 OA
BRANCH   2   4
ATOM      4  C   UNL     1       1.821   4.569  18.976  0.00  0.00    +0.000 A 
ATOM      5  C   UNL     1       1.490   4.664  20.329  0.00  0.00    +0.000 A 
ATOM      6  C   UNL     1       1.495   5.904  20.972  0.00  0.00    +0.000 A 
ATOM      7  C   UNL     1       1.835   7.078  20.288  0.00  0.00    +0.000 A 
ATOM      8  C   UNL     1       2.187   6.989  18.927  0.00  0.00    +0.000 A 
ATOM      9  C   UNL     1       2.175   5.734  18.288  0.00  0.00    +0.000 A 
BRANCH   7  10
ATOM     10  O   UNL     1       1.839   8.307  20.891  0.00  0.00    +0.000 OA
ATOM     11  C   UNL     1       0.610   9.018  20.984  0.00  0.00    +0.000 C 
ENDBRANCH   7  10
BRANCH   8  12
ATOM     12  O   UNL     1       2.561   7.998  18.077  0.00  0.00    +0.000 OA
ATOM     13  C   UNL     1       3.750   7.857  17.315  0.00  0.00    +0.000 C 
ENDBRANCH   8  12
ENDBRANCH   2   4
ENDBRANCH   1   2
BRANCH   1  14
ATOM     14  C   UNL     1       4.309   2.942  18.470  0.00  0.00    +0.000 C 
BRANCH  14  18
ATOM     15  C   UNL     1       6.911   6.094  17.002  0.00  0.00    +0.000 A 
ATOM     16  C   UNL     1       6.784   5.841  18.374  0.00  0.00    +0.000 A 
ATOM     17  C   UNL     1       5.945   4.830  18.853  0.00  0.00    +0.000 A 
ATOM     18  C   UNL     1       5.206   4.047  17.961  0.00  0.00    +0.000 A 
ATOM     19  C   UNL     1       5.337   4.286  16.586  0.00  0.00    +0.000 A 
ATOM     20  C   UNL     1       6.178   5.304  16.111  0.00  0.00    +0.000 A 
BRANCH  15  22
ATOM     21  C   UNL     1       7.751   8.262  17.569  0.00  0.00    +0.000 C 
ATOM     22  O   UNL     1       7.773   7.120  16.724  0.00  0.00    +0.000 OA
ENDBRANCH  15  22
BRANCH  20  23
ATOM     23  O   UNL     1       6.255   5.494  14.758  0.00  0.00    +0.000 OA
ATOM     24  H   UNL     1       6.569   6.396  14.581  0.00  0.00    +0.000 HD
ENDBRANCH  20  23
ENDBRANCH  14  18
ENDBRANCH   1  14
TORSDOF 8
ENDMDL
MODEL 5
REMARK VINA RESULT:      -6.6      1.744      5.352
REMARK  Name = 
REMARK  11 active torsions:
REMARK  status: ('A' for Active; 'I' for Inactive)
REMARK    1  A    between atoms: C_1  and  O_2
REMARK    2  A    between atoms: O_2  and  C_3
REMARK    3  A    between atoms: C_6  and  C_7
REMARK    4  A    between atoms: C_7  and  C_8
REMARK    5  A    between atoms: C_8  and  C_9
REMARK    6  A    between atoms: C_9  and  C_11
REMARK    7  A    between atoms: C_14  and  O_15
REMARK    8  A    between atoms: O_15  and  C_16
REMARK    9  A    between atoms: C_17  and  O_18
REMARK   10  A    between atoms: O_18  and  C_19
REMARK   11  A    between atoms: C_22  and  O_23
REMARK                            x       y       z     vdW  Elec       q    Type
REMARK                         _______ _______ _______ _____ _____    ______ ____
ROOT
ATOM      1  C   UNL     1       3.945   3.059  17.845  0.00  0.00    +0.000 C 
ENDROOT
BRANCH   1   2
ATOM      2  C   UNL     1       2.510   3.534  18.005  0.00  0.00    +0.000 C 
ATOM      3  O   UNL     1       1.568   2.992  17.430  0.00  0.00    +0.000 OA
BRANCH   2   4
ATOM      4  C   UNL     1       2.259   4.704  18.907  0.00  0.00    +0.000 A 
ATOM      5  C   UNL     1       1.897   4.528  20.243  0.00  0.00    +0.000 A 
ATOM      6  C   UNL     1       1.639   5.633  21.057  0.00  0.00    +0.000 A 
ATOM      7  C   UNL     1       1.741   6.940  20.564  0.00  0.00    +0.000 A 
ATOM      8  C   UNL     1       2.123   7.127  19.222  0.00  0.00    +0.000 A 
ATOM      9  C   UNL     1       2.377   6.005  18.409  0.00  0.00    +0.000 A 
BRANCH   7  10
ATOM     10  O   UNL     1       1.484   8.041  21.337  0.00  0.00    +0.000 OA
ATOM     11  C   UNL     1       0.128   8.392  21.584  0.00  0.00    +0.000 C 
ENDBRANCH   7  10
BRANCH   8  12
ATOM     12  O   UNL     1       2.295   8.306  18.543  0.00  0.00    +0.000 OA
ATOM     13  C   UNL     1       3.174   8.342  17.429  0.00  0.00    +0.000 C 
ENDBRANCH   8  12
ENDBRANCH   2   4
ENDBRANCH   1   2
BRANCH   1  14
ATOM     14  C   UNL     1       4.686   3.749  16.704  0.00  0.00    +0.000 C 
BRANCH  14  18
ATOM     15  C   UNL     1       7.554   6.627  18.240  0.00  0.00    +0.000 A 
ATOM     16  C   UNL     1       7.054   6.730  16.936  0.00  0.00    +0.000 A 
ATOM     17  C   UNL     1       6.133   5.804  16.435  0.00  0.00    +0.000 A 
ATOM     18  C   UNL     1       5.693   4.745  17.233  0.00  0.00    +0.000 A 
ATOM     19  C   UNL     1       6.180   4.642  18.544  0.00  0.00    +0.000 A 
ATOM     20  C   UNL     1       7.106   5.571  19.042  0.00  0.00    +0.000 A 
BRANCH  15  22
ATOM     21  C   UNL     1       8.225   8.912  18.011  0.00  0.00    +0.000 C 
ATOM     22  O   UNL     1       8.444   7.618  18.553  0.00  0.00    +0.000 OA
ENDBRANCH  15  22
BRANCH  20  23
ATOM     23  O   UNL     1       7.550   5.411  20.325  0.00  0.00    +0.000 OA
ATOM     24  H   UNL     1       8.071   6.190  20.582  0.00  0.00    +0.000 HD
ENDBRANCH  20  23
ENDBRANCH  14  18
ENDBRANCH   1  14
TORSDOF 8
ENDMDL
MODEL 6
REMARK VINA RESULT:      -6.6      1.298      2.016
REMARK  Name = 
REMARK  11 active torsions:
REMARK  status: ('A' for Active; 'I' for Inactive)
REMARK    1  A    between atoms: C_1  and  O_2
REMARK    2  A    between atoms: O_2  and  C_3
REMARK    3  A    between atoms: C_6  and  C_7
REMARK    4  A    between atoms: C_7  and  C_8
REMARK    5  A    between atoms: C_8  and  C_9
REMARK    6  A    between atoms: C_9  and  C_11
REMARK    7  A    between atoms: C_14  and  O_15
REMARK    8  A    between atoms: O_15  and  C_16
REMARK    9  A    between atoms: C_17  and  O_18
REMARK   10  A    between atoms: O_18  and  C_19
REMARK   11  A    between atoms: C_22  and  O_23
REMARK                            x       y       z     vdW  Elec       q    Type
REMARK                         _______ _______ _______ _____ _____    ______ ____
ROOT
ATOM      1  C   UNL     1       2.362   4.021  18.858  0.00  0.00    +0.000 C 
ENDROOT
BRANCH   1   2
ATOM      2  C   UNL     1       3.704   3.415  18.480  0.00  0.00    +0.000 C 
ATOM      3  O   UNL     1       3.903   2.202  18.485  0.00  0.00    +0.000 OA
BRANCH   2   4
ATOM      4  C   UNL     1       4.806   4.350  18.087  0.00  0.00    +0.000 A 
ATOM      5  C   UNL     1       5.641   4.933  19.042  0.00  0.00    +0.000 A 
ATOM      6  C   UNL     1       6.643   5.825  18.654  0.00  0.00    +0.000 A 
ATOM      7  C   UNL     1       6.844   6.154  17.307  0.00  0.00    +0.000 A 
ATOM      8  C   UNL     1       6.018   5.556  16.336  0.00  0.00    +0.000 A 
ATOM      9  C   UNL     1       5.008   4.661  16.739  0.00  0.00    +0.000 A 
BRANCH   7  10
ATOM     10  O   UNL     1       7.812   7.032  16.900  0.00  0.00    +0.000 OA
ATOM     11  C   UNL     1       7.941   8.266  17.596  0.00  0.00    +0.000 C 
ENDBRANCH   7  10
BRANCH   8  12
ATOM     12  O   UNL     1       6.047   5.724  14.975  0.00  0.00    +0.000 OA
ATOM     13  C   UNL     1       6.786   4.809  14.180  0.00  0.00    +0.000 C 
ENDBRANCH   8  12
ENDBRANCH   2   4
ENDBRANCH   1   2
BRANCH   1  14
ATOM     14  C   UNL     1       2.398   4.803  20.167  0.00  0.00    +0.000 C 
BRANCH  14  18
ATOM     15  C   UNL     1       1.503   9.003  19.515  0.00  0.00    +0.000 A 
ATOM     16  C   UNL     1       1.215   8.383  20.737  0.00  0.00    +0.000 A 
ATOM     17  C   UNL     1       1.497   7.031  20.952  0.00  0.00    +0.000 A 
ATOM     18  C   UNL     1       2.076   6.262  19.937  0.00  0.00    +0.000 A 
ATOM     19  C   UNL     1       2.379   6.879  18.715  0.00  0.00    +0.000 A 
ATOM     20  C   UNL     1       2.090   8.235  18.504  0.00  0.00    +0.000 A 
BRANCH  15  22
ATOM     21  C   UNL     1       0.428  10.850  20.592  0.00  0.00    +0.000 C 
ATOM     22  O   UNL     1       1.155  10.326  19.490  0.00  0.00    +0.000 OA
ENDBRANCH  15  22
BRANCH  20  23
ATOM     23  O   UNL     1       2.401   8.776  17.286  0.00  0.00    +0.000 OA
ATOM     24  H   UNL     1       3.351   8.971  17.257  0.00  0.00    +0.000 HD
ENDBRANCH  20  23
ENDBRANCH  14  18
ENDBRANCH   1  14
TORSDOF 8
ENDMDL
MODEL 7
REMARK VINA RESULT:      -6.5      1.356      2.558
REMARK  Name = 
REMARK  11 active torsions:
REMARK  status: ('A' for Active; 'I' for Inactive)
REMARK    1  A    between atoms: C_1  and  O_2
REMARK    2  A    between atoms: O_2  and  C_3
REMARK    3  A    between atoms: C_6  and  C_7
REMARK    4  A    between atoms: C_7  and  C_8
REMARK    5  A    between atoms: C_8  and  C_9
REMARK    6  A    between atoms: C_9  and  C_11
REMARK    7  A    between atoms: C_14  and  O_15
REMARK    8  A    between atoms: O_15  and  C_16
REMARK    9  A    between atoms: C_17  and  O_18
REMARK   10  A    between atoms: O_18  and  C_19
REMARK   11  A    between atoms: C_22  and  O_23
REMARK                            x       y       z     vdW  Elec       q    Type
REMARK                         _______ _______ _______ _____ _____    ______ ____
ROOT
ATOM      1  C   UNL     1       2.456   4.341  19.419  0.00  0.00    +0.000 C 
ENDROOT
BRANCH   1   2
ATOM      2  C   UNL     1       3.763   3.589  19.234  0.00  0.00    +0.000 C 
ATOM      3  O   UNL     1       4.070   2.620  19.926  0.00  0.00    +0.000 OA
BRANCH   2   4
ATOM      4  C   UNL     1       4.693   4.062  18.158  0.00  0.00    +0.000 A 
ATOM      5  C   UNL     1       4.454   3.777  16.813  0.00  0.00    +0.000 A 
ATOM      6  C   UNL     1       5.350   4.203  15.830  0.00  0.00    +0.000 A 
ATOM      7  C   UNL     1       6.503   4.927  16.160  0.00  0.00    +0.000 A 
ATOM      8  C   UNL     1       6.743   5.233  17.514  0.00  0.00    +0.000 A 
ATOM      9  C   UNL     1       5.834   4.796  18.497  0.00  0.00    +0.000 A 
BRANCH   7  10
ATOM     10  O   UNL     1       7.403   5.347  15.219  0.00  0.00    +0.000 OA
ATOM     11  C   UNL     1       7.244   4.892  13.880  0.00  0.00    +0.000 C 
ENDBRANCH   7  10
BRANCH   8  12
ATOM     12  O   UNL     1       7.791   5.933  18.054  0.00  0.00    +0.000 OA
ATOM     13  C   UNL     1       7.773   7.352  18.010  0.00  0.00    +0.000 C 
ENDBRANCH   8  12
ENDBRANCH   2   4
ENDBRANCH   1   2
BRANCH   1  14
ATOM     14  C   UNL     1       2.534   5.440  20.475  0.00  0.00    +0.000 C 
BRANCH  14  18
ATOM     15  C   UNL     1       1.530   9.303  18.763  0.00  0.00    +0.000 A 
ATOM     16  C   UNL     1       2.197   8.329  18.009  0.00  0.00    +0.000 A 
ATOM     17  C   UNL     1       2.526   7.085  18.556  0.00  0.00    +0.000 A 
ATOM     18  C   UNL     1       2.195   6.788  19.882  0.00  0.00    +0.000 A 
ATOM     19  C   UNL     1       1.517   7.754  20.638  0.00  0.00    +0.000 A 
ATOM     20  C   UNL     1       1.192   9.002  20.087  0.00  0.00    +0.000 A 
BRANCH  15  22
ATOM     21  C   UNL     1       2.136  11.574  18.312  0.00  0.00    +0.000 C 
ATOM     22  O   UNL     1       1.296  10.455  18.063  0.00  0.00    +0.000 OA
ENDBRANCH  15  22
BRANCH  20  23
ATOM     23  O   UNL     1       0.538   9.905  20.879  0.00  0.00    +0.000 OA
ATOM     24  H   UNL     1       0.010  10.497  20.320  0.00  0.00    +0.000 HD
ENDBRANCH  20  23
ENDBRANCH  14  18
ENDBRANCH   1  14
TORSDOF 8
ENDMDL
MODEL 8
REMARK VINA RESULT:      -6.5      1.243      2.847
REMARK  Name = 
REMARK  11 active torsions:
REMARK  status: ('A' for Active; 'I' for Inactive)
REMARK    1  A    between atoms: C_1  and  O_2
REMARK    2  A    between atoms: O_2  and  C_3
REMARK    3  A    between atoms: C_6  and  C_7
REMARK    4  A    between atoms: C_7  and  C_8
REMARK    5  A    between atoms: C_8  and  C_9
REMARK    6  A    between atoms: C_9  and  C_11
REMARK    7  A    between atoms: C_14  and  O_15
REMARK    8  A    between atoms: O_15  and  C_16
REMARK    9  A    between atoms: C_17  and  O_18
REMARK   10  A    between atoms: O_18  and  C_19
REMARK   11  A    between atoms: C_22  and  O_23
REMARK                            x       y       z     vdW  Elec       q    Type
REMARK                         _______ _______ _______ _____ _____    ______ ____
ROOT
ATOM      1  C   UNL     1       3.601   3.130  18.691  0.00  0.00    +0.000 C 
ENDROOT
BRANCH   1   2
ATOM      2  C   UNL     1       4.887   3.934  18.803  0.00  0.00    +0.000 C 
ATOM      3  O   UNL     1       5.370   4.257  19.886  0.00  0.00    +0.000 OA
BRANCH   2   4
ATOM      4  C   UNL     1       5.575   4.329  17.532  0.00  0.00    +0.000 A 
ATOM      5  C   UNL     1       5.437   3.576  16.365  0.00  0.00    +0.000 A 
ATOM      6  C   UNL     1       6.112   3.948  15.200  0.00  0.00    +0.000 A 
ATOM      7  C   UNL     1       6.935   5.081  15.165  0.00  0.00    +0.000 A 
ATOM      8  C   UNL     1       7.065   5.857  16.333  0.00  0.00    +0.000 A 
ATOM      9  C   UNL     1       6.382   5.470  17.503  0.00  0.00    +0.000 A 
BRANCH   7  10
ATOM     10  O   UNL     1       7.615   5.463  14.040  0.00  0.00    +0.000 OA
ATOM     11  C   UNL     1       7.402   4.729  12.840  0.00  0.00    +0.000 C 
ENDBRANCH   7  10
BRANCH   8  12
ATOM     12  O   UNL     1       7.800   7.000  16.518  0.00  0.00    +0.000 OA
ATOM     13  C   UNL     1       7.688   7.705  17.745  0.00  0.00    +0.000 C 
ENDBRANCH   8  12
ENDBRANCH   2   4
ENDBRANCH   1   2
BRANCH   1  14
ATOM     14  C   UNL     1       2.463   3.899  18.026  0.00  0.00    +0.000 C 
BRANCH  14  18
ATOM     15  C   UNL     1       1.893   7.755  19.940  0.00  0.00    +0.000 A 
ATOM     16  C   UNL     1       1.675   6.561  20.639  0.00  0.00    +0.000 A 
ATOM     17  C   UNL     1       1.853   5.317  20.027  0.00  0.00    +0.000 A 
ATOM     18  C   UNL     1       2.253   5.240  18.690  0.00  0.00    +0.000 A 
ATOM     19  C   UNL     1       2.485   6.431  17.987  0.00  0.00    +0.000 A 
ATOM     20  C   UNL     1       2.301   7.678  18.605  0.00  0.00    +0.000 A 
BRANCH  15  22
ATOM     21  C   UNL     1       1.090   8.699  21.988  0.00  0.00    +0.000 C 
ATOM     22  O   UNL     1       1.665   8.870  20.701  0.00  0.00    +0.000 OA
ENDBRANCH  15  22
BRANCH  20  23
ATOM     23  O   UNL     1       2.534   8.803  17.863  0.00  0.00    +0.000 OA
ATOM     24  H   UNL     1       2.072   9.554  18.269  0.00  0.00    +0.000 HD
ENDBRANCH  20  23
ENDBRANCH  14  18
ENDBRANCH   1  14
TORSDOF 8
ENDMDL
MODEL 9
REMARK VINA RESULT:      -6.4      1.446      5.896
REMARK  Name = 
REMARK  11 active torsions:
REMARK  status: ('A' for Active; 'I' for Inactive)
REMARK    1  A    between atoms: C_1  and  O_2
REMARK    2  A    between atoms: O_2  and  C_3
REMARK    3  A    between atoms: C_6  and  C_7
REMARK    4  A    between atoms: C_7  and  C_8
REMARK    5  A    between atoms: C_8  and  C_9
REMARK    6  A    between atoms: C_9  and  C_11
REMARK    7  A    between atoms: C_14  and  O_15
REMARK    8  A    between atoms: O_15  and  C_16
REMARK    9  A    between atoms: C_17  and  O_18
REMARK   10  A    between atoms: O_18  and  C_19
REMARK   11  A    between atoms: C_22  and  O_23
REMARK                            x       y       z     vdW  Elec       q    Type
REMARK                         _______ _______ _______ _____ _____    ______ ____
ROOT
ATOM      1  C   UNL     1       2.622   3.725  18.779  0.00  0.00    +0.000 C 
ENDROOT
BRANCH   1   2
ATOM      2  C   UNL     1       2.490   4.661  19.968  0.00  0.00    +0.000 C 
ATOM      3  O   UNL     1       2.632   4.278  21.128  0.00  0.00    +0.000 OA
BRANCH   2   4
ATOM      4  C   UNL     1       2.179   6.101  19.692  0.00  0.00    +0.000 A 
ATOM      5  C   UNL     1       2.497   6.692  18.468  0.00  0.00    +0.000 A 
ATOM      6  C   UNL     1       2.225   8.043  18.244  0.00  0.00    +0.000 A 
ATOM      7  C   UNL     1       1.623   8.838  19.228  0.00  0.00    +0.000 A 
ATOM      8  C   UNL     1       1.282   8.245  20.459  0.00  0.00    +0.000 A 
ATOM      9  C   UNL     1       1.565   6.882  20.676  0.00  0.00    +0.000 A 
BRANCH   7  10
ATOM     10  O   UNL     1       1.354  10.167  19.038  0.00  0.00    +0.000 OA
ATOM     11  C   UNL     1       0.028  10.544  18.685  0.00  0.00    +0.000 C 
ENDBRANCH   7  10
BRANCH   8  12
ATOM     12  O   UNL     1       0.682   8.827  21.546  0.00  0.00    +0.000 OA
ATOM     13  C   UNL     1       1.488   9.261  22.632  0.00  0.00    +0.000 C 
ENDBRANCH   8  12
ENDBRANCH   2   4
ENDBRANCH   1   2
BRANCH   1  14
ATOM     14  C   UNL     1       4.030   3.164  18.604  0.00  0.00    +0.000 C 
BRANCH  14  18
ATOM     15  C   UNL     1       6.762   6.172  17.072  0.00  0.00    +0.000 A 
ATOM     16  C   UNL     1       6.829   5.746  18.404  0.00  0.00    +0.000 A 
ATOM     17  C   UNL     1       5.950   4.781  18.904  0.00  0.00    +0.000 A 
ATOM     18  C   UNL     1       4.974   4.219  18.075  0.00  0.00    +0.000 A 
ATOM     19  C   UNL     1       4.910   4.631  16.737  0.00  0.00    +0.000 A 
ATOM     20  C   UNL     1       5.792   5.603  16.240  0.00  0.00    +0.000 A 
BRANCH  15  22
ATOM     21  C   UNL     1       7.930   8.162  17.704  0.00  0.00    +0.000 C 
ATOM     22  O   UNL     1       7.698   7.122  16.765  0.00  0.00    +0.000 OA
ENDBRANCH  15  22
BRANCH  20  23
ATOM     23  O   UNL     1       5.671   5.970  14.928  0.00  0.00    +0.000 OA
ATOM     24  H   UNL     1       5.366   5.207  14.411  0.00  0.00    +0.000 HD
ENDBRANCH  20  23
ENDBRANCH  14  18
ENDBRANCH   1  14
TORSDOF 8
ENDMDL
