MODEL 1
REMARK VINA RESULT:      -8.2      0.000      0.000
REMARK  Name = 
REMARK  4 active torsions:
REMARK  status: ('A' for Active; 'I' for Inactive)
REMARK    1  A    between atoms: C_1  and  C_2
REMARK    2  A    between atoms: C_4  and  N_5
REMARK    3  A    between atoms: C_8  and  C_9
REMARK    4  A    between atoms: C_9  and  C_10
REMARK                            x       y       z     vdW  Elec       q    Type
REMARK                         _______ _______ _______ _____ _____    ______ ____
ROOT
ATOM      1  N   UNL     1       5.312   5.035  15.591  0.00  0.00    +0.000 N 
ATOM      2  C   UNL     1       5.114   6.441  15.942  0.00  0.00    +0.000 C 
ATOM      3  C   UNL     1       5.460   6.667  17.412  0.00  0.00    +0.000 C 
ATOM      4  C   UNL     1       4.734   5.687  18.351  0.00  0.00    +0.000 C 
ATOM      5  C   UNL     1       5.042   4.253  17.890  0.00  0.00    +0.000 C 
ATOM      6  C   UNL     1       4.686   4.018  16.421  0.00  0.00    +0.000 C 
ENDROOT
BRANCH   1  10
ATOM      7  C   UNL     1       5.727   2.338  11.497  0.00  0.00    +0.000 C 
ATOM      8  C   UNL     1       6.185   3.421  12.423  0.00  0.00    +0.000 A 
ATOM      9  C   UNL     1       5.458   3.732  13.560  0.00  0.00    +0.000 A 
ATOM     10  C   UNL     1       5.937   4.727  14.397  0.00  0.00    +0.000 A 
ATOM     11  N   UNL     1       7.061   5.390  14.078  0.00  0.00    +0.000 NA
ATOM     12  C   UNL     1       7.708   5.013  12.966  0.00  0.00    +0.000 A 
ATOM     13  N   UNL     1       7.331   4.051  12.114  0.00  0.00    +0.000 NA
ENDBRANCH   1  10
BRANCH   4  14
ATOM     14  C   UNL     1       3.206   5.900  18.430  0.00  0.00    +0.000 C 
BRANCH  14  15
ATOM     15  C   UNL     1       2.444   4.876  19.233  0.00  0.00    +0.000 A 
ATOM     16  C   UNL     1       1.581   3.980  18.586  0.00  0.00    +0.000 A 
ATOM     17  C   UNL     1       0.901   2.999  19.308  0.00  0.00    +0.000 A 
ATOM     18  C   UNL     1       1.080   2.903  20.686  0.00  0.00    +0.000 A 
ATOM     19  C   UNL     1       1.936   3.784  21.341  0.00  0.00    +0.000 A 
ATOM     20  C   UNL     1       2.619   4.764  20.618  0.00  0.00    +0.000 A 
ENDBRANCH  14  15
ENDBRANCH   4  14
TORSDOF 3
ENDMDL
MODEL 2
REMARK VINA RESULT:      -8.2      0.061      1.081
REMARK  Name = 
REMARK  4 active torsions:
REMARK  status: ('A' for Active; 'I' for Inactive)
REMARK    1  A    between atoms: C_1  and  C_2
REMARK    2  A    between atoms: C_4  and  N_5
REMARK    3  A    between atoms: C_8  and  C_9
REMARK    4  A    between atoms: C_9  and  C_10
REMARK                            x       y       z     vdW  Elec       q    Type
REMARK                         _______ _______ _______ _____ _____    ______ ____
ROOT
ATOM      1  N   UNL     1       5.345   5.041  15.575  0.00  0.00    +0.000 N 
ATOM      2  C   UNL     1       5.153   6.449  15.921  0.00  0.00    +0.000 C 
ATOM      3  C   UNL     1       5.516   6.682  17.386  0.00  0.00    +0.000 C 
ATOM      4  C   UNL     1       4.800   5.709  18.338  0.00  0.00    +0.000 C 
ATOM      5  C   UNL     1       5.101   4.272  17.882  0.00  0.00    +0.000 C 
ATOM      6  C   UNL     1       4.728   4.029  16.418  0.00  0.00    +0.000 C 
ENDROOT
BRANCH   1  10
ATOM      7  C   UNL     1       5.733   2.298  11.509  0.00  0.00    +0.000 C 
ATOM      8  C   UNL     1       6.190   3.399  12.415  0.00  0.00    +0.000 A 
ATOM      9  C   UNL     1       5.477   3.715  13.559  0.00  0.00    +0.000 A 
ATOM     10  C   UNL     1       5.956   4.725  14.376  0.00  0.00    +0.000 A 
ATOM     11  N   UNL     1       7.066   5.399  14.032  0.00  0.00    +0.000 NA
ATOM     12  C   UNL     1       7.702   5.015  12.914  0.00  0.00    +0.000 A 
ATOM     13  N   UNL     1       7.324   4.038  12.081  0.00  0.00    +0.000 NA
ENDBRANCH   1  10
BRANCH   4  14
ATOM     14  C   UNL     1       3.273   5.924  18.434  0.00  0.00    +0.000 C 
BRANCH  14  15
ATOM     15  C   UNL     1       2.508   4.860  19.180  0.00  0.00    +0.000 A 
ATOM     16  C   UNL     1       2.637   4.755  20.573  0.00  0.00    +0.000 A 
ATOM     17  C   UNL     1       1.904   3.804  21.285  0.00  0.00    +0.000 A 
ATOM     18  C   UNL     1       1.034   2.951  20.610  0.00  0.00    +0.000 A 
ATOM     19  C   UNL     1       0.895   3.047  19.229  0.00  0.00    +0.000 A 
ATOM     20  C   UNL     1       1.625   4.000  18.516  0.00  0.00    +0.000 A 
ENDBRANCH  14  15
ENDBRANCH   4  14
TORSDOF 3
ENDMDL
MODEL 3
REMARK VINA RESULT:      -8.2      1.076      1.321
REMARK  Name = 
REMARK  4 active torsions:
REMARK  status: ('A' for Active; 'I' for Inactive)
REMARK    1  A    between atoms: C_1  and  C_2
REMARK    2  A    between atoms: C_4  and  N_5
REMARK    3  A    between atoms: C_8  and  C_9
REMARK    4  A    between atoms: C_9  and  C_10
REMARK                            x       y       z     vdW  Elec       q    Type
REMARK                         _______ _______ _______ _____ _____    ______ ____
ROOT
ATOM      1  N   UNL     1       6.060   4.665  15.977  0.00  0.00    +0.000 N 
ATOM      2  C   UNL     1       4.634   4.643  16.302  0.00  0.00    +0.000 C 
ATOM      3  C   UNL     1       4.319   5.707  17.350  0.00  0.00    +0.000 C 
ATOM      4  C   UNL     1       5.234   5.615  18.584  0.00  0.00    +0.000 C 
ATOM      5  C   UNL     1       6.696   5.674  18.111  0.00  0.00    +0.000 C 
ATOM      6  C   UNL     1       7.020   4.602  17.069  0.00  0.00    +0.000 C 
ENDROOT
BRANCH   1  10
ATOM      7  C   UNL     1       5.750   2.617  11.515  0.00  0.00    +0.000 C 
ATOM      8  C   UNL     1       6.343   3.584  12.492  0.00  0.00    +0.000 A 
ATOM      9  C   UNL     1       5.846   3.680  13.781  0.00  0.00    +0.000 A 
ATOM     10  C   UNL     1       6.446   4.573  14.653  0.00  0.00    +0.000 A 
ATOM     11  N   UNL     1       7.459   5.348  14.231  0.00  0.00    +0.000 NA
ATOM     12  C   UNL     1       7.885   5.178  12.971  0.00  0.00    +0.000 A 
ATOM     13  N   UNL     1       7.382   4.325  12.070  0.00  0.00    +0.000 NA
ENDBRANCH   1  10
BRANCH   4  14
ATOM     14  C   UNL     1       5.008   4.354  19.448  0.00  0.00    +0.000 C 
BRANCH  14  15
ATOM     15  C   UNL     1       3.569   3.962  19.668  0.00  0.00    +0.000 A 
ATOM     16  C   UNL     1       3.093   2.741  19.168  0.00  0.00    +0.000 A 
ATOM     17  C   UNL     1       1.776   2.343  19.398  0.00  0.00    +0.000 A 
ATOM     18  C   UNL     1       0.922   3.162  20.135  0.00  0.00    +0.000 A 
ATOM     19  C   UNL     1       1.383   4.375  20.639  0.00  0.00    +0.000 A 
ATOM     20  C   UNL     1       2.702   4.772  20.411  0.00  0.00    +0.000 A 
ENDBRANCH  14  15
ENDBRANCH   4  14
TORSDOF 3
ENDMDL
MODEL 4
REMARK VINA RESULT:      -8.2      1.072      1.588
REMARK  Name = 
REMARK  4 active torsions:
REMARK  status: ('A' for Active; 'I' for Inactive)
REMARK    1  A    between atoms: C_1  and  C_2
REMARK    2  A    between atoms: C_4  and  N_5
REMARK    3  A    between atoms: C_8  and  C_9
REMARK    4  A    between atoms: C_9  and  C_10
REMARK                            x       y       z     vdW  Elec       q    Type
REMARK                         _______ _______ _______ _____ _____    ______ ____
ROOT
ATOM      1  N   UNL     1       6.028   4.656  15.979  0.00  0.00    +0.000 N 
ATOM      2  C   UNL     1       4.606   4.545  16.304  0.00  0.00    +0.000 C 
ATOM      3  C   UNL     1       4.219   5.608  17.329  0.00  0.00    +0.000 C 
ATOM      4  C   UNL     1       5.136   5.603  18.564  0.00  0.00    +0.000 C 
ATOM      5  C   UNL     1       6.591   5.750  18.091  0.00  0.00    +0.000 C 
ATOM      6  C   UNL     1       6.988   4.680  17.072  0.00  0.00    +0.000 C 
ENDROOT
BRANCH   1  10
ATOM      7  C   UNL     1       5.738   2.605  11.516  0.00  0.00    +0.000 C 
ATOM      8  C   UNL     1       6.328   3.571  12.497  0.00  0.00    +0.000 A 
ATOM      9  C   UNL     1       5.824   3.669  13.782  0.00  0.00    +0.000 A 
ATOM     10  C   UNL     1       6.421   4.561  14.657  0.00  0.00    +0.000 A 
ATOM     11  N   UNL     1       7.439   5.333  14.241  0.00  0.00    +0.000 NA
ATOM     12  C   UNL     1       7.872   5.159  12.983  0.00  0.00    +0.000 A 
ATOM     13  N   UNL     1       7.372   4.308  12.080  0.00  0.00    +0.000 NA
ENDBRANCH   1  10
BRANCH   4  14
ATOM     14  C   UNL     1       4.993   4.350  19.455  0.00  0.00    +0.000 C 
BRANCH  14  15
ATOM     15  C   UNL     1       3.581   3.891  19.717  0.00  0.00    +0.000 A 
ATOM     16  C   UNL     1       2.699   4.716  20.431  0.00  0.00    +0.000 A 
ATOM     17  C   UNL     1       1.377   4.326  20.645  0.00  0.00    +0.000 A 
ATOM     18  C   UNL     1       0.922   3.108  20.145  0.00  0.00    +0.000 A 
ATOM     19  C   UNL     1       1.786   2.282  19.432  0.00  0.00    +0.000 A 
ATOM     20  C   UNL     1       3.109   2.672  19.215  0.00  0.00    +0.000 A 
ENDBRANCH  14  15
ENDBRANCH   4  14
TORSDOF 3
ENDMDL
MODEL 5
REMARK VINA RESULT:      -7.3      2.341      7.319
REMARK  Name = 
REMARK  4 active torsions:
REMARK  status: ('A' for Active; 'I' for Inactive)
REMARK    1  A    between atoms: C_1  and  C_2
REMARK    2  A    between atoms: C_4  and  N_5
REMARK    3  A    between atoms: C_8  and  C_9
REMARK    4  A    between atoms: C_9  and  C_10
REMARK                            x       y       z     vdW  Elec       q    Type
REMARK                         _______ _______ _______ _____ _____    ______ ____
ROOT
ATOM      1  N   UNL     1       4.600   5.283  18.404  0.00  0.00    +0.000 N 
ATOM      2  C   UNL     1       5.977   5.173  18.883  0.00  0.00    +0.000 C 
ATOM      3  C   UNL     1       6.868   6.175  18.152  0.00  0.00    +0.000 C 
ATOM      4  C   UNL     1       6.737   6.079  16.622  0.00  0.00    +0.000 C 
ATOM      5  C   UNL     1       5.254   6.233  16.249  0.00  0.00    +0.000 C 
ATOM      6  C   UNL     1       4.359   5.224  16.970  0.00  0.00    +0.000 C 
ENDROOT
BRANCH   1  10
ATOM      7  C   UNL     1       1.620   2.911  21.519  0.00  0.00    +0.000 C 
ATOM      8  C   UNL     1       2.091   4.145  20.814  0.00  0.00    +0.000 A 
ATOM      9  C   UNL     1       3.188   4.101  19.970  0.00  0.00    +0.000 A 
ATOM     10  C   UNL     1       3.568   5.266  19.324  0.00  0.00    +0.000 A 
ATOM     11  N   UNL     1       2.902   6.410  19.552  0.00  0.00    +0.000 NA
ATOM     12  C   UNL     1       1.843   6.356  20.373  0.00  0.00    +0.000 A 
ATOM     13  N   UNL     1       1.392   5.274  21.020  0.00  0.00    +0.000 NA
ENDBRANCH   1  10
BRANCH   4  14
ATOM     14  C   UNL     1       7.301   4.773  16.019  0.00  0.00    +0.000 C 
BRANCH  14  15
ATOM     15  C   UNL     1       7.085   4.591  14.537  0.00  0.00    +0.000 A 
ATOM     16  C   UNL     1       7.855   5.325  13.624  0.00  0.00    +0.000 A 
ATOM     17  C   UNL     1       7.698   5.138  12.249  0.00  0.00    +0.000 A 
ATOM     18  C   UNL     1       6.771   4.212  11.777  0.00  0.00    +0.000 A 
ATOM     19  C   UNL     1       6.002   3.476  12.673  0.00  0.00    +0.000 A 
ATOM     20  C   UNL     1       6.161   3.660  14.048  0.00  0.00    +0.000 A 
ENDBRANCH  14  15
ENDBRANCH   4  14
TORSDOF 3
ENDMDL
MODEL 6
REMARK VINA RESULT:      -7.3      1.373      1.937
REMARK  Name = 
REMARK  4 active torsions:
REMARK  status: ('A' for Active; 'I' for Inactive)
REMARK    1  A    between atoms: C_1  and  C_2
REMARK    2  A    between atoms: C_4  and  N_5
REMARK    3  A    between atoms: C_8  and  C_9
REMARK    4  A    between atoms: C_9  and  C_10
REMARK                            x       y       z     vdW  Elec       q    Type
REMARK                         _______ _______ _______ _____ _____    ______ ____
ROOT
ATOM      1  N   UNL     1       6.435   4.976  15.820  0.00  0.00    +0.000 N 
ATOM      2  C   UNL     1       5.171   5.595  16.216  0.00  0.00    +0.000 C 
ATOM      3  C   UNL     1       5.419   6.648  17.294  0.00  0.00    +0.000 C 
ATOM      4  C   UNL     1       6.239   6.105  18.477  0.00  0.00    +0.000 C 
ATOM      5  C   UNL     1       7.545   5.507  17.931  0.00  0.00    +0.000 C 
ATOM      6  C   UNL     1       7.301   4.443  16.859  0.00  0.00    +0.000 C 
ENDROOT
BRANCH   1  10
ATOM      7  C   UNL     1       5.679   2.539  11.613  0.00  0.00    +0.000 C 
ATOM      8  C   UNL     1       6.364   3.587  12.434  0.00  0.00    +0.000 A 
ATOM      9  C   UNL     1       6.001   3.799  13.753  0.00  0.00    +0.000 A 
ATOM     10  C   UNL     1       6.682   4.765  14.476  0.00  0.00    +0.000 A 
ATOM     11  N   UNL     1       7.642   5.495  13.885  0.00  0.00    +0.000 NA
ATOM     12  C   UNL     1       7.938   5.211  12.608  0.00  0.00    +0.000 A 
ATOM     13  N   UNL     1       7.349   4.284  11.843  0.00  0.00    +0.000 NA
ENDBRANCH   1  10
BRANCH   4  14
ATOM     14  C   UNL     1       5.496   5.057  19.335  0.00  0.00    +0.000 C 
BRANCH  14  15
ATOM     15  C   UNL     1       4.116   4.682  18.858  0.00  0.00    +0.000 A 
ATOM     16  C   UNL     1       3.041   5.559  19.066  0.00  0.00    +0.000 A 
ATOM     17  C   UNL     1       1.766   5.246  18.593  0.00  0.00    +0.000 A 
ATOM     18  C   UNL     1       1.554   4.054  17.904  0.00  0.00    +0.000 A 
ATOM     19  C   UNL     1       2.612   3.176  17.688  0.00  0.00    +0.000 A 
ATOM     20  C   UNL     1       3.889   3.489  18.159  0.00  0.00    +0.000 A 
ENDBRANCH  14  15
ENDBRANCH   4  14
TORSDOF 3
ENDMDL
MODEL 7
REMARK VINA RESULT:      -7.3      2.340      7.301
REMARK  Name = 
REMARK  4 active torsions:
REMARK  status: ('A' for Active; 'I' for Inactive)
REMARK    1  A    between atoms: C_1  and  C_2
REMARK    2  A    between atoms: C_4  and  N_5
REMARK    3  A    between atoms: C_8  and  C_9
REMARK    4  A    between atoms: C_9  and  C_10
REMARK                            x       y       z     vdW  Elec       q    Type
REMARK                         _______ _______ _______ _____ _____    ______ ____
ROOT
ATOM      1  N   UNL     1       4.560   5.240  18.400  0.00  0.00    +0.000 N 
ATOM      2  C   UNL     1       5.943   5.188  18.871  0.00  0.00    +0.000 C 
ATOM      3  C   UNL     1       6.796   6.197  18.104  0.00  0.00    +0.000 C 
ATOM      4  C   UNL     1       6.657   6.054  16.579  0.00  0.00    +0.000 C 
ATOM      5  C   UNL     1       5.167   6.150  16.214  0.00  0.00    +0.000 C 
ATOM      6  C   UNL     1       4.310   5.133  16.970  0.00  0.00    +0.000 C 
ENDROOT
BRANCH   1  10
ATOM      7  C   UNL     1       1.614   2.846  21.530  0.00  0.00    +0.000 C 
ATOM      8  C   UNL     1       2.076   4.084  20.826  0.00  0.00    +0.000 A 
ATOM      9  C   UNL     1       3.165   4.048  19.973  0.00  0.00    +0.000 A 
ATOM     10  C   UNL     1       3.536   5.216  19.328  0.00  0.00    +0.000 A 
ATOM     11  N   UNL     1       2.868   6.357  19.567  0.00  0.00    +0.000 NA
ATOM     12  C   UNL     1       1.816   6.296  20.397  0.00  0.00    +0.000 A 
ATOM     13  N   UNL     1       1.375   5.210  21.042  0.00  0.00    +0.000 NA
ENDBRANCH   1  10
BRANCH   4  14
ATOM     14  C   UNL     1       7.259   4.751  16.007  0.00  0.00    +0.000 C 
BRANCH  14  15
ATOM     15  C   UNL     1       7.119   4.565  14.517  0.00  0.00    +0.000 A 
ATOM     16  C   UNL     1       6.200   3.634  14.012  0.00  0.00    +0.000 A 
ATOM     17  C   UNL     1       6.028   3.480  12.636  0.00  0.00    +0.000 A 
ATOM     18  C   UNL     1       6.772   4.258  11.752  0.00  0.00    +0.000 A 
ATOM     19  C   UNL     1       7.685   5.188  12.240  0.00  0.00    +0.000 A 
ATOM     20  C   UNL     1       7.856   5.344  13.617  0.00  0.00    +0.000 A 
ENDBRANCH  14  15
ENDBRANCH   4  14
TORSDOF 3
ENDMDL
MODEL 8
REMARK VINA RESULT:      -7.2      1.056      1.631
REMARK  Name = 
REMARK  4 active torsions:
REMARK  status: ('A' for Active; 'I' for Inactive)
REMARK    1  A    between atoms: C_1  and  C_2
REMARK    2  A    between atoms: C_4  and  N_5
REMARK    3  A    between atoms: C_8  and  C_9
REMARK    4  A    between atoms: C_9  and  C_10
REMARK                            x       y       z     vdW  Elec       q    Type
REMARK                         _______ _______ _______ _____ _____    ______ ____
ROOT
ATOM      1  N   UNL     1       5.729   5.045  15.793  0.00  0.00    +0.000 N 
ATOM      2  C   UNL     1       4.650   4.215  16.329  0.00  0.00    +0.000 C 
ATOM      3  C   UNL     1       3.592   5.095  16.990  0.00  0.00    +0.000 C 
ATOM      4  C   UNL     1       4.190   6.072  18.018  0.00  0.00    +0.000 C 
ATOM      5  C   UNL     1       5.287   6.896  17.326  0.00  0.00    +0.000 C 
ATOM      6  C   UNL     1       6.356   6.019  16.672  0.00  0.00    +0.000 C 
ENDROOT
BRANCH   1  10
ATOM      7  C   UNL     1       5.644   2.510  11.577  0.00  0.00    +0.000 C 
ATOM      8  C   UNL     1       6.233   3.533  12.498  0.00  0.00    +0.000 A 
ATOM      9  C   UNL     1       5.629   3.825  13.708  0.00  0.00    +0.000 A 
ATOM     10  C   UNL     1       6.227   4.762  14.535  0.00  0.00    +0.000 A 
ATOM     11  N   UNL     1       7.346   5.391  14.138  0.00  0.00    +0.000 NA
ATOM     12  C   UNL     1       7.871   5.034  12.957  0.00  0.00    +0.000 A 
ATOM     13  N   UNL     1       7.374   4.126  12.108  0.00  0.00    +0.000 NA
ENDBRANCH   1  10
BRANCH   4  14
ATOM     14  C   UNL     1       4.758   5.391  19.283  0.00  0.00    +0.000 C 
BRANCH  14  15
ATOM     15  C   UNL     1       3.825   4.438  19.988  0.00  0.00    +0.000 A 
ATOM     16  C   UNL     1       4.170   3.084  20.108  0.00  0.00    +0.000 A 
ATOM     17  C   UNL     1       3.338   2.197  20.794  0.00  0.00    +0.000 A 
ATOM     18  C   UNL     1       2.156   2.658  21.368  0.00  0.00    +0.000 A 
ATOM     19  C   UNL     1       1.804   4.000  21.258  0.00  0.00    +0.000 A 
ATOM     20  C   UNL     1       2.636   4.888  20.575  0.00  0.00    +0.000 A 
ENDBRANCH  14  15
ENDBRANCH   4  14
TORSDOF 3
ENDMDL
MODEL 9
REMARK VINA RESULT:      -7.2      0.997      1.245
REMARK  Name = 
REMARK  4 active torsions:
REMARK  status: ('A' for Active; 'I' for Inactive)
REMARK    1  A    between atoms: C_1  and  C_2
REMARK    2  A    between atoms: C_4  and  N_5
REMARK    3  A    between atoms: C_8  and  C_9
REMARK    4  A    between atoms: C_9  and  C_10
REMARK                            x       y       z     vdW  Elec       q    Type
REMARK                         _______ _______ _______ _____ _____    ______ ____
ROOT
ATOM      1  N   UNL     1       5.983   4.820  16.003  0.00  0.00    +0.000 N 
ATOM      2  C   UNL     1       6.451   5.978  16.764  0.00  0.00    +0.000 C 
ATOM      3  C   UNL     1       6.866   5.548  18.170  0.00  0.00    +0.000 C 
ATOM      4  C   UNL     1       5.774   4.736  18.889  0.00  0.00    +0.000 C 
ATOM      5  C   UNL     1       5.391   3.542  18.000  0.00  0.00    +0.000 C 
ATOM      6  C   UNL     1       4.963   3.968  16.595  0.00  0.00    +0.000 C 
ENDROOT
BRANCH   1  10
ATOM      7  C   UNL     1       5.779   2.566  11.635  0.00  0.00    +0.000 C 
ATOM      8  C   UNL     1       6.343   3.584  12.577  0.00  0.00    +0.000 A 
ATOM      9  C   UNL     1       5.821   3.733  13.851  0.00  0.00    +0.000 A 
ATOM     10  C   UNL     1       6.395   4.672  14.692  0.00  0.00    +0.000 A 
ATOM     11  N   UNL     1       7.407   5.438  14.253  0.00  0.00    +0.000 NA
ATOM     12  C   UNL     1       7.859   5.215  13.010  0.00  0.00    +0.000 A 
ATOM     13  N   UNL     1       7.382   4.317  12.141  0.00  0.00    +0.000 NA
ENDBRANCH   1  10
BRANCH   4  14
ATOM     14  C   UNL     1       4.514   5.552  19.251  0.00  0.00    +0.000 C 
BRANCH  14  15
ATOM     15  C   UNL     1       3.362   4.759  19.816  0.00  0.00    +0.000 A 
ATOM     16  C   UNL     1       3.585   3.473  20.329  0.00  0.00    +0.000 A 
ATOM     17  C   UNL     1       2.538   2.742  20.894  0.00  0.00    +0.000 A 
ATOM     18  C   UNL     1       1.260   3.292  20.954  0.00  0.00    +0.000 A 
ATOM     19  C   UNL     1       1.027   4.569  20.451  0.00  0.00    +0.000 A 
ATOM     20  C   UNL     1       2.073   5.302  19.888  0.00  0.00    +0.000 A 
ENDBRANCH  14  15
ENDBRANCH   4  14
TORSDOF 3
ENDMDL
