MODEL 1
REMARK VINA RESULT:      -6.3      0.000      0.000
REMARK  Name = 
REMARK  10 active torsions:
REMARK  status: ('A' for Active; 'I' for Inactive)
REMARK    1  A    between atoms: C_1  and  C_2
REMARK    2  A    between atoms: C_2  and  N_3
REMARK    3  A    between atoms: C_9  and  C_10
REMARK    4  A    between atoms: C_13  and  N_14
REMARK    5  A    between atoms: C_15  and  S_16
REMARK    6  A    between atoms: N_17  and  C_18
REMARK    7  A    between atoms: C_18  and  C_19
REMARK    8  A    between atoms: C_19  and  C_20
REMARK    9  A    between atoms: C_20  and  O_21
REMARK   10  A    between atoms: O_21  and  C_22
REMARK                            x       y       z     vdW  Elec       q    Type
REMARK                         _______ _______ _______ _____ _____    ______ ____
ROOT
ATOM      1  N   UNL     1       7.269   5.325  15.756  0.00  0.00    +0.000 NA
ATOM      2  C   UNL     1       6.244   6.375  15.506  0.00  0.00    +0.000 C 
ATOM      3  C   UNL     1       4.810   6.005  15.947  0.00  0.00    +0.000 C 
ATOM      4  N   UNL     1       4.792   5.492  17.317  0.00  0.00    +0.000 N 
ATOM      5  C   UNL     1       3.841   5.948  18.200  0.00  0.00    +0.000 A 
ATOM      6  C   UNL     1       3.416   5.153  19.259  0.00  0.00    +0.000 A 
ATOM      7  C   UNL     1       2.477   5.628  20.171  0.00  0.00    +0.000 A 
ATOM      8  C   UNL     1       2.121   4.781  21.361  0.00  0.00    +0.000 C 
ATOM      9  C   UNL     1       1.973   6.925  19.989  0.00  0.00    +0.000 A 
ATOM     10  C   UNL     1       1.021   7.481  20.860  0.00  0.00    +0.000 A 
ATOM     11  C   UNL     1       0.669   8.828  20.837  0.00  0.00    +0.000 A 
ATOM     12  C   UNL     1       1.184   9.591  19.786  0.00  0.00    +0.000 A 
ATOM     13  C   UNL     1       2.049   9.017  18.835  0.00  0.00    +0.000 A 
ATOM     14  C   UNL     1       2.471   7.695  18.928  0.00  0.00    +0.000 A 
ATOM     15  N   UNL     1       3.357   7.200  18.042  0.00  0.00    +0.000 NA
ATOM     16  C   UNL     1       5.837   4.546  17.716  0.00  0.00    +0.000 C 
ATOM     17  C   UNL     1       7.219   5.006  17.200  0.00  0.00    +0.000 C 
ENDROOT
BRANCH  11  18
ATOM     18  N   UNL     1      -0.058   9.442  21.872  0.00  0.00    +0.000 N 
ATOM     19  C   UNL     1      -0.745  10.632  21.935  0.00  0.00    +0.000 C 
ATOM     20  N   UNL     1      -1.091  11.084  23.105  0.00  0.00    +0.000 NA
ATOM     21  H   UNL     1       0.016   8.984  22.773  0.00  0.00    +0.000 HD
BRANCH  19  22
ATOM     22  S   UNL     1      -1.225  11.473  20.443  0.00  0.00    +0.000 S 
ATOM     23  H   UNL     1      -0.369  12.493  20.553  0.00  0.00    +0.000 HD
ENDBRANCH  19  22
BRANCH  20  24
ATOM     24  C   UNL     1      -1.849  12.339  23.141  0.00  0.00    +0.000 C 
BRANCH  24  25
ATOM     25  C   UNL     1      -3.183  12.190  23.857  0.00  0.00    +0.000 C 
BRANCH  25  26
ATOM     26  C   UNL     1      -4.228  12.953  23.044  0.00  0.00    +0.000 C 
BRANCH  26  27
ATOM     27  O   UNL     1      -4.471  12.309  21.800  0.00  0.00    +0.000 OA
ATOM     28  C   UNL     1      -5.657  12.818  21.198  0.00  0.00    +0.000 C 
ENDBRANCH  26  27
ENDBRANCH  25  26
ENDBRANCH  24  25
ENDBRANCH  20  24
ENDBRANCH  11  18
BRANCH   1  30
ATOM     29  C   UNL     1       6.986   4.483  13.405  0.00  0.00    +0.000 C 
ATOM     30  C   UNL     1       7.030   4.156  14.893  0.00  0.00    +0.000 C 
ENDBRANCH   1  30
TORSDOF 7
ENDMDL
MODEL 2
REMARK VINA RESULT:      -6.3      3.471     10.912
REMARK  Name = 
REMARK  10 active torsions:
REMARK  status: ('A' for Active; 'I' for Inactive)
REMARK    1  A    between atoms: C_1  and  C_2
REMARK    2  A    between atoms: C_2  and  N_3
REMARK    3  A    between atoms: C_9  and  C_10
REMARK    4  A    between atoms: C_13  and  N_14
REMARK    5  A    between atoms: C_15  and  S_16
REMARK    6  A    between atoms: N_17  and  C_18
REMARK    7  A    between atoms: C_18  and  C_19
REMARK    8  A    between atoms: C_19  and  C_20
REMARK    9  A    between atoms: C_20  and  O_21
REMARK   10  A    between atoms: O_21  and  C_22
REMARK                            x       y       z     vdW  Elec       q    Type
REMARK                         _______ _______ _______ _____ _____    ______ ____
ROOT
ATOM      1  N   UNL     1      -5.830  14.219  22.172  0.00  0.00    +0.000 NA
ATOM      2  C   UNL     1      -4.915  14.347  21.004  0.00  0.00    +0.000 C 
ATOM      3  C   UNL     1      -3.414  14.181  21.329  0.00  0.00    +0.000 C 
ATOM      4  N   UNL     1      -3.175  12.975  22.122  0.00  0.00    +0.000 N 
ATOM      5  C   UNL     1      -2.140  12.134  21.784  0.00  0.00    +0.000 A 
ATOM      6  C   UNL     1      -1.524  11.343  22.748  0.00  0.00    +0.000 A 
ATOM      7  C   UNL     1      -0.498  10.468  22.398  0.00  0.00    +0.000 A 
ATOM      8  C   UNL     1       0.071   9.554  23.447  0.00  0.00    +0.000 C 
ATOM      9  C   UNL     1      -0.105  10.412  21.053  0.00  0.00    +0.000 A 
ATOM     10  C   UNL     1       0.924   9.560  20.614  0.00  0.00    +0.000 A 
ATOM     11  C   UNL     1       1.186   9.320  19.268  0.00  0.00    +0.000 A 
ATOM     12  C   UNL     1       0.483  10.099  18.345  0.00  0.00    +0.000 A 
ATOM     13  C   UNL     1      -0.468  11.043  18.776  0.00  0.00    +0.000 A 
ATOM     14  C   UNL     1      -0.791  11.201  20.120  0.00  0.00    +0.000 A 
ATOM     15  N   UNL     1      -1.760  12.062  20.489  0.00  0.00    +0.000 NA
ATOM     16  C   UNL     1      -4.094  12.676  23.223  0.00  0.00    +0.000 C 
ATOM     17  C   UNL     1      -5.559  12.902  22.790  0.00  0.00    +0.000 C 
ENDROOT
BRANCH  11  18
ATOM     18  N   UNL     1       2.010   8.269  18.830  0.00  0.00    +0.000 N 
ATOM     19  C   UNL     1       2.400   7.093  19.428  0.00  0.00    +0.000 C 
ATOM     20  N   UNL     1       3.394   6.434  18.907  0.00  0.00    +0.000 NA
ATOM     21  H   UNL     1       2.495   8.444  17.958  0.00  0.00    +0.000 HD
BRANCH  19  22
ATOM     22  S   UNL     1       1.500   6.453  20.823  0.00  0.00    +0.000 S 
ATOM     23  H   UNL     1       0.597   7.434  20.892  0.00  0.00    +0.000 HD
ENDBRANCH  19  22
BRANCH  20  24
ATOM     24  C   UNL     1       3.767   5.169  19.547  0.00  0.00    +0.000 C 
BRANCH  24  25
ATOM     25  C   UNL     1       4.874   4.445  18.796  0.00  0.00    +0.000 C 
BRANCH  25  26
ATOM     26  C   UNL     1       4.256   3.844  17.534  0.00  0.00    +0.000 C 
BRANCH  26  27
ATOM     27  O   UNL     1       3.042   3.168  17.838  0.00  0.00    +0.000 OA
ATOM     28  C   UNL     1       3.280   1.776  18.020  0.00  0.00    +0.000 C 
ENDBRANCH  26  27
ENDBRANCH  25  26
ENDBRANCH  24  25
ENDBRANCH  20  24
ENDBRANCH  11  18
BRANCH   1  30
ATOM     29  C   UNL     1      -6.894  15.718  23.886  0.00  0.00    +0.000 C 
ATOM     30  C   UNL     1      -5.642  15.347  23.100  0.00  0.00    +0.000 C 
ENDBRANCH   1  30
TORSDOF 7
ENDMDL
MODEL 3
REMARK VINA RESULT:      -6.2      4.009     11.476
REMARK  Name = 
REMARK  10 active torsions:
REMARK  status: ('A' for Active; 'I' for Inactive)
REMARK    1  A    between atoms: C_1  and  C_2
REMARK    2  A    between atoms: C_2  and  N_3
REMARK    3  A    between atoms: C_9  and  C_10
REMARK    4  A    between atoms: C_13  and  N_14
REMARK    5  A    between atoms: C_15  and  S_16
REMARK    6  A    between atoms: N_17  and  C_18
REMARK    7  A    between atoms: C_18  and  C_19
REMARK    8  A    between atoms: C_19  and  C_20
REMARK    9  A    between atoms: C_20  and  O_21
REMARK   10  A    between atoms: O_21  and  C_22
REMARK                            x       y       z     vdW  Elec       q    Type
REMARK                         _______ _______ _______ _____ _____    ______ ____
ROOT
ATOM      1  N   UNL     1      -5.553  15.507  21.701  0.00  0.00    +0.000 NA
ATOM      2  C   UNL     1      -4.423  14.762  22.322  0.00  0.00    +0.000 C 
ATOM      3  C   UNL     1      -4.327  13.272  21.926  0.00  0.00    +0.000 C 
ATOM      4  N   UNL     1      -4.403  13.104  20.474  0.00  0.00    +0.000 N 
ATOM      5  C   UNL     1      -3.515  12.267  19.841  0.00  0.00    +0.000 A 
ATOM      6  C   UNL     1      -3.856  11.643  18.645  0.00  0.00    +0.000 A 
ATOM      7  C   UNL     1      -2.943  10.821  17.987  0.00  0.00    +0.000 A 
ATOM      8  C   UNL     1      -3.311  10.250  16.646  0.00  0.00    +0.000 C 
ATOM      9  C   UNL     1      -1.679  10.640  18.565  0.00  0.00    +0.000 A 
ATOM     10  C   UNL     1      -0.700   9.826  17.970  0.00  0.00    +0.000 A 
ATOM     11  C   UNL     1       0.626   9.800  18.397  0.00  0.00    +0.000 A 
ATOM     12  C   UNL     1       0.920  10.504  19.568  0.00  0.00    +0.000 A 
ATOM     13  C   UNL     1      -0.080  11.231  20.241  0.00  0.00    +0.000 A 
ATOM     14  C   UNL     1      -1.377  11.329  19.749  0.00  0.00    +0.000 A 
ATOM     15  N   UNL     1      -2.289  12.094  20.382  0.00  0.00    +0.000 NA
ATOM     16  C   UNL     1      -5.397  13.889  19.738  0.00  0.00    +0.000 C 
ATOM     17  C   UNL     1      -5.420  15.350  20.236  0.00  0.00    +0.000 C 
ENDROOT
BRANCH  11  18
ATOM     18  N   UNL     1       1.656   9.215  17.641  0.00  0.00    +0.000 N 
ATOM     19  C   UNL     1       2.542   8.199  17.921  0.00  0.00    +0.000 C 
ATOM     20  N   UNL     1       3.574   8.048  17.143  0.00  0.00    +0.000 NA
ATOM     21  H   UNL     1       1.863   9.685  16.768  0.00  0.00    +0.000 HD
BRANCH  19  22
ATOM     22  S   UNL     1       2.221   7.071  19.258  0.00  0.00    +0.000 S 
ATOM     23  H   UNL     1       1.036   7.575  19.611  0.00  0.00    +0.000 HD
ENDBRANCH  19  22
BRANCH  20  24
ATOM     24  C   UNL     1       4.484   6.940  17.447  0.00  0.00    +0.000 C 
BRANCH  24  25
ATOM     25  C   UNL     1       5.409   6.615  16.284  0.00  0.00    +0.000 C 
BRANCH  25  26
ATOM     26  C   UNL     1       5.206   5.141  15.934  0.00  0.00    +0.000 C 
BRANCH  26  27
ATOM     27  O   UNL     1       5.851   4.301  16.883  0.00  0.00    +0.000 OA
ATOM     28  C   UNL     1       7.250   4.565  16.911  0.00  0.00    +0.000 C 
ENDBRANCH  26  27
ENDBRANCH  25  26
ENDBRANCH  24  25
ENDBRANCH  20  24
ENDBRANCH  11  18
BRANCH   1  30
ATOM     29  C   UNL     1      -6.987  15.160  23.735  0.00  0.00    +0.000 C 
ATOM     30  C   UNL     1      -6.840  15.019  22.224  0.00  0.00    +0.000 C 
ENDBRANCH   1  30
TORSDOF 7
ENDMDL
MODEL 4
REMARK VINA RESULT:      -6.2      3.050      4.447
REMARK  Name = 
REMARK  10 active torsions:
REMARK  status: ('A' for Active; 'I' for Inactive)
REMARK    1  A    between atoms: C_1  and  C_2
REMARK    2  A    between atoms: C_2  and  N_3
REMARK    3  A    between atoms: C_9  and  C_10
REMARK    4  A    between atoms: C_13  and  N_14
REMARK    5  A    between atoms: C_15  and  S_16
REMARK    6  A    between atoms: N_17  and  C_18
REMARK    7  A    between atoms: C_18  and  C_19
REMARK    8  A    between atoms: C_19  and  C_20
REMARK    9  A    between atoms: C_20  and  O_21
REMARK   10  A    between atoms: O_21  and  C_22
REMARK                            x       y       z     vdW  Elec       q    Type
REMARK                         _______ _______ _______ _____ _____    ______ ____
ROOT
ATOM      1  N   UNL     1       2.213   3.141  19.020  0.00  0.00    +0.000 NA
ATOM      2  C   UNL     1       2.004   3.696  20.385  0.00  0.00    +0.000 C 
ATOM      3  C   UNL     1       2.608   5.099  20.619  0.00  0.00    +0.000 C 
ATOM      4  N   UNL     1       2.226   6.025  19.552  0.00  0.00    +0.000 N 
ATOM      5  C   UNL     1       1.789   7.288  19.875  0.00  0.00    +0.000 A 
ATOM      6  C   UNL     1       1.950   8.344  18.985  0.00  0.00    +0.000 A 
ATOM      7  C   UNL     1       1.477   9.617  19.299  0.00  0.00    +0.000 A 
ATOM      8  C   UNL     1       1.575  10.707  18.269  0.00  0.00    +0.000 C 
ATOM      9  C   UNL     1       0.841   9.800  20.535  0.00  0.00    +0.000 A 
ATOM     10  C   UNL     1       0.338  11.051  20.933  0.00  0.00    +0.000 A 
ATOM     11  C   UNL     1      -0.485  11.217  22.045  0.00  0.00    +0.000 A 
ATOM     12  C   UNL     1      -0.664  10.099  22.863  0.00  0.00    +0.000 A 
ATOM     13  C   UNL     1      -0.068   8.866  22.539  0.00  0.00    +0.000 A 
ATOM     14  C   UNL     1       0.670   8.689  21.373  0.00  0.00    +0.000 A 
ATOM     15  N   UNL     1       1.163   7.475  21.059  0.00  0.00    +0.000 NA
ATOM     16  C   UNL     1       2.268   5.543  18.170  0.00  0.00    +0.000 C 
ATOM     17  C   UNL     1       1.662   4.127  18.064  0.00  0.00    +0.000 C 
ENDROOT
BRANCH  11  18
ATOM     18  N   UNL     1      -1.212  12.396  22.282  0.00  0.00    +0.000 N 
ATOM     19  C   UNL     1      -2.032  13.151  21.475  0.00  0.00    +0.000 C 
ATOM     20  N   UNL     1      -2.354  14.349  21.869  0.00  0.00    +0.000 NA
ATOM     21  H   UNL     1      -1.026  12.839  23.174  0.00  0.00    +0.000 HD
BRANCH  19  22
ATOM     22  S   UNL     1      -2.705  12.460  19.980  0.00  0.00    +0.000 S 
ATOM     23  H   UNL     1      -3.362  11.450  20.554  0.00  0.00    +0.000 HD
ENDBRANCH  19  22
BRANCH  20  24
ATOM     24  C   UNL     1      -3.254  15.119  21.004  0.00  0.00    +0.000 C 
BRANCH  24  25
ATOM     25  C   UNL     1      -4.528  15.537  21.721  0.00  0.00    +0.000 C 
BRANCH  25  26
ATOM     26  C   UNL     1      -4.398  15.104  23.180  0.00  0.00    +0.000 C 
BRANCH  26  27
ATOM     27  O   UNL     1      -4.324  16.234  24.040  0.00  0.00    +0.000 OA
ATOM     28  C   UNL     1      -3.392  16.000  25.091  0.00  0.00    +0.000 C 
ENDBRANCH  26  27
ENDBRANCH  25  26
ENDBRANCH  24  25
ENDBRANCH  20  24
ENDBRANCH  11  18
BRANCH   1  30
ATOM     29  C   UNL     1       4.325   2.174  19.980  0.00  0.00    +0.000 C 
ATOM     30  C   UNL     1       3.639   2.846  18.796  0.00  0.00    +0.000 C 
ENDBRANCH   1  30
TORSDOF 7
ENDMDL
MODEL 5
REMARK VINA RESULT:      -6.2      3.672     11.122
REMARK  Name = 
REMARK  10 active torsions:
REMARK  status: ('A' for Active; 'I' for Inactive)
REMARK    1  A    between atoms: C_1  and  C_2
REMARK    2  A    between atoms: C_2  and  N_3
REMARK    3  A    between atoms: C_9  and  C_10
REMARK    4  A    between atoms: C_13  and  N_14
REMARK    5  A    between atoms: C_15  and  S_16
REMARK    6  A    between atoms: N_17  and  C_18
REMARK    7  A    between atoms: C_18  and  C_19
REMARK    8  A    between atoms: C_19  and  C_20
REMARK    9  A    between atoms: C_20  and  O_21
REMARK   10  A    between atoms: O_21  and  C_22
REMARK                            x       y       z     vdW  Elec       q    Type
REMARK                         _______ _______ _______ _____ _____    ______ ____
ROOT
ATOM      1  N   UNL     1      -3.008  16.029  24.676  0.00  0.00    +0.000 NA
ATOM      2  C   UNL     1      -3.289  14.570  24.771  0.00  0.00    +0.000 C 
ATOM      3  C   UNL     1      -3.273  13.812  23.425  0.00  0.00    +0.000 C 
ATOM      4  N   UNL     1      -2.066  14.120  22.658  0.00  0.00    +0.000 N 
ATOM      5  C   UNL     1      -1.361  13.099  22.064  0.00  0.00    +0.000 A 
ATOM      6  C   UNL     1      -0.599  13.332  20.924  0.00  0.00    +0.000 A 
ATOM      7  C   UNL     1       0.142  12.305  20.343  0.00  0.00    +0.000 A 
ATOM      8  C   UNL     1       1.034  12.620  19.175  0.00  0.00    +0.000 C 
ATOM      9  C   UNL     1       0.093  11.035  20.936  0.00  0.00    +0.000 A 
ATOM     10  C   UNL     1       0.806   9.943  20.413  0.00  0.00    +0.000 A 
ATOM     11  C   UNL     1       0.953   8.738  21.096  0.00  0.00    +0.000 A 
ATOM     12  C   UNL     1       0.214   8.591  22.272  0.00  0.00    +0.000 A 
ATOM     13  C   UNL     1      -0.599   9.637  22.748  0.00  0.00    +0.000 A 
ATOM     14  C   UNL     1      -0.659  10.871  22.108  0.00  0.00    +0.000 A 
ATOM     15  N   UNL     1      -1.390  11.874  22.634  0.00  0.00    +0.000 NA
ATOM     16  C   UNL     1      -1.618  15.514  22.602  0.00  0.00    +0.000 C 
ATOM     17  C   UNL     1      -1.701  16.173  23.996  0.00  0.00    +0.000 C 
ENDROOT
BRANCH  11  18
ATOM     18  N   UNL     1       1.885   7.758  20.714  0.00  0.00    +0.000 N 
ATOM     19  C   UNL     1       2.304   7.315  19.480  0.00  0.00    +0.000 C 
ATOM     20  N   UNL     1       2.975   6.201  19.419  0.00  0.00    +0.000 NA
ATOM     21  H   UNL     1       2.248   7.196  21.475  0.00  0.00    +0.000 HD
BRANCH  19  22
ATOM     22  S   UNL     1       2.012   8.297  18.026  0.00  0.00    +0.000 S 
ATOM     23  H   UNL     1       3.262   8.744  17.882  0.00  0.00    +0.000 HD
ENDBRANCH  19  22
BRANCH  20  24
ATOM     24  C   UNL     1       3.434   5.769  18.095  0.00  0.00    +0.000 C 
BRANCH  24  25
ATOM     25  C   UNL     1       2.827   4.439  17.677  0.00  0.00    +0.000 C 
BRANCH  25  26
ATOM     26  C   UNL     1       3.879   3.357  17.922  0.00  0.00    +0.000 C 
BRANCH  26  27
ATOM     27  O   UNL     1       3.614   2.659  19.133  0.00  0.00    +0.000 OA
ATOM     28  C   UNL     1       2.312   2.083  19.101  0.00  0.00    +0.000 C 
ENDBRANCH  26  27
ENDBRANCH  25  26
ENDBRANCH  24  25
ENDBRANCH  20  24
ENDBRANCH  11  18
BRANCH   1  30
ATOM     29  C   UNL     1      -5.175  17.279  24.912  0.00  0.00    +0.000 C 
ATOM     30  C   UNL     1      -4.106  16.720  23.980  0.00  0.00    +0.000 C 
ENDBRANCH   1  30
TORSDOF 7
ENDMDL
MODEL 6
REMARK VINA RESULT:      -6.2      2.914      4.159
REMARK  Name = 
REMARK  10 active torsions:
REMARK  status: ('A' for Active; 'I' for Inactive)
REMARK    1  A    between atoms: C_1  and  C_2
REMARK    2  A    between atoms: C_2  and  N_3
REMARK    3  A    between atoms: C_9  and  C_10
REMARK    4  A    between atoms: C_13  and  N_14
REMARK    5  A    between atoms: C_15  and  S_16
REMARK    6  A    between atoms: N_17  and  C_18
REMARK    7  A    between atoms: C_18  and  C_19
REMARK    8  A    between atoms: C_19  and  C_20
REMARK    9  A    between atoms: C_20  and  O_21
REMARK   10  A    between atoms: O_21  and  C_22
REMARK                            x       y       z     vdW  Elec       q    Type
REMARK                         _______ _______ _______ _____ _____    ______ ____
ROOT
ATOM      1  N   UNL     1       2.266   2.805  18.950  0.00  0.00    +0.000 NA
ATOM      2  C   UNL     1       2.075   3.375  20.312  0.00  0.00    +0.000 C 
ATOM      3  C   UNL     1       2.704   4.769  20.531  0.00  0.00    +0.000 C 
ATOM      4  N   UNL     1       2.331   5.693  19.459  0.00  0.00    +0.000 N 
ATOM      5  C   UNL     1       1.918   6.967  19.775  0.00  0.00    +0.000 A 
ATOM      6  C   UNL     1       2.092   8.013  18.874  0.00  0.00    +0.000 A 
ATOM      7  C   UNL     1       1.643   9.295  19.181  0.00  0.00    +0.000 A 
ATOM      8  C   UNL     1       1.753  10.375  18.142  0.00  0.00    +0.000 C 
ATOM      9  C   UNL     1       1.017   9.499  20.420  0.00  0.00    +0.000 A 
ATOM     10  C   UNL     1       0.538  10.762  20.811  0.00  0.00    +0.000 A 
ATOM     11  C   UNL     1      -0.275  10.951  21.926  0.00  0.00    +0.000 A 
ATOM     12  C   UNL     1      -0.468   9.843  22.754  0.00  0.00    +0.000 A 
ATOM     13  C   UNL     1       0.105   8.597  22.436  0.00  0.00    +0.000 A 
ATOM     14  C   UNL     1       0.832   8.398  21.268  0.00  0.00    +0.000 A 
ATOM     15  N   UNL     1       1.303   7.173  20.960  0.00  0.00    +0.000 NA
ATOM     16  C   UNL     1       2.357   5.200  18.080  0.00  0.00    +0.000 C 
ATOM     17  C   UNL     1       1.726   3.793  17.989  0.00  0.00    +0.000 C 
ENDROOT
BRANCH  11  18
ATOM     18  N   UNL     1      -0.980  12.144  22.158  0.00  0.00    +0.000 N 
ATOM     19  C   UNL     1      -1.807  12.897  21.355  0.00  0.00    +0.000 C 
ATOM     20  N   UNL     1      -2.104  14.106  21.735  0.00  0.00    +0.000 NA
ATOM     21  H   UNL     1      -0.770  12.600  23.038  0.00  0.00    +0.000 HD
BRANCH  19  22
ATOM     22  S   UNL     1      -2.520  12.191  19.887  0.00  0.00    +0.000 S 
ATOM     23  H   UNL     1      -3.251  11.255  20.499  0.00  0.00    +0.000 HD
ENDBRANCH  19  22
BRANCH  20  24
ATOM     24  C   UNL     1      -3.011  14.874  20.876  0.00  0.00    +0.000 C 
BRANCH  24  25
ATOM     25  C   UNL     1      -4.244  15.357  21.623  0.00  0.00    +0.000 C 
BRANCH  25  26
ATOM     26  C   UNL     1      -5.349  14.325  21.400  0.00  0.00    +0.000 C 
BRANCH  26  27
ATOM     27  O   UNL     1      -5.626  13.613  22.600  0.00  0.00    +0.000 OA
ATOM     28  C   UNL     1      -6.193  14.483  23.575  0.00  0.00    +0.000 C 
ENDBRANCH  26  27
ENDBRANCH  25  26
ENDBRANCH  24  25
ENDBRANCH  20  24
ENDBRANCH  11  18
BRANCH   1  30
ATOM     29  C   UNL     1       4.411   1.970  19.958  0.00  0.00    +0.000 C 
ATOM     30  C   UNL     1       3.685   2.485  18.720  0.00  0.00    +0.000 C 
ENDBRANCH   1  30
TORSDOF 7
ENDMDL
MODEL 7
REMARK VINA RESULT:      -6.2      3.376      4.490
REMARK  Name = 
REMARK  10 active torsions:
REMARK  status: ('A' for Active; 'I' for Inactive)
REMARK    1  A    between atoms: C_1  and  C_2
REMARK    2  A    between atoms: C_2  and  N_3
REMARK    3  A    between atoms: C_9  and  C_10
REMARK    4  A    between atoms: C_13  and  N_14
REMARK    5  A    between atoms: C_15  and  S_16
REMARK    6  A    between atoms: N_17  and  C_18
REMARK    7  A    between atoms: C_18  and  C_19
REMARK    8  A    between atoms: C_19  and  C_20
REMARK    9  A    between atoms: C_20  and  O_21
REMARK   10  A    between atoms: O_21  and  C_22
REMARK                            x       y       z     vdW  Elec       q    Type
REMARK                         _______ _______ _______ _____ _____    ______ ____
ROOT
ATOM      1  N   UNL     1       2.278   2.774  19.087  0.00  0.00    +0.000 NA
ATOM      2  C   UNL     1       2.182   3.437  20.416  0.00  0.00    +0.000 C 
ATOM      3  C   UNL     1       2.826   4.839  20.496  0.00  0.00    +0.000 C 
ATOM      4  N   UNL     1       2.380   5.689  19.392  0.00  0.00    +0.000 N 
ATOM      5  C   UNL     1       1.991   6.984  19.647  0.00  0.00    +0.000 A 
ATOM      6  C   UNL     1       2.102   7.965  18.668  0.00  0.00    +0.000 A 
ATOM      7  C   UNL     1       1.676   9.268  18.916  0.00  0.00    +0.000 A 
ATOM      8  C   UNL     1       1.716  10.274  17.800  0.00  0.00    +0.000 C 
ATOM      9  C   UNL     1       1.138   9.559  20.178  0.00  0.00    +0.000 A 
ATOM     10  C   UNL     1       0.689  10.848  20.514  0.00  0.00    +0.000 A 
ATOM     11  C   UNL     1      -0.045  11.117  21.667  0.00  0.00    +0.000 A 
ATOM     12  C   UNL     1      -0.181  10.069  22.581  0.00  0.00    +0.000 A 
ATOM     13  C   UNL     1       0.368   8.801  22.310  0.00  0.00    +0.000 A 
ATOM     14  C   UNL     1       1.012   8.520  21.110  0.00  0.00    +0.000 A 
ATOM     15  N   UNL     1       1.460   7.274  20.855  0.00  0.00    +0.000 NA
ATOM     16  C   UNL     1       2.310   5.103  18.051  0.00  0.00    +0.000 C 
ATOM     17  C   UNL     1       1.673   3.697  18.100  0.00  0.00    +0.000 C 
ENDROOT
BRANCH  11  18
ATOM     18  N   UNL     1      -0.732  12.327  21.865  0.00  0.00    +0.000 N 
ATOM     19  C   UNL     1      -0.294  13.627  21.978  0.00  0.00    +0.000 C 
ATOM     20  N   UNL     1      -1.122  14.520  22.437  0.00  0.00    +0.000 NA
ATOM     21  H   UNL     1      -1.720  12.229  22.066  0.00  0.00    +0.000 HD
BRANCH  19  22
ATOM     22  S   UNL     1       1.333  14.079  21.419  0.00  0.00    +0.000 S 
ATOM     23  H   UNL     1       1.049  15.348  21.113  0.00  0.00    +0.000 HD
ENDBRANCH  19  22
BRANCH  20  24
ATOM     24  C   UNL     1      -0.639  15.902  22.518  0.00  0.00    +0.000 C 
BRANCH  24  25
ATOM     25  C   UNL     1      -0.599  16.419  23.948  0.00  0.00    +0.000 C 
BRANCH  25  26
ATOM     26  C   UNL     1      -1.316  15.394  24.827  0.00  0.00    +0.000 C 
BRANCH  26  27
ATOM     27  O   UNL     1      -2.361  16.008  25.571  0.00  0.00    +0.000 OA
ATOM     28  C   UNL     1      -3.617  15.792  24.937  0.00  0.00    +0.000 C 
ENDBRANCH  26  27
ENDBRANCH  25  26
ENDBRANCH  24  25
ENDBRANCH  20  24
ENDBRANCH  11  18
BRANCH   1  30
ATOM     29  C   UNL     1       4.485   1.989  19.997  0.00  0.00    +0.000 C 
ATOM     30  C   UNL     1       3.677   2.431  18.782  0.00  0.00    +0.000 C 
ENDBRANCH   1  30
TORSDOF 7
ENDMDL
MODEL 8
REMARK VINA RESULT:      -6.2      3.439     11.102
REMARK  Name = 
REMARK  10 active torsions:
REMARK  status: ('A' for Active; 'I' for Inactive)
REMARK    1  A    between atoms: C_1  and  C_2
REMARK    2  A    between atoms: C_2  and  N_3
REMARK    3  A    between atoms: C_9  and  C_10
REMARK    4  A    between atoms: C_13  and  N_14
REMARK    5  A    between atoms: C_15  and  S_16
REMARK    6  A    between atoms: N_17  and  C_18
REMARK    7  A    between atoms: C_18  and  C_19
REMARK    8  A    between atoms: C_19  and  C_20
REMARK    9  A    between atoms: C_20  and  O_21
REMARK   10  A    between atoms: O_21  and  C_22
REMARK                            x       y       z     vdW  Elec       q    Type
REMARK                         _______ _______ _______ _____ _____    ______ ____
ROOT
ATOM      1  N   UNL     1      -5.656  14.462  22.813  0.00  0.00    +0.000 NA
ATOM      2  C   UNL     1      -4.756  14.697  21.650  0.00  0.00    +0.000 C 
ATOM      3  C   UNL     1      -3.258  14.429  21.919  0.00  0.00    +0.000 C 
ATOM      4  N   UNL     1      -3.058  13.125  22.552  0.00  0.00    +0.000 N 
ATOM      5  C   UNL     1      -2.066  12.292  22.089  0.00  0.00    +0.000 A 
ATOM      6  C   UNL     1      -1.469  11.362  22.934  0.00  0.00    +0.000 A 
ATOM      7  C   UNL     1      -0.488  10.496  22.457  0.00  0.00    +0.000 A 
ATOM      8  C   UNL     1       0.058   9.436  23.372  0.00  0.00    +0.000 C 
ATOM      9  C   UNL     1      -0.121  10.591  21.106  0.00  0.00    +0.000 A 
ATOM     10  C   UNL     1       0.862   9.759  20.544  0.00  0.00    +0.000 A 
ATOM     11  C   UNL     1       1.092   9.678  19.172  0.00  0.00    +0.000 A 
ATOM     12  C   UNL     1       0.408  10.595  18.369  0.00  0.00    +0.000 A 
ATOM     13  C   UNL     1      -0.494  11.515  18.934  0.00  0.00    +0.000 A 
ATOM     14  C   UNL     1      -0.788  11.518  20.294  0.00  0.00    +0.000 A 
ATOM     15  N   UNL     1      -1.712  12.366  20.787  0.00  0.00    +0.000 NA
ATOM     16  C   UNL     1      -3.971  12.730  23.627  0.00  0.00    +0.000 C 
ATOM     17  C   UNL     1      -5.432  13.068  23.257  0.00  0.00    +0.000 C 
ENDROOT
BRANCH  11  18
ATOM     18  N   UNL     1       1.862   8.657  18.590  0.00  0.00    +0.000 N 
ATOM     19  C   UNL     1       2.374   7.485  19.098  0.00  0.00    +0.000 C 
ATOM     20  N   UNL     1       3.288   6.862  18.412  0.00  0.00    +0.000 NA
ATOM     21  H   UNL     1       2.196   8.856  17.654  0.00  0.00    +0.000 HD
BRANCH  19  22
ATOM     22  S   UNL     1       1.728   6.803  20.608  0.00  0.00    +0.000 S 
ATOM     23  H   UNL     1       0.604   6.304  20.089  0.00  0.00    +0.000 HD
ENDBRANCH  19  22
BRANCH  20  24
ATOM     24  C   UNL     1       3.793   5.601  18.963  0.00  0.00    +0.000 C 
BRANCH  24  25
ATOM     25  C   UNL     1       3.662   4.446  17.981  0.00  0.00    +0.000 C 
BRANCH  25  26
ATOM     26  C   UNL     1       4.612   4.724  16.817  0.00  0.00    +0.000 C 
BRANCH  26  27
ATOM     27  O   UNL     1       5.906   5.076  17.292  0.00  0.00    +0.000 OA
ATOM     28  C   UNL     1       6.893   4.216  16.730  0.00  0.00    +0.000 C 
ENDBRANCH  26  27
ENDBRANCH  25  26
ENDBRANCH  24  25
ENDBRANCH  20  24
ENDBRANCH  11  18
BRANCH   1  30
ATOM     29  C   UNL     1      -6.229  16.731  23.729  0.00  0.00    +0.000 C 
ATOM     30  C   UNL     1      -5.403  15.457  23.869  0.00  0.00    +0.000 C 
ENDBRANCH   1  30
TORSDOF 7
ENDMDL
MODEL 9
REMARK VINA RESULT:      -6.1      3.079      4.295
REMARK  Name = 
REMARK  10 active torsions:
REMARK  status: ('A' for Active; 'I' for Inactive)
REMARK    1  A    between atoms: C_1  and  C_2
REMARK    2  A    between atoms: C_2  and  N_3
REMARK    3  A    between atoms: C_9  and  C_10
REMARK    4  A    between atoms: C_13  and  N_14
REMARK    5  A    between atoms: C_15  and  S_16
REMARK    6  A    between atoms: N_17  and  C_18
REMARK    7  A    between atoms: C_18  and  C_19
REMARK    8  A    between atoms: C_19  and  C_20
REMARK    9  A    between atoms: C_20  and  O_21
REMARK   10  A    between atoms: O_21  and  C_22
REMARK                            x       y       z     vdW  Elec       q    Type
REMARK                         _______ _______ _______ _____ _____    ______ ____
ROOT
ATOM      1  N   UNL     1       2.054   2.855  19.613  0.00  0.00    +0.000 NA
ATOM      2  C   UNL     1       1.878   3.604  20.887  0.00  0.00    +0.000 C 
ATOM      3  C   UNL     1       2.563   4.988  20.932  0.00  0.00    +0.000 C 
ATOM      4  N   UNL     1       2.235   5.779  19.746  0.00  0.00    +0.000 N 
ATOM      5  C   UNL     1       1.872   7.099  19.890  0.00  0.00    +0.000 A 
ATOM      6  C   UNL     1       2.095   8.012  18.864  0.00  0.00    +0.000 A 
ATOM      7  C   UNL     1       1.697   9.340  18.998  0.00  0.00    +0.000 A 
ATOM      8  C   UNL     1       1.859  10.271  17.829  0.00  0.00    +0.000 C 
ATOM      9  C   UNL     1       1.072   9.728  20.192  0.00  0.00    +0.000 A 
ATOM     10  C   UNL     1       0.643  11.048  20.412  0.00  0.00    +0.000 A 
ATOM     11  C   UNL     1      -0.168  11.412  21.484  0.00  0.00    +0.000 A 
ATOM     12  C   UNL     1      -0.412  10.429  22.446  0.00  0.00    +0.000 A 
ATOM     13  C   UNL     1       0.111   9.131  22.298  0.00  0.00    +0.000 A 
ATOM     14  C   UNL     1       0.837   8.754  21.173  0.00  0.00    +0.000 A 
ATOM     15  N   UNL     1       1.259   7.481  21.031  0.00  0.00    +0.000 NA
ATOM     16  C   UNL     1       2.249   5.112  18.442  0.00  0.00    +0.000 C 
ATOM     17  C   UNL     1       1.561   3.732  18.526  0.00  0.00    +0.000 C 
ENDROOT
BRANCH  11  18
ATOM     18  N   UNL     1      -0.825  12.653  21.551  0.00  0.00    +0.000 N 
ATOM     19  C   UNL     1      -1.991  13.046  22.168  0.00  0.00    +0.000 C 
ATOM     20  N   UNL     1      -2.511  14.192  21.835  0.00  0.00    +0.000 NA
ATOM     21  H   UNL     1      -0.435  13.375  20.957  0.00  0.00    +0.000 HD
BRANCH  19  22
ATOM     22  S   UNL     1      -2.708  12.048  23.454  0.00  0.00    +0.000 S 
ATOM     23  H   UNL     1      -2.201  12.729  24.485  0.00  0.00    +0.000 HD
ENDBRANCH  19  22
BRANCH  20  24
ATOM     24  C   UNL     1      -3.736  14.599  22.530  0.00  0.00    +0.000 C 
BRANCH  24  25
ATOM     25  C   UNL     1      -4.904  14.796  21.576  0.00  0.00    +0.000 C 
BRANCH  25  26
ATOM     26  C   UNL     1      -5.585  13.439  21.398  0.00  0.00    +0.000 C 
BRANCH  26  27
ATOM     27  O   UNL     1      -6.464  13.457  20.280  0.00  0.00    +0.000 OA
ATOM     28  C   UNL     1      -7.529  12.531  20.469  0.00  0.00    +0.000 C 
ENDBRANCH  26  27
ENDBRANCH  25  26
ENDBRANCH  24  25
ENDBRANCH  20  24
ENDBRANCH  11  18
BRANCH   1  30
ATOM     29  C   UNL     1       3.672   1.383  18.376  0.00  0.00    +0.000 C 
ATOM     30  C   UNL     1       3.459   2.451  19.443  0.00  0.00    +0.000 C 
ENDBRANCH   1  30
TORSDOF 7
ENDMDL
