MODEL 1
REMARK VINA RESULT:      -9.0      0.000      0.000
REMARK  Name = 
REMARK  7 active torsions:
REMARK  status: ('A' for Active; 'I' for Inactive)
REMARK    1  A    between atoms: C_1  and  C_2
REMARK    2  A    between atoms: C_5  and  N_6
REMARK    3  A    between atoms: N_9  and  C_10
REMARK    4  A    between atoms: C_15  and  C_16
REMARK    5  A    between atoms: C_16  and  N_17
REMARK    6  A    between atoms: C_21  and  C_22
REMARK    7  A    between atoms: C_22  and  C_23
REMARK                            x       y       z     vdW  Elec       q    Type
REMARK                         _______ _______ _______ _____ _____    ______ ____
ROOT
ATOM      1  C   UNL     1       6.830   5.528  17.369  0.00  0.00    +0.000 C 
ATOM      2  C   UNL     1       7.631   4.782  16.284  0.00  0.00    +0.000 C 
ATOM      3  C   UNL     1       7.165   5.141  14.870  0.00  0.00    +0.000 C 
ATOM      4  C   UNL     1       5.664   4.948  14.691  0.00  0.00    +0.000 C 
ATOM      5  C   UNL     1       4.863   5.670  15.763  0.00  0.00    +0.000 C 
ATOM      6  C   UNL     1       5.297   5.310  17.194  0.00  0.00    +0.000 C 
ENDROOT
BRANCH   1  10
ATOM      7  N   UNL     1       8.243   8.906  17.746  0.00  0.00    +0.000 N 
ATOM      8  C   UNL     1       8.044   7.608  18.189  0.00  0.00    +0.000 C 
ATOM      9  O   UNL     1       8.470   7.104  19.213  0.00  0.00    +0.000 OA
ATOM     10  N   UNL     1       7.249   6.944  17.276  0.00  0.00    +0.000 N 
ATOM     11  H   UNL     1       7.709   9.167  16.931  0.00  0.00    +0.000 HD
ATOM     12  H   UNL     1       7.462   7.234  16.334  0.00  0.00    +0.000 HD
BRANCH   7  17
ATOM     13  C   UNL     1      11.477  13.083  19.944  0.00  0.00    +0.000 C 
ATOM     14  C   UNL     1      10.607  11.995  19.395  0.00  0.00    +0.000 A 
ATOM     15  C   UNL     1       9.808  11.214  20.235  0.00  0.00    +0.000 A 
ATOM     16  C   UNL     1       9.017  10.184  19.713  0.00  0.00    +0.000 A 
ATOM     17  C   UNL     1       9.005   9.928  18.341  0.00  0.00    +0.000 A 
ATOM     18  C   UNL     1       9.792  10.717  17.496  0.00  0.00    +0.000 A 
ATOM     19  C   UNL     1      10.584  11.734  18.026  0.00  0.00    +0.000 A 
ATOM     20  F   UNL     1      11.339  12.467  17.193  0.00  0.00    +0.000 F 
ENDBRANCH   7  17
ENDBRANCH   1  10
BRANCH   6  21
ATOM     21  C   UNL     1       4.781   3.878  17.609  0.00  0.00    +0.000 C 
BRANCH  21  22
ATOM     22  N   UNL     1       3.574   3.868  18.455  0.00  0.00    +0.000 NA
ATOM     23  C   UNL     1       3.511   2.694  19.335  0.00  0.00    +0.000 C 
ATOM     24  C   UNL     1       2.048   2.522  19.692  0.00  0.00    +0.000 C 
ATOM     25  C   UNL     1       1.595   3.680  20.557  0.00  0.00    +0.000 C 
ATOM     26  C   UNL     1       1.962   5.059  19.967  0.00  0.00    +0.000 C 
ATOM     27  C   UNL     1       3.374   5.077  19.294  0.00  0.00    +0.000 C 
BRANCH  26  28
ATOM     28  C   UNL     1       1.795   6.138  21.075  0.00  0.00    +0.000 C 
BRANCH  28  29
ATOM     29  C   UNL     1       1.445   7.507  20.508  0.00  0.00    +0.000 A 
ATOM     30  C   UNL     1       1.855   7.886  19.217  0.00  0.00    +0.000 A 
ATOM     31  C   UNL     1       1.652   9.194  18.762  0.00  0.00    +0.000 A 
ATOM     32  C   UNL     1       1.034  10.119  19.593  0.00  0.00    +0.000 A 
ATOM     33  F   UNL     1       0.882  11.383  19.176  0.00  0.00    +0.000 F 
ATOM     34  C   UNL     1       0.591   9.761  20.860  0.00  0.00    +0.000 A 
ATOM     35  C   UNL     1       0.785   8.453  21.311  0.00  0.00    +0.000 A 
ENDBRANCH  28  29
ENDBRANCH  26  28
ENDBRANCH  21  22
ENDBRANCH   6  21
TORSDOF 6
ENDMDL
MODEL 2
REMARK VINA RESULT:      -8.8      0.795      1.184
REMARK  Name = 
REMARK  7 active torsions:
REMARK  status: ('A' for Active; 'I' for Inactive)
REMARK    1  A    between atoms: C_1  and  C_2
REMARK    2  A    between atoms: C_5  and  N_6
REMARK    3  A    between atoms: N_9  and  C_10
REMARK    4  A    between atoms: C_15  and  C_16
REMARK    5  A    between atoms: C_16  and  N_17
REMARK    6  A    between atoms: C_21  and  C_22
REMARK    7  A    between atoms: C_22  and  C_23
REMARK                            x       y       z     vdW  Elec       q    Type
REMARK                         _______ _______ _______ _____ _____    ______ ____
ROOT
ATOM      1  C   UNL     1       6.693   5.403  17.294  0.00  0.00    +0.000 C 
ATOM      2  C   UNL     1       7.606   4.701  16.269  0.00  0.00    +0.000 C 
ATOM      3  C   UNL     1       7.204   5.013  14.825  0.00  0.00    +0.000 C 
ATOM      4  C   UNL     1       5.733   4.719  14.559  0.00  0.00    +0.000 C 
ATOM      5  C   UNL     1       4.822   5.397  15.571  0.00  0.00    +0.000 C 
ATOM      6  C   UNL     1       5.191   5.081  17.031  0.00  0.00    +0.000 C 
ENDROOT
BRANCH   1  10
ATOM      7  N   UNL     1       7.924   8.853  17.660  0.00  0.00    +0.000 N 
ATOM      8  C   UNL     1       7.826   7.538  18.087  0.00  0.00    +0.000 C 
ATOM      9  O   UNL     1       8.338   7.044  19.076  0.00  0.00    +0.000 OA
ATOM     10  N   UNL     1       7.023   6.842  17.206  0.00  0.00    +0.000 N 
ATOM     11  H   UNL     1       7.332   9.095  16.879  0.00  0.00    +0.000 HD
ATOM     12  H   UNL     1       7.166   7.161  16.259  0.00  0.00    +0.000 HD
BRANCH   7  17
ATOM     13  C   UNL     1      10.884  13.274  19.764  0.00  0.00    +0.000 C 
ATOM     14  C   UNL     1      10.104  12.106  19.246  0.00  0.00    +0.000 A 
ATOM     15  C   UNL     1      10.096  10.883  19.925  0.00  0.00    +0.000 A 
ATOM     16  C   UNL     1       9.382   9.790  19.418  0.00  0.00    +0.000 A 
ATOM     17  C   UNL     1       8.657   9.909  18.232  0.00  0.00    +0.000 A 
ATOM     18  C   UNL     1       8.651  11.134  17.559  0.00  0.00    +0.000 A 
ATOM     19  C   UNL     1       9.372  12.214  18.066  0.00  0.00    +0.000 A 
ATOM     20  F   UNL     1       9.359  13.375  17.391  0.00  0.00    +0.000 F 
ENDBRANCH   7  17
ENDBRANCH   1  10
BRANCH   6  21
ATOM     21  C   UNL     1       4.748   3.622  17.434  0.00  0.00    +0.000 C 
BRANCH  21  22
ATOM     22  N   UNL     1       3.760   3.548  18.526  0.00  0.00    +0.000 NA
ATOM     23  C   UNL     1       4.198   2.679  19.626  0.00  0.00    +0.000 C 
ATOM     24  C   UNL     1       2.935   2.259  20.351  0.00  0.00    +0.000 C 
ATOM     25  C   UNL     1       2.313   3.461  21.031  0.00  0.00    +0.000 C 
ATOM     26  C   UNL     1       2.150   4.674  20.089  0.00  0.00    +0.000 C 
ATOM     27  C   UNL     1       3.357   4.853  19.110  0.00  0.00    +0.000 C 
BRANCH  26  28
ATOM     28  C   UNL     1       1.862   5.939  20.948  0.00  0.00    +0.000 C 
BRANCH  28  29
ATOM     29  C   UNL     1       1.846   7.216  20.118  0.00  0.00    +0.000 A 
ATOM     30  C   UNL     1       1.235   8.388  20.599  0.00  0.00    +0.000 A 
ATOM     31  C   UNL     1       1.100   9.509  19.773  0.00  0.00    +0.000 A 
ATOM     32  C   UNL     1       1.582   9.462  18.471  0.00  0.00    +0.000 A 
ATOM     33  F   UNL     1       1.412  10.519  17.665  0.00  0.00    +0.000 F 
ATOM     34  C   UNL     1       2.218   8.328  17.983  0.00  0.00    +0.000 A 
ATOM     35  C   UNL     1       2.361   7.211  18.811  0.00  0.00    +0.000 A 
ENDBRANCH  28  29
ENDBRANCH  26  28
ENDBRANCH  21  22
ENDBRANCH   6  21
TORSDOF 6
ENDMDL
MODEL 3
REMARK VINA RESULT:      -8.8      0.907      1.491
REMARK  Name = 
REMARK  7 active torsions:
REMARK  status: ('A' for Active; 'I' for Inactive)
REMARK    1  A    between atoms: C_1  and  C_2
REMARK    2  A    between atoms: C_5  and  N_6
REMARK    3  A    between atoms: N_9  and  C_10
REMARK    4  A    between atoms: C_15  and  C_16
REMARK    5  A    between atoms: C_16  and  N_17
REMARK    6  A    between atoms: C_21  and  C_22
REMARK    7  A    between atoms: C_22  and  C_23
REMARK                            x       y       z     vdW  Elec       q    Type
REMARK                         _______ _______ _______ _____ _____    ______ ____
ROOT
ATOM      1  C   UNL     1       6.959   5.838  17.479  0.00  0.00    +0.000 C 
ATOM      2  C   UNL     1       7.563   5.102  16.266  0.00  0.00    +0.000 C 
ATOM      3  C   UNL     1       6.875   5.487  14.954  0.00  0.00    +0.000 C 
ATOM      4  C   UNL     1       5.362   5.310  15.021  0.00  0.00    +0.000 C 
ATOM      5  C   UNL     1       4.756   6.021  16.221  0.00  0.00    +0.000 C 
ATOM      6  C   UNL     1       5.416   5.635  17.556  0.00  0.00    +0.000 C 
ENDROOT
BRANCH   1  10
ATOM      7  N   UNL     1       8.386   9.222  17.722  0.00  0.00    +0.000 N 
ATOM      8  C   UNL     1       8.209   7.933  18.199  0.00  0.00    +0.000 C 
ATOM      9  O   UNL     1       8.684   7.449  19.212  0.00  0.00    +0.000 OA
ATOM     10  N   UNL     1       7.373   7.251  17.338  0.00  0.00    +0.000 N 
ATOM     11  H   UNL     1       7.815   9.467  16.928  0.00  0.00    +0.000 HD
ATOM     12  H   UNL     1       7.541   7.523  16.381  0.00  0.00    +0.000 HD
BRANCH   7  17
ATOM     13  C   UNL     1      11.454  13.413  20.123  0.00  0.00    +0.000 C 
ATOM     14  C   UNL     1      10.677  12.312  19.471  0.00  0.00    +0.000 A 
ATOM     15  C   UNL     1      10.795  12.055  18.102  0.00  0.00    +0.000 A 
ATOM     16  C   UNL     1      10.045  11.038  17.499  0.00  0.00    +0.000 A 
ATOM     17  C   UNL     1       9.176  10.255  18.260  0.00  0.00    +0.000 A 
ATOM     18  C   UNL     1       9.067  10.499  19.632  0.00  0.00    +0.000 A 
ATOM     19  C   UNL     1       9.810  11.520  20.222  0.00  0.00    +0.000 A 
ATOM     20  F   UNL     1       9.675  11.741  21.540  0.00  0.00    +0.000 F 
ENDBRANCH   7  17
ENDBRANCH   1  10
BRANCH   6  21
ATOM     21  C   UNL     1       4.961   4.201  18.029  0.00  0.00    +0.000 C 
BRANCH  21  22
ATOM     22  N   UNL     1       3.663   4.155  18.727  0.00  0.00    +0.000 NA
ATOM     23  C   UNL     1       3.535   2.984  19.604  0.00  0.00    +0.000 C 
ATOM     24  C   UNL     1       2.047   2.766  19.789  0.00  0.00    +0.000 C 
ATOM     25  C   UNL     1       1.457   3.912  20.583  0.00  0.00    +0.000 C 
ATOM     26  C   UNL     1       1.845   5.299  20.027  0.00  0.00    +0.000 C 
ATOM     27  C   UNL     1       3.326   5.361  19.525  0.00  0.00    +0.000 C 
BRANCH  26  28
ATOM     28  C   UNL     1       1.513   6.378  21.098  0.00  0.00    +0.000 C 
BRANCH  28  29
ATOM     29  C   UNL     1       1.369   7.770  20.497  0.00  0.00    +0.000 A 
ATOM     30  C   UNL     1       0.662   8.783  21.170  0.00  0.00    +0.000 A 
ATOM     31  C   UNL     1       0.414  10.011  20.546  0.00  0.00    +0.000 A 
ATOM     32  C   UNL     1       0.878  10.229  19.256  0.00  0.00    +0.000 A 
ATOM     33  F   UNL     1       0.600  11.387  18.641  0.00  0.00    +0.000 F 
ATOM     34  C   UNL     1       1.606   9.257  18.582  0.00  0.00    +0.000 A 
ATOM     35  C   UNL     1       1.861   8.034  19.207  0.00  0.00    +0.000 A 
ENDBRANCH  28  29
ENDBRANCH  26  28
ENDBRANCH  21  22
ENDBRANCH   6  21
TORSDOF 6
ENDMDL
MODEL 4
REMARK VINA RESULT:      -8.7      3.939      8.592
REMARK  Name = 
REMARK  7 active torsions:
REMARK  status: ('A' for Active; 'I' for Inactive)
REMARK    1  A    between atoms: C_1  and  C_2
REMARK    2  A    between atoms: C_5  and  N_6
REMARK    3  A    between atoms: N_9  and  C_10
REMARK    4  A    between atoms: C_15  and  C_16
REMARK    5  A    between atoms: C_16  and  N_17
REMARK    6  A    between atoms: C_21  and  C_22
REMARK    7  A    between atoms: C_22  and  C_23
REMARK                            x       y       z     vdW  Elec       q    Type
REMARK                         _______ _______ _______ _____ _____    ______ ____
ROOT
ATOM      1  C   UNL     1       3.019   5.472  19.348  0.00  0.00    +0.000 C 
ATOM      2  C   UNL     1       2.149   5.016  18.160  0.00  0.00    +0.000 C 
ATOM      3  C   UNL     1       1.211   3.866  18.536  0.00  0.00    +0.000 C 
ATOM      4  C   UNL     1       1.957   2.696  19.167  0.00  0.00    +0.000 C 
ATOM      5  C   UNL     1       2.829   3.135  20.333  0.00  0.00    +0.000 C 
ATOM      6  C   UNL     1       3.797   4.276  19.974  0.00  0.00    +0.000 C 
ENDROOT
BRANCH   1  10
ATOM      7  N   UNL     1       0.837   7.733  21.266  0.00  0.00    +0.000 N 
ATOM      8  C   UNL     1       1.740   7.479  20.245  0.00  0.00    +0.000 C 
ATOM      9  O   UNL     1       2.181   8.276  19.436  0.00  0.00    +0.000 OA
ATOM     10  N   UNL     1       2.096   6.147  20.286  0.00  0.00    +0.000 N 
ATOM     11  H   UNL     1       0.685   6.965  21.903  0.00  0.00    +0.000 HD
ATOM     12  H   UNL     1       1.311   5.572  20.554  0.00  0.00    +0.000 HD
BRANCH   7  17
ATOM     13  C   UNL     1      -1.751  12.725  22.321  0.00  0.00    +0.000 C 
ATOM     14  C   UNL     1      -1.089  11.405  22.074  0.00  0.00    +0.000 A 
ATOM     15  C   UNL     1      -0.740  10.561  23.132  0.00  0.00    +0.000 A 
ATOM     16  C   UNL     1      -0.100   9.339  22.890  0.00  0.00    +0.000 A 
ATOM     17  C   UNL     1       0.190   8.940  21.585  0.00  0.00    +0.000 A 
ATOM     18  C   UNL     1      -0.170   9.776  20.523  0.00  0.00    +0.000 A 
ATOM     19  C   UNL     1      -0.799  10.994  20.774  0.00  0.00    +0.000 A 
ATOM     20  F   UNL     1      -1.121  11.782  19.736  0.00  0.00    +0.000 F 
ENDBRANCH   7  17
ENDBRANCH   1  10
BRANCH   6  21
ATOM     21  C   UNL     1       5.010   3.753  19.113  0.00  0.00    +0.000 C 
BRANCH  21  22
ATOM     22  N   UNL     1       5.640   4.761  18.242  0.00  0.00    +0.000 NA
ATOM     23  C   UNL     1       6.709   5.505  18.920  0.00  0.00    +0.000 C 
ATOM     24  C   UNL     1       6.858   6.806  18.158  0.00  0.00    +0.000 C 
ATOM     25  C   UNL     1       7.399   6.527  16.771  0.00  0.00    +0.000 C 
ATOM     26  C   UNL     1       6.618   5.422  16.026  0.00  0.00    +0.000 C 
ATOM     27  C   UNL     1       6.187   4.244  16.961  0.00  0.00    +0.000 C 
BRANCH  26  28
ATOM     28  C   UNL     1       7.456   4.959  14.800  0.00  0.00    +0.000 C 
BRANCH  28  29
ATOM     29  C   UNL     1       6.614   4.233  13.759  0.00  0.00    +0.000 A 
ATOM     30  C   UNL     1       7.186   3.748  12.569  0.00  0.00    +0.000 A 
ATOM     31  C   UNL     1       6.379   3.213  11.559  0.00  0.00    +0.000 A 
ATOM     32  C   UNL     1       5.003   3.154  11.742  0.00  0.00    +0.000 A 
ATOM     33  F   UNL     1       4.226   2.684  10.756  0.00  0.00    +0.000 F 
ATOM     34  C   UNL     1       4.417   3.596  12.921  0.00  0.00    +0.000 A 
ATOM     35  C   UNL     1       5.223   4.123  13.932  0.00  0.00    +0.000 A 
ENDBRANCH  28  29
ENDBRANCH  26  28
ENDBRANCH  21  22
ENDBRANCH   6  21
TORSDOF 6
ENDMDL
MODEL 5
REMARK VINA RESULT:      -8.4      1.069      1.395
REMARK  Name = 
REMARK  7 active torsions:
REMARK  status: ('A' for Active; 'I' for Inactive)
REMARK    1  A    between atoms: C_1  and  C_2
REMARK    2  A    between atoms: C_5  and  N_6
REMARK    3  A    between atoms: N_9  and  C_10
REMARK    4  A    between atoms: C_15  and  C_16
REMARK    5  A    between atoms: C_16  and  N_17
REMARK    6  A    between atoms: C_21  and  C_22
REMARK    7  A    between atoms: C_22  and  C_23
REMARK                            x       y       z     vdW  Elec       q    Type
REMARK                         _______ _______ _______ _____ _____    ______ ____
ROOT
ATOM      1  C   UNL     1       6.826   6.198  17.562  0.00  0.00    +0.000 C 
ATOM      2  C   UNL     1       7.625   5.398  16.515  0.00  0.00    +0.000 C 
ATOM      3  C   UNL     1       7.105   5.624  15.092  0.00  0.00    +0.000 C 
ATOM      4  C   UNL     1       5.608   5.362  14.976  0.00  0.00    +0.000 C 
ATOM      5  C   UNL     1       4.810   6.137  16.013  0.00  0.00    +0.000 C 
ATOM      6  C   UNL     1       5.299   5.909  17.454  0.00  0.00    +0.000 C 
ENDROOT
BRANCH   1  10
ATOM      7  N   UNL     1       8.172   9.624  17.580  0.00  0.00    +0.000 N 
ATOM      8  C   UNL     1       8.074   8.347  18.108  0.00  0.00    +0.000 C 
ATOM      9  O   UNL     1       8.648   7.907  19.089  0.00  0.00    +0.000 OA
ATOM     10  N   UNL     1       7.186   7.616  17.344  0.00  0.00    +0.000 N 
ATOM     11  H   UNL     1       7.527   9.829  16.832  0.00  0.00    +0.000 HD
ATOM     12  H   UNL     1       7.262   7.862  16.369  0.00  0.00    +0.000 HD
BRANCH   7  17
ATOM     13  C   UNL     1      11.302  14.131  19.202  0.00  0.00    +0.000 C 
ATOM     14  C   UNL     1      10.495  12.934  18.805  0.00  0.00    +0.000 A 
ATOM     15  C   UNL     1      10.932  11.638  19.096  0.00  0.00    +0.000 A 
ATOM     16  C   UNL     1      10.180  10.525  18.700  0.00  0.00    +0.000 A 
ATOM     17  C   UNL     1       8.975  10.694  18.016  0.00  0.00    +0.000 A 
ATOM     18  C   UNL     1       8.528  11.989  17.736  0.00  0.00    +0.000 A 
ATOM     19  C   UNL     1       9.288  13.090  18.127  0.00  0.00    +0.000 A 
ATOM     20  F   UNL     1       8.841  14.322  17.833  0.00  0.00    +0.000 F 
ENDBRANCH   7  17
ENDBRANCH   1  10
BRANCH   6  21
ATOM     21  C   UNL     1       4.853   4.496  17.996  0.00  0.00    +0.000 C 
BRANCH  21  22
ATOM     22  N   UNL     1       3.608   4.493  18.785  0.00  0.00    +0.000 NA
ATOM     23  C   UNL     1       3.563   3.402  19.766  0.00  0.00    +0.000 C 
ATOM     24  C   UNL     1       2.096   3.179  20.073  0.00  0.00    +0.000 C 
ATOM     25  C   UNL     1       1.539   4.382  20.805  0.00  0.00    +0.000 C 
ATOM     26  C   UNL     1       1.861   5.721  20.106  0.00  0.00    +0.000 C 
ATOM     27  C   UNL     1       3.302   5.760  19.498  0.00  0.00    +0.000 C 
BRANCH  26  28
ATOM     28  C   UNL     1       1.582   6.884  21.101  0.00  0.00    +0.000 C 
BRANCH  28  29
ATOM     29  C   UNL     1       1.181   8.172  20.394  0.00  0.00    +0.000 A 
ATOM     30  C   UNL     1       0.264   9.067  20.976  0.00  0.00    +0.000 A 
ATOM     31  C   UNL     1      -0.205  10.171  20.257  0.00  0.00    +0.000 A 
ATOM     32  C   UNL     1       0.247  10.386  18.961  0.00  0.00    +0.000 A 
ATOM     33  F   UNL     1      -0.238  11.417  18.255  0.00  0.00    +0.000 F 
ATOM     34  C   UNL     1       1.176   9.536  18.375  0.00  0.00    +0.000 A 
ATOM     35  C   UNL     1       1.651   8.438  19.096  0.00  0.00    +0.000 A 
ENDBRANCH  28  29
ENDBRANCH  26  28
ENDBRANCH  21  22
ENDBRANCH   6  21
TORSDOF 6
ENDMDL
MODEL 6
REMARK VINA RESULT:      -7.9      4.095      8.481
REMARK  Name = 
REMARK  7 active torsions:
REMARK  status: ('A' for Active; 'I' for Inactive)
REMARK    1  A    between atoms: C_1  and  C_2
REMARK    2  A    between atoms: C_5  and  N_6
REMARK    3  A    between atoms: N_9  and  C_10
REMARK    4  A    between atoms: C_15  and  C_16
REMARK    5  A    between atoms: C_16  and  N_17
REMARK    6  A    between atoms: C_21  and  C_22
REMARK    7  A    between atoms: C_22  and  C_23
REMARK                            x       y       z     vdW  Elec       q    Type
REMARK                         _______ _______ _______ _____ _____    ______ ____
ROOT
ATOM      1  C   UNL     1       2.663   5.399  19.738  0.00  0.00    +0.000 C 
ATOM      2  C   UNL     1       1.557   4.743  18.887  0.00  0.00    +0.000 C 
ATOM      3  C   UNL     1       0.776   3.683  19.669  0.00  0.00    +0.000 C 
ATOM      4  C   UNL     1       1.691   2.640  20.299  0.00  0.00    +0.000 C 
ATOM      5  C   UNL     1       2.795   3.275  21.131  0.00  0.00    +0.000 C 
ATOM      6  C   UNL     1       3.609   4.329  20.361  0.00  0.00    +0.000 C 
ENDROOT
BRANCH   1  10
ATOM      7  N   UNL     1       0.930   7.984  21.703  0.00  0.00    +0.000 N 
ATOM      8  C   UNL     1       1.591   7.552  20.564  0.00  0.00    +0.000 C 
ATOM      9  O   UNL     1       1.837   8.202  19.563  0.00  0.00    +0.000 OA
ATOM     10  N   UNL     1       1.960   6.234  20.736  0.00  0.00    +0.000 N 
ATOM     11  H   UNL     1       0.928   7.330  22.471  0.00  0.00    +0.000 HD
ATOM     12  H   UNL     1       1.259   5.727  21.255  0.00  0.00    +0.000 HD
BRANCH   7  17
ATOM     13  C   UNL     1      -1.217  13.210  22.607  0.00  0.00    +0.000 C 
ATOM     14  C   UNL     1      -0.686  11.829  22.381  0.00  0.00    +0.000 A 
ATOM     15  C   UNL     1      -1.128  10.748  23.151  0.00  0.00    +0.000 A 
ATOM     16  C   UNL     1      -0.607   9.465  22.946  0.00  0.00    +0.000 A 
ATOM     17  C   UNL     1       0.356   9.243  21.960  0.00  0.00    +0.000 A 
ATOM     18  C   UNL     1       0.790  10.318  21.179  0.00  0.00    +0.000 A 
ATOM     19  C   UNL     1       0.272  11.594  21.396  0.00  0.00    +0.000 A 
ATOM     20  F   UNL     1       0.716  12.610  20.640  0.00  0.00    +0.000 F 
ENDBRANCH   7  17
ENDBRANCH   1  10
BRANCH   6  21
ATOM     21  C   UNL     1       4.606   3.654  19.342  0.00  0.00    +0.000 C 
BRANCH  21  22
ATOM     22  N   UNL     1       5.397   4.593  18.526  0.00  0.00    +0.000 NA
ATOM     23  C   UNL     1       6.779   4.140  18.324  0.00  0.00    +0.000 C 
ATOM     24  C   UNL     1       7.579   5.384  17.994  0.00  0.00    +0.000 C 
ATOM     25  C   UNL     1       7.148   5.926  16.647  0.00  0.00    +0.000 C 
ATOM     26  C   UNL     1       5.617   6.085  16.519  0.00  0.00    +0.000 C 
ATOM     27  C   UNL     1       4.825   4.917  17.194  0.00  0.00    +0.000 C 
BRANCH  26  28
ATOM     28  C   UNL     1       5.260   6.284  15.017  0.00  0.00    +0.000 C 
BRANCH  28  29
ATOM     29  C   UNL     1       5.933   5.256  14.117  0.00  0.00    +0.000 A 
ATOM     30  C   UNL     1       7.235   5.460  13.627  0.00  0.00    +0.000 A 
ATOM     31  C   UNL     1       7.786   4.581  12.688  0.00  0.00    +0.000 A 
ATOM     32  C   UNL     1       7.041   3.496  12.247  0.00  0.00    +0.000 A 
ATOM     33  F   UNL     1       7.551   2.680  11.313  0.00  0.00    +0.000 F 
ATOM     34  C   UNL     1       5.765   3.254  12.740  0.00  0.00    +0.000 A 
ATOM     35  C   UNL     1       5.218   4.126  13.683  0.00  0.00    +0.000 A 
ENDBRANCH  28  29
ENDBRANCH  26  28
ENDBRANCH  21  22
ENDBRANCH   6  21
TORSDOF 6
ENDMDL
MODEL 7
REMARK VINA RESULT:      -7.8      3.588      8.448
REMARK  Name = 
REMARK  7 active torsions:
REMARK  status: ('A' for Active; 'I' for Inactive)
REMARK    1  A    between atoms: C_1  and  C_2
REMARK    2  A    between atoms: C_5  and  N_6
REMARK    3  A    between atoms: N_9  and  C_10
REMARK    4  A    between atoms: C_15  and  C_16
REMARK    5  A    between atoms: C_16  and  N_17
REMARK    6  A    between atoms: C_21  and  C_22
REMARK    7  A    between atoms: C_22  and  C_23
REMARK                            x       y       z     vdW  Elec       q    Type
REMARK                         _______ _______ _______ _____ _____    ______ ____
ROOT
ATOM      1  C   UNL     1       9.585  11.634  18.595  0.00  0.00    +0.000 C 
ATOM      2  C   UNL     1      10.909  11.774  17.818  0.00  0.00    +0.000 C 
ATOM      3  C   UNL     1      12.123  11.393  18.669  0.00  0.00    +0.000 C 
ATOM      4  C   UNL     1      12.164  12.154  19.989  0.00  0.00    +0.000 C 
ATOM      5  C   UNL     1      10.859  12.034  20.760  0.00  0.00    +0.000 C 
ATOM      6  C   UNL     1       9.624  12.432  19.933  0.00  0.00    +0.000 C 
ENDROOT
BRANCH   1  10
ATOM      7  N   UNL     1       8.502   8.116  18.569  0.00  0.00    +0.000 N 
ATOM      8  C   UNL     1       8.353   9.444  18.201  0.00  0.00    +0.000 C 
ATOM      9  O   UNL     1       7.473   9.922  17.506  0.00  0.00    +0.000 OA
ATOM     10  N   UNL     1       9.372  10.180  18.768  0.00  0.00    +0.000 N 
ATOM     11  H   UNL     1       9.229   7.938  19.245  0.00  0.00    +0.000 HD
ATOM     12  H   UNL     1      10.232   9.652  18.787  0.00  0.00    +0.000 HD
BRANCH   7  17
ATOM     13  C   UNL     1       5.173   3.769  16.907  0.00  0.00    +0.000 C 
ATOM     14  C   UNL     1       6.066   4.884  17.357  0.00  0.00    +0.000 A 
ATOM     15  C   UNL     1       6.816   4.780  18.532  0.00  0.00    +0.000 A 
ATOM     16  C   UNL     1       7.630   5.838  18.955  0.00  0.00    +0.000 A 
ATOM     17  C   UNL     1       7.713   7.010  18.202  0.00  0.00    +0.000 A 
ATOM     18  C   UNL     1       6.976   7.111  17.019  0.00  0.00    +0.000 A 
ATOM     19  C   UNL     1       6.161   6.057  16.610  0.00  0.00    +0.000 A 
ATOM     20  F   UNL     1       5.454   6.187  15.476  0.00  0.00    +0.000 F 
ENDBRANCH   7  17
ENDBRANCH   1  10
BRANCH   6  21
ATOM     21  C   UNL     1       9.520  13.998  19.772  0.00  0.00    +0.000 C 
BRANCH  21  22
ATOM     22  N   UNL     1       8.391  14.626  20.482  0.00  0.00    +0.000 NA
ATOM     23  C   UNL     1       8.731  15.947  21.027  0.00  0.00    +0.000 C 
ATOM     24  C   UNL     1       7.744  16.200  22.148  0.00  0.00    +0.000 C 
ATOM     25  C   UNL     1       6.352  16.364  21.576  0.00  0.00    +0.000 C 
ATOM     26  C   UNL     1       5.957  15.228  20.606  0.00  0.00    +0.000 C 
ATOM     27  C   UNL     1       7.141  14.767  19.693  0.00  0.00    +0.000 C 
BRANCH  26  28
ATOM     28  C   UNL     1       4.698  15.669  19.805  0.00  0.00    +0.000 C 
BRANCH  28  29
ATOM     29  C   UNL     1       3.705  14.532  19.608  0.00  0.00    +0.000 A 
ATOM     30  C   UNL     1       3.385  14.060  18.322  0.00  0.00    +0.000 A 
ATOM     31  C   UNL     1       2.368  13.116  18.144  0.00  0.00    +0.000 A 
ATOM     32  C   UNL     1       1.676  12.640  19.250  0.00  0.00    +0.000 A 
ATOM     33  F   UNL     1       0.670  11.771  19.075  0.00  0.00    +0.000 F 
ATOM     34  C   UNL     1       1.993  13.066  20.533  0.00  0.00    +0.000 A 
ATOM     35  C   UNL     1       3.015  14.002  20.712  0.00  0.00    +0.000 A 
ENDBRANCH  28  29
ENDBRANCH  26  28
ENDBRANCH  21  22
ENDBRANCH   6  21
TORSDOF 6
ENDMDL
MODEL 8
REMARK VINA RESULT:      -7.8      4.079      8.590
REMARK  Name = 
REMARK  7 active torsions:
REMARK  status: ('A' for Active; 'I' for Inactive)
REMARK    1  A    between atoms: C_1  and  C_2
REMARK    2  A    between atoms: C_5  and  N_6
REMARK    3  A    between atoms: N_9  and  C_10
REMARK    4  A    between atoms: C_15  and  C_16
REMARK    5  A    between atoms: C_16  and  N_17
REMARK    6  A    between atoms: C_21  and  C_22
REMARK    7  A    between atoms: C_22  and  C_23
REMARK                            x       y       z     vdW  Elec       q    Type
REMARK                         _______ _______ _______ _____ _____    ______ ____
ROOT
ATOM      1  C   UNL     1       3.129   5.805  18.883  0.00  0.00    +0.000 C 
ATOM      2  C   UNL     1       2.201   5.089  17.882  0.00  0.00    +0.000 C 
ATOM      3  C   UNL     1       1.305   4.050  18.564  0.00  0.00    +0.000 C 
ATOM      4  C   UNL     1       2.106   3.056  19.396  0.00  0.00    +0.000 C 
ATOM      5  C   UNL     1       3.035   3.751  20.379  0.00  0.00    +0.000 C 
ATOM      6  C   UNL     1       3.961   4.784  19.716  0.00  0.00    +0.000 C 
ENDROOT
BRANCH   1  10
ATOM      7  N   UNL     1       1.036   8.439  20.376  0.00  0.00    +0.000 N 
ATOM      8  C   UNL     1       1.892   7.968  19.392  0.00  0.00    +0.000 C 
ATOM      9  O   UNL     1       2.294   8.572  18.413  0.00  0.00    +0.000 OA
ATOM     10  N   UNL     1       2.250   6.671  19.698  0.00  0.00    +0.000 N 
ATOM     11  H   UNL     1       0.914   7.826  21.167  0.00  0.00    +0.000 HD
ATOM     12  H   UNL     1       1.479   6.173  20.117  0.00  0.00    +0.000 HD
BRANCH   7  17
ATOM     13  C   UNL     1      -1.640  13.495  20.488  0.00  0.00    +0.000 C 
ATOM     14  C   UNL     1      -0.935  12.175  20.493  0.00  0.00    +0.000 A 
ATOM     15  C   UNL     1       0.074  11.897  21.421  0.00  0.00    +0.000 A 
ATOM     16  C   UNL     1       0.743  10.666  21.401  0.00  0.00    +0.000 A 
ATOM     17  C   UNL     1       0.404   9.693  20.460  0.00  0.00    +0.000 A 
ATOM     18  C   UNL     1      -0.614   9.962  19.541  0.00  0.00    +0.000 A 
ATOM     19  C   UNL     1      -1.268  11.193  19.562  0.00  0.00    +0.000 A 
ATOM     20  F   UNL     1      -2.233  11.429  18.659  0.00  0.00    +0.000 F 
ENDBRANCH   7  17
ENDBRANCH   1  10
BRANCH   6  21
ATOM     21  C   UNL     1       5.133   4.084  18.924  0.00  0.00    +0.000 C 
BRANCH  21  22
ATOM     22  N   UNL     1       5.743   4.900  17.859  0.00  0.00    +0.000 NA
ATOM     23  C   UNL     1       6.903   5.667  18.330  0.00  0.00    +0.000 C 
ATOM     24  C   UNL     1       7.059   6.820  17.360  0.00  0.00    +0.000 C 
ATOM     25  C   UNL     1       7.470   6.293  16.001  0.00  0.00    +0.000 C 
ATOM     26  C   UNL     1       6.571   5.140  15.501  0.00  0.00    +0.000 C 
ATOM     27  C   UNL     1       6.155   4.154  16.642  0.00  0.00    +0.000 C 
BRANCH  26  28
ATOM     28  C   UNL     1       7.280   4.436  14.308  0.00  0.00    +0.000 C 
BRANCH  28  29
ATOM     29  C   UNL     1       6.293   3.817  13.327  0.00  0.00    +0.000 A 
ATOM     30  C   UNL     1       6.700   2.836  12.406  0.00  0.00    +0.000 A 
ATOM     31  C   UNL     1       5.821   2.380  11.417  0.00  0.00    +0.000 A 
ATOM     32  C   UNL     1       4.535   2.899  11.353  0.00  0.00    +0.000 A 
ATOM     33  F   UNL     1       3.709   2.498  10.378  0.00  0.00    +0.000 F 
ATOM     34  C   UNL     1       4.098   3.846  12.271  0.00  0.00    +0.000 A 
ATOM     35  C   UNL     1       4.972   4.294  13.264  0.00  0.00    +0.000 A 
ENDBRANCH  28  29
ENDBRANCH  26  28
ENDBRANCH  21  22
ENDBRANCH   6  21
TORSDOF 6
ENDMDL
MODEL 9
REMARK VINA RESULT:      -7.7      1.455      1.926
REMARK  Name = 
REMARK  7 active torsions:
REMARK  status: ('A' for Active; 'I' for Inactive)
REMARK    1  A    between atoms: C_1  and  C_2
REMARK    2  A    between atoms: C_5  and  N_6
REMARK    3  A    between atoms: N_9  and  C_10
REMARK    4  A    between atoms: C_15  and  C_16
REMARK    5  A    between atoms: C_16  and  N_17
REMARK    6  A    between atoms: C_21  and  C_22
REMARK    7  A    between atoms: C_22  and  C_23
REMARK                            x       y       z     vdW  Elec       q    Type
REMARK                         _______ _______ _______ _____ _____    ______ ____
ROOT
ATOM      1  C   UNL     1       6.564   5.244  17.314  0.00  0.00    +0.000 C 
ATOM      2  C   UNL     1       7.185   4.220  16.344  0.00  0.00    +0.000 C 
ATOM      3  C   UNL     1       7.210   4.731  14.900  0.00  0.00    +0.000 C 
ATOM      4  C   UNL     1       5.836   5.191  14.427  0.00  0.00    +0.000 C 
ATOM      5  C   UNL     1       5.207   6.192  15.383  0.00  0.00    +0.000 C 
ATOM      6  C   UNL     1       5.150   5.693  16.837  0.00  0.00    +0.000 C 
ENDROOT
BRANCH   1  10
ATOM      7  N   UNL     1       8.434   8.376  17.803  0.00  0.00    +0.000 N 
ATOM      8  C   UNL     1       7.259   7.641  17.804  0.00  0.00    +0.000 C 
ATOM      9  O   UNL     1       6.141   8.037  18.082  0.00  0.00    +0.000 OA
ATOM     10  N   UNL     1       7.543   6.347  17.415  0.00  0.00    +0.000 N 
ATOM     11  H   UNL     1       9.240   7.896  17.430  0.00  0.00    +0.000 HD
ATOM     12  H   UNL     1       8.440   6.052  17.770  0.00  0.00    +0.000 HD
BRANCH   7  17
ATOM     13  C   UNL     1       9.281  13.782  19.475  0.00  0.00    +0.000 C 
ATOM     14  C   UNL     1       9.060  12.378  19.004  0.00  0.00    +0.000 A 
ATOM     15  C   UNL     1       8.375  12.113  17.814  0.00  0.00    +0.000 A 
ATOM     16  C   UNL     1       8.154  10.795  17.396  0.00  0.00    +0.000 A 
ATOM     17  C   UNL     1       8.625   9.724  18.156  0.00  0.00    +0.000 A 
ATOM     18  C   UNL     1       9.324   9.986  19.339  0.00  0.00    +0.000 A 
ATOM     19  C   UNL     1       9.531  11.301  19.752  0.00  0.00    +0.000 A 
ATOM     20  F   UNL     1      10.194  11.522  20.899  0.00  0.00    +0.000 F 
ENDBRANCH   7  17
ENDBRANCH   1  10
BRANCH   6  21
ATOM     21  C   UNL     1       4.013   4.617  17.033  0.00  0.00    +0.000 C 
BRANCH  21  22
ATOM     22  N   UNL     1       3.096   4.873  18.158  0.00  0.00    +0.000 NA
ATOM     23  C   UNL     1       3.328   3.970  19.292  0.00  0.00    +0.000 C 
ATOM     24  C   UNL     1       2.035   3.953  20.081  0.00  0.00    +0.000 C 
ATOM     25  C   UNL     1       1.801   5.311  20.708  0.00  0.00    +0.000 C 
ATOM     26  C   UNL     1       1.934   6.476  19.702  0.00  0.00    +0.000 C 
ATOM     27  C   UNL     1       3.097   6.265  18.677  0.00  0.00    +0.000 C 
BRANCH  26  28
ATOM     28  C   UNL     1       2.047   7.810  20.494  0.00  0.00    +0.000 C 
BRANCH  28  29
ATOM     29  C   UNL     1       1.150   8.902  19.926  0.00  0.00    +0.000 A 
ATOM     30  C   UNL     1       0.180   9.535  20.725  0.00  0.00    +0.000 A 
ATOM     31  C   UNL     1      -0.733  10.431  20.158  0.00  0.00    +0.000 A 
ATOM     32  C   UNL     1      -0.671  10.701  18.798  0.00  0.00    +0.000 A 
ATOM     33  F   UNL     1      -1.574  11.524  18.246  0.00  0.00    +0.000 F 
ATOM     34  C   UNL     1       0.298  10.115  17.993  0.00  0.00    +0.000 A 
ATOM     35  C   UNL     1       1.214   9.226  18.560  0.00  0.00    +0.000 A 
ENDBRANCH  28  29
ENDBRANCH  26  28
ENDBRANCH  21  22
ENDBRANCH   6  21
TORSDOF 6
ENDMDL
