MODEL 1
REMARK VINA RESULT:      -8.5      0.000      0.000
REMARK  Name = 
REMARK  3 active torsions:
REMARK  status: ('A' for Active; 'I' for Inactive)
REMARK    1  A    between atoms: C_1  and  C_2
REMARK    2  A    between atoms: C_2  and  C_3
REMARK    3  A    between atoms: C_3  and  O_4
REMARK                            x       y       z     vdW  Elec       q    Type
REMARK                         _______ _______ _______ _____ _____    ______ ____
ROOT
ATOM      1  C   UNL     1       5.573   4.926  14.825  0.00  0.00    +0.000 C 
ATOM      2  C   UNL     1       7.083   4.770  15.128  0.00  0.00    +0.000 C 
ATOM      3  O   UNL     1       8.034   5.299  14.562  0.00  0.00    +0.000 OA
ATOM      4  O   UNL     1       7.291   4.203  16.369  0.00  0.00    +0.000 OA
ATOM      5  C   UNL     1       7.207   5.327  17.220  0.00  0.00    +0.000 C 
ATOM      6  C   UNL     1       5.896   6.048  17.032  0.00  0.00    +0.000 A 
ATOM      7  C   UNL     1       5.222   6.182  15.839  0.00  0.00    +0.000 A 
ATOM      8  C   UNL     1       4.067   7.207  15.958  0.00  0.00    +0.000 A 
ATOM      9  C   UNL     1       3.517   7.525  17.182  0.00  0.00    +0.000 A 
ATOM     10  N   UNL     1       3.913   6.707  18.235  0.00  0.00    +0.000 N 
ATOM     11  C   UNL     1       5.070   6.015  18.283  0.00  0.00    +0.000 A 
ATOM     12  O   UNL     1       5.428   5.385  19.273  0.00  0.00    +0.000 OA
ATOM     13  C   UNL     1       2.979   6.694  19.345  0.00  0.00    +0.000 C 
ATOM     14  C   UNL     1       2.161   7.912  19.101  0.00  0.00    +0.000 A 
ATOM     15  C   UNL     1       2.521   8.492  17.878  0.00  0.00    +0.000 A 
ATOM     16  N   UNL     1       2.241   9.799  17.665  0.00  0.00    +0.000 NA
ATOM     17  C   UNL     1       1.498  10.479  18.637  0.00  0.00    +0.000 A 
ATOM     18  C   UNL     1       1.277  11.860  18.575  0.00  0.00    +0.000 A 
ATOM     19  C   UNL     1       0.509  12.559  19.529  0.00  0.00    +0.000 A 
ATOM     20  F   UNL     1       0.352  13.888  19.422  0.00  0.00    +0.000 F 
ATOM     21  C   UNL     1      -0.088  11.892  20.577  0.00  0.00    +0.000 A 
ATOM     22  F   UNL     1      -0.843  12.566  21.459  0.00  0.00    +0.000 F 
ATOM     23  C   UNL     1       0.116  10.525  20.732  0.00  0.00    +0.000 A 
ATOM     24  C   UNL     1       0.941   9.840  19.796  0.00  0.00    +0.000 A 
ATOM     25  C   UNL     1       1.291   8.515  20.026  0.00  0.00    +0.000 A 
ATOM     26  C   UNL     1       0.901   7.800  21.293  0.00  0.00    +0.000 C 
ATOM     27  C   UNL     1      -0.303   8.362  22.045  0.00  0.00    +0.000 C 
ATOM     28  C   UNL     1      -0.551   9.856  21.903  0.00  0.00    +0.000 C 
ENDROOT
BRANCH   1  30
ATOM     29  C   UNL     1       6.333   3.104  12.803  0.00  0.00    +0.000 C 
ATOM     30  C   UNL     1       5.587   4.375  13.299  0.00  0.00    +0.000 C 
ENDBRANCH   1  30
BRANCH   1  31
ATOM     31  O   UNL     1       4.648   3.978  15.438  0.00  0.00    +0.000 OA
ATOM     32  H   UNL     1       3.759   4.357  15.508  0.00  0.00    +0.000 HD
ENDBRANCH   1  31
TORSDOF 2
ENDMDL
MODEL 2
REMARK VINA RESULT:      -7.8      2.061      3.242
REMARK  Name = 
REMARK  3 active torsions:
REMARK  status: ('A' for Active; 'I' for Inactive)
REMARK    1  A    between atoms: C_1  and  C_2
REMARK    2  A    between atoms: C_2  and  C_3
REMARK    3  A    between atoms: C_3  and  O_4
REMARK                            x       y       z     vdW  Elec       q    Type
REMARK                         _______ _______ _______ _____ _____    ______ ____
ROOT
ATOM      1  C   UNL     1       4.013   4.769  17.262  0.00  0.00    +0.000 C 
ATOM      2  C   UNL     1       4.766   4.040  18.402  0.00  0.00    +0.000 C 
ATOM      3  O   UNL     1       5.976   3.929  18.568  0.00  0.00    +0.000 OA
ATOM      4  O   UNL     1       3.930   3.774  19.466  0.00  0.00    +0.000 OA
ATOM      5  C   UNL     1       3.971   4.991  20.181  0.00  0.00    +0.000 C 
ATOM      6  C   UNL     1       3.570   6.146  19.298  0.00  0.00    +0.000 A 
ATOM      7  C   UNL     1       3.853   6.261  17.955  0.00  0.00    +0.000 A 
ATOM      8  C   UNL     1       3.540   7.685  17.435  0.00  0.00    +0.000 A 
ATOM      9  C   UNL     1       2.659   8.512  18.100  0.00  0.00    +0.000 A 
ATOM     10  N   UNL     1       1.925   7.898  19.109  0.00  0.00    +0.000 N 
ATOM     11  C   UNL     1       2.315   6.801  19.790  0.00  0.00    +0.000 A 
ATOM     12  O   UNL     1       1.686   6.349  20.741  0.00  0.00    +0.000 OA
ATOM     13  C   UNL     1       0.685   8.582  19.425  0.00  0.00    +0.000 C 
ATOM     14  C   UNL     1       0.894   9.931  18.836  0.00  0.00    +0.000 A 
ATOM     15  C   UNL     1       2.103   9.962  18.128  0.00  0.00    +0.000 A 
ATOM     16  N   UNL     1       2.695  11.156  17.894  0.00  0.00    +0.000 NA
ATOM     17  C   UNL     1       2.008  12.315  18.271  0.00  0.00    +0.000 A 
ATOM     18  C   UNL     1       2.593  13.585  18.199  0.00  0.00    +0.000 A 
ATOM     19  C   UNL     1       1.910  14.767  18.548  0.00  0.00    +0.000 A 
ATOM     20  F   UNL     1       2.536  15.952  18.474  0.00  0.00    +0.000 F 
ATOM     21  C   UNL     1       0.597  14.724  18.967  0.00  0.00    +0.000 A 
ATOM     22  F   UNL     1      -0.052  15.861  19.265  0.00  0.00    +0.000 F 
ATOM     23  C   UNL     1      -0.044  13.497  19.104  0.00  0.00    +0.000 A 
ATOM     24  C   UNL     1       0.675  12.306  18.804  0.00  0.00    +0.000 A 
ATOM     25  C   UNL     1       0.109  11.070  19.093  0.00  0.00    +0.000 A 
ATOM     26  C   UNL     1      -1.212  10.947  19.806  0.00  0.00    +0.000 C 
ATOM     27  C   UNL     1      -2.142  12.156  19.721  0.00  0.00    +0.000 C 
ATOM     28  C   UNL     1      -1.472  13.514  19.578  0.00  0.00    +0.000 C 
ENDROOT
BRANCH   1  30
ATOM     29  C   UNL     1       5.568   4.432  14.927  0.00  0.00    +0.000 C 
ATOM     30  C   UNL     1       4.590   3.906  16.016  0.00  0.00    +0.000 C 
ENDBRANCH   1  30
BRANCH   1  31
ATOM     31  O   UNL     1       2.583   4.521  17.115  0.00  0.00    +0.000 OA
ATOM     32  H   UNL     1       2.082   5.351  17.128  0.00  0.00    +0.000 HD
ENDBRANCH   1  31
TORSDOF 2
ENDMDL
MODEL 3
REMARK VINA RESULT:      -7.6      4.963      9.132
REMARK  Name = 
REMARK  3 active torsions:
REMARK  status: ('A' for Active; 'I' for Inactive)
REMARK    1  A    between atoms: C_1  and  C_2
REMARK    2  A    between atoms: C_2  and  C_3
REMARK    3  A    between atoms: C_3  and  O_4
REMARK                            x       y       z     vdW  Elec       q    Type
REMARK                         _______ _______ _______ _____ _____    ______ ____
ROOT
ATOM      1  C   UNL     1      -2.009  12.645  20.017  0.00  0.00    +0.000 C 
ATOM      2  C   UNL     1      -1.486  13.851  20.835  0.00  0.00    +0.000 C 
ATOM      3  O   UNL     1      -1.746  14.157  21.994  0.00  0.00    +0.000 OA
ATOM      4  O   UNL     1      -0.384  14.425  20.235  0.00  0.00    +0.000 OA
ATOM      5  C   UNL     1       0.665  13.610  20.715  0.00  0.00    +0.000 C 
ATOM      6  C   UNL     1       0.413  12.160  20.385  0.00  0.00    +0.000 A 
ATOM      7  C   UNL     1      -0.821  11.550  20.361  0.00  0.00    +0.000 A 
ATOM      8  C   UNL     1      -0.684  10.010  20.260  0.00  0.00    +0.000 A 
ATOM      9  C   UNL     1       0.465   9.425  19.769  0.00  0.00    +0.000 A 
ATOM     10  N   UNL     1       1.364  10.305  19.176  0.00  0.00    +0.000 N 
ATOM     11  C   UNL     1       1.461  11.619  19.460  0.00  0.00    +0.000 A 
ATOM     12  O   UNL     1       2.335  12.340  18.989  0.00  0.00    +0.000 OA
ATOM     13  C   UNL     1       2.262   9.668  18.230  0.00  0.00    +0.000 C 
ATOM     14  C   UNL     1       2.153   8.230  18.589  0.00  0.00    +0.000 A 
ATOM     15  C   UNL     1       1.169   8.056  19.573  0.00  0.00    +0.000 A 
ATOM     16  N   UNL     1       1.203   6.944  20.344  0.00  0.00    +0.000 NA
ATOM     17  C   UNL     1       2.155   5.964  20.042  0.00  0.00    +0.000 A 
ATOM     18  C   UNL     1       2.361   4.848  20.862  0.00  0.00    +0.000 A 
ATOM     19  C   UNL     1       3.295   3.836  20.562  0.00  0.00    +0.000 A 
ATOM     20  F   UNL     1       3.457   2.800  21.401  0.00  0.00    +0.000 F 
ATOM     21  C   UNL     1       4.050   3.893  19.409  0.00  0.00    +0.000 A 
ATOM     22  F   UNL     1       4.911   2.905  19.120  0.00  0.00    +0.000 F 
ATOM     23  C   UNL     1       3.933   4.990  18.562  0.00  0.00    +0.000 A 
ATOM     24  C   UNL     1       3.029   6.034  18.905  0.00  0.00    +0.000 A 
ATOM     25  C   UNL     1       3.020   7.208  18.162  0.00  0.00    +0.000 A 
ATOM     26  C   UNL     1       4.010   7.455  17.054  0.00  0.00    +0.000 C 
ATOM     27  C   UNL     1       4.643   6.217  16.424  0.00  0.00    +0.000 C 
ATOM     28  C   UNL     1       4.792   5.001  17.327  0.00  0.00    +0.000 C 
ENDROOT
BRANCH   1  30
ATOM     29  C   UNL     1      -4.715  12.232  19.317  0.00  0.00    +0.000 C 
ATOM     30  C   UNL     1      -3.592  12.995  20.075  0.00  0.00    +0.000 C 
ENDBRANCH   1  30
BRANCH   1  31
ATOM     31  O   UNL     1      -1.792  12.648  18.574  0.00  0.00    +0.000 OA
ATOM     32  H   UNL     1      -2.628  12.750  18.096  0.00  0.00    +0.000 HD
ENDBRANCH   1  31
TORSDOF 2
ENDMDL
MODEL 4
REMARK VINA RESULT:      -7.3      8.773     11.631
REMARK  Name = 
REMARK  3 active torsions:
REMARK  status: ('A' for Active; 'I' for Inactive)
REMARK    1  A    between atoms: C_1  and  C_2
REMARK    2  A    between atoms: C_2  and  C_3
REMARK    3  A    between atoms: C_3  and  O_4
REMARK                            x       y       z     vdW  Elec       q    Type
REMARK                         _______ _______ _______ _____ _____    ______ ____
ROOT
ATOM      1  C   UNL     1       1.131  17.451  18.383  0.00  0.00    +0.000 C 
ATOM      2  C   UNL     1       0.020  16.869  19.290  0.00  0.00    +0.000 C 
ATOM      3  O   UNL     1      -0.849  16.053  19.003  0.00  0.00    +0.000 OA
ATOM      4  O   UNL     1       0.283  17.108  20.623  0.00  0.00    +0.000 OA
ATOM      5  C   UNL     1       1.145  16.037  20.946  0.00  0.00    +0.000 C 
ATOM      6  C   UNL     1       2.342  16.015  20.028  0.00  0.00    +0.000 A 
ATOM      7  C   UNL     1       2.334  16.362  18.696  0.00  0.00    +0.000 A 
ATOM      8  C   UNL     1       3.659  15.959  18.002  0.00  0.00    +0.000 A 
ATOM      9  C   UNL     1       4.813  15.758  18.728  0.00  0.00    +0.000 A 
ATOM     10  N   UNL     1       4.748  16.159  20.059  0.00  0.00    +0.000 N 
ATOM     11  C   UNL     1       3.616  16.244  20.785  0.00  0.00    +0.000 A 
ATOM     12  O   UNL     1       3.612  16.505  21.984  0.00  0.00    +0.000 OA
ATOM     13  C   UNL     1       6.046  16.439  20.646  0.00  0.00    +0.000 C 
ATOM     14  C   UNL     1       6.983  15.764  19.710  0.00  0.00    +0.000 A 
ATOM     15  C   UNL     1       6.278  15.257  18.610  0.00  0.00    +0.000 A 
ATOM     16  N   UNL     1       6.830  14.258  17.882  0.00  0.00    +0.000 NA
ATOM     17  C   UNL     1       8.134  13.859  18.196  0.00  0.00    +0.000 A 
ATOM     18  C   UNL     1       8.738  12.747  17.597  0.00  0.00    +0.000 A 
ATOM     19  C   UNL     1      10.059  12.345  17.879  0.00  0.00    +0.000 A 
ATOM     20  F   UNL     1      10.572  11.256  17.284  0.00  0.00    +0.000 F 
ATOM     21  C   UNL     1      10.839  13.058  18.764  0.00  0.00    +0.000 A 
ATOM     22  F   UNL     1      12.106  12.683  18.999  0.00  0.00    +0.000 F 
ATOM     23  C   UNL     1      10.299  14.153  19.432  0.00  0.00    +0.000 A 
ATOM     24  C   UNL     1       8.945  14.515  19.183  0.00  0.00    +0.000 A 
ATOM     25  C   UNL     1       8.341  15.497  19.959  0.00  0.00    +0.000 A 
ATOM     26  C   UNL     1       9.047  16.131  21.129  0.00  0.00    +0.000 C 
ATOM     27  C   UNL     1      10.573  16.073  21.112  0.00  0.00    +0.000 C 
ATOM     28  C   UNL     1      11.195  14.884  20.395  0.00  0.00    +0.000 C 
ENDROOT
BRANCH   1  30
ATOM     29  C   UNL     1       0.596  18.471  15.803  0.00  0.00    +0.000 C 
ATOM     30  C   UNL     1       0.179  18.139  17.264  0.00  0.00    +0.000 C 
ENDBRANCH   1  30
BRANCH   1  31
ATOM     31  O   UNL     1       1.865  18.620  18.859  0.00  0.00    +0.000 OA
ATOM     32  H   UNL     1       1.258  19.333  19.108  0.00  0.00    +0.000 HD
ENDBRANCH   1  31
TORSDOF 2
ENDMDL
MODEL 5
REMARK VINA RESULT:      -7.2      9.377     11.987
REMARK  Name = 
REMARK  3 active torsions:
REMARK  status: ('A' for Active; 'I' for Inactive)
REMARK    1  A    between atoms: C_1  and  C_2
REMARK    2  A    between atoms: C_2  and  C_3
REMARK    3  A    between atoms: C_3  and  O_4
REMARK                            x       y       z     vdW  Elec       q    Type
REMARK                         _______ _______ _______ _____ _____    ______ ____
ROOT
ATOM      1  C   UNL     1       5.887  12.238  26.691  0.00  0.00    +0.000 C 
ATOM      2  C   UNL     1       6.705  12.350  28.001  0.00  0.00    +0.000 C 
ATOM      3  O   UNL     1       7.159  11.448  28.696  0.00  0.00    +0.000 OA
ATOM      4  O   UNL     1       7.196  13.627  28.179  0.00  0.00    +0.000 OA
ATOM      5  C   UNL     1       8.380  13.594  27.410  0.00  0.00    +0.000 C 
ATOM      6  C   UNL     1       8.085  13.190  25.987  0.00  0.00    +0.000 A 
ATOM      7  C   UNL     1       7.123  12.287  25.596  0.00  0.00    +0.000 A 
ATOM      8  C   UNL     1       7.282  11.907  24.103  0.00  0.00    +0.000 A 
ATOM      9  C   UNL     1       7.956  12.730  23.224  0.00  0.00    +0.000 A 
ATOM     10  N   UNL     1       8.266  13.991  23.721  0.00  0.00    +0.000 N 
ATOM     11  C   UNL     1       8.419  14.292  25.026  0.00  0.00    +0.000 A 
ATOM     12  O   UNL     1       8.792  15.393  25.417  0.00  0.00    +0.000 OA
ATOM     13  C   UNL     1       8.474  14.988  22.687  0.00  0.00    +0.000 C 
ATOM     14  C   UNL     1       8.701  14.161  21.472  0.00  0.00    +0.000 A 
ATOM     15  C   UNL     1       8.504  12.806  21.773  0.00  0.00    +0.000 A 
ATOM     16  N   UNL     1       9.065  11.869  20.975  0.00  0.00    +0.000 NA
ATOM     17  C   UNL     1       9.722  12.301  19.816  0.00  0.00    +0.000 A 
ATOM     18  C   UNL     1      10.451  11.425  19.002  0.00  0.00    +0.000 A 
ATOM     19  C   UNL     1      11.096  11.835  17.818  0.00  0.00    +0.000 A 
ATOM     20  F   UNL     1      11.795  10.948  17.093  0.00  0.00    +0.000 F 
ATOM     21  C   UNL     1      11.017  13.142  17.389  0.00  0.00    +0.000 A 
ATOM     22  F   UNL     1      11.609  13.511  16.242  0.00  0.00    +0.000 F 
ATOM     23  C   UNL     1      10.345  14.083  18.162  0.00  0.00    +0.000 A 
ATOM     24  C   UNL     1       9.747  13.671  19.386  0.00  0.00    +0.000 A 
ATOM     25  C   UNL     1       9.218  14.622  20.249  0.00  0.00    +0.000 A 
ATOM     26  C   UNL     1       9.341  16.098  19.975  0.00  0.00    +0.000 C 
ATOM     27  C   UNL     1       9.566  16.501  18.520  0.00  0.00    +0.000 C 
ATOM     28  C   UNL     1      10.305  15.497  17.648  0.00  0.00    +0.000 C 
ENDROOT
BRANCH   1  30
ATOM     29  C   UNL     1       4.142  10.017  26.770  0.00  0.00    +0.000 C 
ATOM     30  C   UNL     1       4.624  11.405  27.278  0.00  0.00    +0.000 C 
ENDBRANCH   1  30
BRANCH   1  31
ATOM     31  O   UNL     1       5.208  13.433  26.201  0.00  0.00    +0.000 OA
ATOM     32  H   UNL     1       4.457  13.200  25.635  0.00  0.00    +0.000 HD
ENDBRANCH   1  31
TORSDOF 2
ENDMDL
MODEL 6
REMARK VINA RESULT:      -7.1      1.300      1.711
REMARK  Name = 
REMARK  3 active torsions:
REMARK  status: ('A' for Active; 'I' for Inactive)
REMARK    1  A    between atoms: C_1  and  C_2
REMARK    2  A    between atoms: C_2  and  C_3
REMARK    3  A    between atoms: C_3  and  O_4
REMARK                            x       y       z     vdW  Elec       q    Type
REMARK                         _______ _______ _______ _____ _____    ______ ____
ROOT
ATOM      1  C   UNL     1       5.323   4.691  16.122  0.00  0.00    +0.000 C 
ATOM      2  C   UNL     1       6.510   4.157  16.960  0.00  0.00    +0.000 C 
ATOM      3  O   UNL     1       7.709   4.344  16.789  0.00  0.00    +0.000 OA
ATOM      4  O   UNL     1       6.086   3.683  18.185  0.00  0.00    +0.000 OA
ATOM      5  C   UNL     1       6.039   4.867  18.954  0.00  0.00    +0.000 C 
ATOM      6  C   UNL     1       5.153   5.898  18.301  0.00  0.00    +0.000 A 
ATOM      7  C   UNL     1       5.018   6.091  16.945  0.00  0.00    +0.000 A 
ATOM      8  C   UNL     1       4.251   7.401  16.638  0.00  0.00    +0.000 A 
ATOM      9  C   UNL     1       3.422   7.980  17.575  0.00  0.00    +0.000 A 
ATOM     10  N   UNL     1       3.160   7.195  18.693  0.00  0.00    +0.000 N 
ATOM     11  C   UNL     1       3.966   6.220  19.158  0.00  0.00    +0.000 A 
ATOM     12  O   UNL     1       3.748   5.619  20.205  0.00  0.00    +0.000 OA
ATOM     13  C   UNL     1       1.932   7.552  19.379  0.00  0.00    +0.000 C 
ATOM     14  C   UNL     1       1.650   8.917  18.861  0.00  0.00    +0.000 A 
ATOM     15  C   UNL     1       2.574   9.249  17.861  0.00  0.00    +0.000 A 
ATOM     16  N   UNL     1       2.783  10.554  17.571  0.00  0.00    +0.000 NA
ATOM     17  C   UNL     1       1.978  11.507  18.206  0.00  0.00    +0.000 A 
ATOM     18  C   UNL     1       2.209  12.882  18.078  0.00  0.00    +0.000 A 
ATOM     19  C   UNL     1       1.393  13.857  18.687  0.00  0.00    +0.000 A 
ATOM     20  F   UNL     1       1.681  15.160  18.541  0.00  0.00    +0.000 F 
ATOM     21  C   UNL     1       0.295  13.490  19.436  0.00  0.00    +0.000 A 
ATOM     22  F   UNL     1      -0.491  14.430  19.982  0.00  0.00    +0.000 F 
ATOM     23  C   UNL     1       0.021  12.142  19.643  0.00  0.00    +0.000 A 
ATOM     24  C   UNL     1       0.885  11.166  19.072  0.00  0.00    +0.000 A 
ATOM     25  C   UNL     1       0.725   9.826  19.404  0.00  0.00    +0.000 A 
ATOM     26  C   UNL     1      -0.281   9.377  20.432  0.00  0.00    +0.000 C 
ATOM     27  C   UNL     1      -1.452  10.322  20.691  0.00  0.00    +0.000 C 
ATOM     28  C   UNL     1      -1.184  11.804  20.479  0.00  0.00    +0.000 C 
ENDROOT
BRANCH   1  30
ATOM     29  C   UNL     1       6.677   4.615  13.643  0.00  0.00    +0.000 C 
ATOM     30  C   UNL     1       5.716   4.008  14.704  0.00  0.00    +0.000 C 
ENDBRANCH   1  30
BRANCH   1  31
ATOM     31  O   UNL     1       4.006   4.102  16.342  0.00  0.00    +0.000 OA
ATOM     32  H   UNL     1       3.850   3.362  15.736  0.00  0.00    +0.000 HD
ENDBRANCH   1  31
TORSDOF 2
ENDMDL
MODEL 7
REMARK VINA RESULT:      -7.0      5.084      8.591
REMARK  Name = 
REMARK  3 active torsions:
REMARK  status: ('A' for Active; 'I' for Inactive)
REMARK    1  A    between atoms: C_1  and  C_2
REMARK    2  A    between atoms: C_2  and  C_3
REMARK    3  A    between atoms: C_3  and  O_4
REMARK                            x       y       z     vdW  Elec       q    Type
REMARK                         _______ _______ _______ _____ _____    ______ ____
ROOT
ATOM      1  C   UNL     1       1.124  13.434  19.791  0.00  0.00    +0.000 C 
ATOM      2  C   UNL     1      -0.254  13.924  19.284  0.00  0.00    +0.000 C 
ATOM      3  O   UNL     1      -0.512  14.551  18.263  0.00  0.00    +0.000 OA
ATOM      4  O   UNL     1      -1.287  13.289  19.944  0.00  0.00    +0.000 OA
ATOM      5  C   UNL     1      -1.410  12.090  19.206  0.00  0.00    +0.000 C 
ATOM      6  C   UNL     1      -0.098  11.349  19.162  0.00  0.00    +0.000 A 
ATOM      7  C   UNL     1       1.148  11.933  19.102  0.00  0.00    +0.000 A 
ATOM      8  C   UNL     1       2.245  10.884  18.791  0.00  0.00    +0.000 A 
ATOM      9  C   UNL     1       2.045   9.543  19.042  0.00  0.00    +0.000 A 
ATOM     10  N   UNL     1       0.908   9.249  19.788  0.00  0.00    +0.000 N 
ATOM     11  C   UNL     1      -0.197  10.020  19.850  0.00  0.00    +0.000 A 
ATOM     12  O   UNL     1      -1.217   9.676  20.438  0.00  0.00    +0.000 OA
ATOM     13  C   UNL     1       0.979   7.975  20.479  0.00  0.00    +0.000 C 
ATOM     14  C   UNL     1       2.080   7.275  19.765  0.00  0.00    +0.000 A 
ATOM     15  C   UNL     1       2.670   8.138  18.832  0.00  0.00    +0.000 A 
ATOM     16  N   UNL     1       3.364   7.609  17.798  0.00  0.00    +0.000 NA
ATOM     17  C   UNL     1       3.557   6.223  17.775  0.00  0.00    +0.000 A 
ATOM     18  C   UNL     1       4.138   5.569  16.682  0.00  0.00    +0.000 A 
ATOM     19  C   UNL     1       4.365   4.178  16.652  0.00  0.00    +0.000 A 
ATOM     20  F   UNL     1       4.909   3.610  15.564  0.00  0.00    +0.000 F 
ATOM     21  C   UNL     1       4.035   3.386  17.731  0.00  0.00    +0.000 A 
ATOM     22  F   UNL     1       4.287   2.068  17.701  0.00  0.00    +0.000 F 
ATOM     23  C   UNL     1       3.416   3.954  18.840  0.00  0.00    +0.000 A 
ATOM     24  C   UNL     1       3.139   5.350  18.837  0.00  0.00    +0.000 A 
ATOM     25  C   UNL     1       2.377   5.903  19.858  0.00  0.00    +0.000 A 
ATOM     26  C   UNL     1       1.747   5.052  20.930  0.00  0.00    +0.000 C 
ATOM     27  C   UNL     1       2.390   3.689  21.176  0.00  0.00    +0.000 C 
ATOM     28  C   UNL     1       3.069   3.037  19.981  0.00  0.00    +0.000 C 
ENDROOT
BRANCH   1  30
ATOM     29  C   UNL     1       3.001  15.399  19.016  0.00  0.00    +0.000 C 
ATOM     30  C   UNL     1       1.848  14.880  19.923  0.00  0.00    +0.000 C 
ENDBRANCH   1  30
BRANCH   1  31
ATOM     31  O   UNL     1       1.222  12.964  21.169  0.00  0.00    +0.000 OA
ATOM     32  H   UNL     1       2.045  12.473  21.312  0.00  0.00    +0.000 HD
ENDBRANCH   1  31
TORSDOF 2
ENDMDL
MODEL 8
REMARK VINA RESULT:      -6.7      7.272      9.743
REMARK  Name = 
REMARK  3 active torsions:
REMARK  status: ('A' for Active; 'I' for Inactive)
REMARK    1  A    between atoms: C_1  and  C_2
REMARK    2  A    between atoms: C_2  and  C_3
REMARK    3  A    between atoms: C_3  and  O_4
REMARK                            x       y       z     vdW  Elec       q    Type
REMARK                         _______ _______ _______ _____ _____    ______ ____
ROOT
ATOM      1  C   UNL     1      -0.777  12.162  18.539  0.00  0.00    +0.000 C 
ATOM      2  C   UNL     1      -1.139  11.113  19.619  0.00  0.00    +0.000 C 
ATOM      3  O   UNL     1      -1.108   9.890  19.535  0.00  0.00    +0.000 OA
ATOM      4  O   UNL     1      -1.200  11.684  20.874  0.00  0.00    +0.000 OA
ATOM      5  C   UNL     1       0.155  11.664  21.269  0.00  0.00    +0.000 C 
ATOM      6  C   UNL     1       1.020  12.376  20.259  0.00  0.00    +0.000 A 
ATOM      7  C   UNL     1       0.821  12.378  18.897  0.00  0.00    +0.000 A 
ATOM      8  C   UNL     1       2.043  12.969  18.151  0.00  0.00    +0.000 A 
ATOM      9  C   UNL     1       2.936  13.804  18.791  0.00  0.00    +0.000 A 
ATOM     10  N   UNL     1       2.533  14.241  20.049  0.00  0.00    +0.000 N 
ATOM     11  C   UNL     1       1.673  13.587  20.855  0.00  0.00    +0.000 A 
ATOM     12  O   UNL     1       1.422  13.954  21.998  0.00  0.00    +0.000 OA
ATOM     13  C   UNL     1       3.173  15.475  20.468  0.00  0.00    +0.000 C 
ATOM     14  C   UNL     1       4.346  15.562  19.559  0.00  0.00    +0.000 A 
ATOM     15  C   UNL     1       4.297  14.528  18.614  0.00  0.00    +0.000 A 
ATOM     16  N   UNL     1       5.440  14.154  17.993  0.00  0.00    +0.000 NA
ATOM     17  C   UNL     1       6.598  14.900  18.241  0.00  0.00    +0.000 A 
ATOM     18  C   UNL     1       7.853  14.510  17.758  0.00  0.00    +0.000 A 
ATOM     19  C   UNL     1       9.026  15.261  17.975  0.00  0.00    +0.000 A 
ATOM     20  F   UNL     1      10.203  14.822  17.500  0.00  0.00    +0.000 F 
ATOM     21  C   UNL     1       8.983  16.450  18.671  0.00  0.00    +0.000 A 
ATOM     22  F   UNL     1      10.103  17.171  18.841  0.00  0.00    +0.000 F 
ATOM     23  C   UNL     1       7.781  16.887  19.218  0.00  0.00    +0.000 A 
ATOM     24  C   UNL     1       6.614  16.091  19.043  0.00  0.00    +0.000 A 
ATOM     25  C   UNL     1       5.446  16.423  19.719  0.00  0.00    +0.000 A 
ATOM     26  C   UNL     1       5.399  17.553  20.715  0.00  0.00    +0.000 C 
ATOM     27  C   UNL     1       6.470  18.631  20.567  0.00  0.00    +0.000 C 
ATOM     28  C   UNL     1       7.800  18.185  19.978  0.00  0.00    +0.000 C 
ENDROOT
BRANCH   1  30
ATOM     29  C   UNL     1      -3.390  11.506  17.685  0.00  0.00    +0.000 C 
ATOM     30  C   UNL     1      -1.873  11.731  17.423  0.00  0.00    +0.000 C 
ENDBRANCH   1  30
BRANCH   1  31
ATOM     31  O   UNL     1      -1.168  13.549  18.770  0.00  0.00    +0.000 OA
ATOM     32  H   UNL     1      -2.085  13.702  18.499  0.00  0.00    +0.000 HD
ENDBRANCH   1  31
TORSDOF 2
ENDMDL
MODEL 9
REMARK VINA RESULT:      -6.6      8.163      9.760
REMARK  Name = 
REMARK  3 active torsions:
REMARK  status: ('A' for Active; 'I' for Inactive)
REMARK    1  A    between atoms: C_1  and  C_2
REMARK    2  A    between atoms: C_2  and  C_3
REMARK    3  A    between atoms: C_3  and  O_4
REMARK                            x       y       z     vdW  Elec       q    Type
REMARK                         _______ _______ _______ _____ _____    ______ ____
ROOT
ATOM      1  C   UNL     1       2.919  15.268  18.623  0.00  0.00    +0.000 C 
ATOM      2  C   UNL     1       3.155  16.761  18.288  0.00  0.00    +0.000 C 
ATOM      3  O   UNL     1       3.117  17.312  17.193  0.00  0.00    +0.000 OA
ATOM      4  O   UNL     1       3.094  17.546  19.421  0.00  0.00    +0.000 OA
ATOM      5  C   UNL     1       1.705  17.765  19.549  0.00  0.00    +0.000 C 
ATOM      6  C   UNL     1       0.957  16.457  19.609  0.00  0.00    +0.000 A 
ATOM      7  C   UNL     1       1.295  15.311  18.924  0.00  0.00    +0.000 A 
ATOM      8  C   UNL     1       0.164  14.256  19.000  0.00  0.00    +0.000 A 
ATOM      9  C   UNL     1      -0.779  14.290  20.006  0.00  0.00    +0.000 A 
ATOM     10  N   UNL     1      -0.503  15.179  21.040  0.00  0.00    +0.000 N 
ATOM     11  C   UNL     1       0.261  16.284  20.926  0.00  0.00    +0.000 A 
ATOM     12  O   UNL     1       0.398  17.096  21.835  0.00  0.00    +0.000 OA
ATOM     13  C   UNL     1      -1.166  14.844  22.287  0.00  0.00    +0.000 C 
ATOM     14  C   UNL     1      -2.239  13.912  21.849  0.00  0.00    +0.000 A 
ATOM     15  C   UNL     1      -2.106  13.639  20.481  0.00  0.00    +0.000 A 
ATOM     16  N   UNL     1      -3.183  13.192  19.795  0.00  0.00    +0.000 NA
ATOM     17  C   UNL     1      -4.351  12.913  20.514  0.00  0.00    +0.000 A 
ATOM     18  C   UNL     1      -5.555  12.581  19.880  0.00  0.00    +0.000 A 
ATOM     19  C   UNL     1      -6.734  12.270  20.586  0.00  0.00    +0.000 A 
ATOM     20  F   UNL     1      -7.861  11.979  19.917  0.00  0.00    +0.000 F 
ATOM     21  C   UNL     1      -6.748  12.260  21.965  0.00  0.00    +0.000 A 
ATOM     22  F   UNL     1      -7.870  11.930  22.624  0.00  0.00    +0.000 F 
ATOM     23  C   UNL     1      -5.603  12.618  22.669  0.00  0.00    +0.000 A 
ATOM     24  C   UNL     1      -4.434  12.986  21.945  0.00  0.00    +0.000 A 
ATOM     25  C   UNL     1      -3.339  13.504  22.625  0.00  0.00    +0.000 A 
ATOM     26  C   UNL     1      -3.380  13.781  24.105  0.00  0.00    +0.000 C 
ATOM     27  C   UNL     1      -4.416  13.001  24.911  0.00  0.00    +0.000 C 
ATOM     28  C   UNL     1      -5.684  12.600  24.171  0.00  0.00    +0.000 C 
ENDROOT
BRANCH   1  30
ATOM     29  C   UNL     1       5.639  14.833  17.993  0.00  0.00    +0.000 C 
ATOM     30  C   UNL     1       4.118  14.639  17.729  0.00  0.00    +0.000 C 
ENDBRANCH   1  30
BRANCH   1  31
ATOM     31  O   UNL     1       3.301  14.792  19.948  0.00  0.00    +0.000 OA
ATOM     32  H   UNL     1       2.935  13.912  20.122  0.00  0.00    +0.000 HD
ENDBRANCH   1  31
TORSDOF 2
ENDMDL
