MODEL 1
REMARK VINA RESULT:      -9.8      0.000      0.000
REMARK  Name = 
REMARK  9 active torsions:
REMARK  status: ('A' for Active; 'I' for Inactive)
REMARK    1  A    between atoms: C_1  and  C_2
REMARK    2  A    between atoms: C_2  and  C_3
REMARK    3  A    between atoms: C_2  and  C_4
REMARK    4  A    between atoms: C_2  and  C_5
REMARK    5  A    between atoms: C_8  and  C_9
REMARK    6  A    between atoms: C_9  and  N_10
REMARK    7  A    between atoms: C_12  and  C_13
REMARK    8  A    between atoms: C_13  and  C_14
REMARK    9  A    between atoms: C_19  and  C_20
REMARK                            x       y       z     vdW  Elec       q    Type
REMARK                         _______ _______ _______ _____ _____    ______ ____
ROOT
ATOM      1  N   UNL     1       2.461   5.606  18.943  0.00  0.00    +0.000 N 
ATOM      2  C   UNL     1       1.821   4.380  18.734  0.00  0.00    +0.000 A 
ATOM      3  C   UNL     1       2.784   3.539  18.226  0.00  0.00    +0.000 A 
ATOM      4  C   UNL     1       3.515   4.383  17.377  0.00  0.00    +0.000 A 
ATOM      5  C   UNL     1       4.352   4.082  16.283  0.00  0.00    +0.000 A 
ATOM      6  C   UNL     1       5.252   4.997  15.751  0.00  0.00    +0.000 A 
ATOM      7  C   UNL     1       5.394   6.184  16.504  0.00  0.00    +0.000 A 
ATOM      8  C   UNL     1       4.556   6.525  17.637  0.00  0.00    +0.000 A 
ATOM      9  C   UNL     1       3.528   5.636  18.019  0.00  0.00    +0.000 A 
ENDROOT
BRANCH   6  10
ATOM     10  C   UNL     1       5.965   4.650  14.484  0.00  0.00    +0.000 A 
ATOM     11  C   UNL     1       5.495   3.720  13.539  0.00  0.00    +0.000 A 
ATOM     12  C   UNL     1       6.196   3.470  12.330  0.00  0.00    +0.000 A 
ATOM     13  C   UNL     1       7.363   4.140  12.048  0.00  0.00    +0.000 A 
ATOM     14  C   UNL     1       7.838   5.090  12.939  0.00  0.00    +0.000 A 
ATOM     15  F   UNL     1       8.993   5.741  12.676  0.00  0.00    +0.000 F 
ATOM     16  C   UNL     1       7.166   5.323  14.131  0.00  0.00    +0.000 A 
ENDBRANCH   6  10
BRANCH   1  17
ATOM     17  C   UNL     1       2.155   6.352  20.206  0.00  0.00    +0.000 C 
BRANCH  17  21
ATOM     18  C   UNL     1       0.533  10.510  19.980  0.00  0.00    +0.000 A 
ATOM     19  C   UNL     1       0.572   9.759  21.166  0.00  0.00    +0.000 A 
ATOM     20  C   UNL     1       1.131   8.445  21.274  0.00  0.00    +0.000 A 
ATOM     21  C   UNL     1       1.696   7.818  20.172  0.00  0.00    +0.000 A 
ATOM     22  C   UNL     1       1.709   8.587  18.965  0.00  0.00    +0.000 A 
ATOM     23  C   UNL     1       1.144   9.891  18.874  0.00  0.00    +0.000 A 
BRANCH  18  25
ATOM     24  C   UNL     1      -1.671  11.797  19.542  0.00  0.00    +0.000 C 
ATOM     25  C   UNL     1      -0.165  11.898  19.903  0.00  0.00    +0.000 C 
ATOM     26  C   UNL     1       0.471  12.806  18.818  0.00  0.00    +0.000 C 
ATOM     27  C   UNL     1      -0.099  12.688  21.237  0.00  0.00    +0.000 C 
ENDBRANCH  18  25
ENDBRANCH  17  21
ENDBRANCH   1  17
BRANCH   3  28
ATOM     28  C   UNL     1       3.315   2.210  18.679  0.00  0.00    +0.000 C 
BRANCH  28  29
ATOM     29  C   UNL     1       3.943   2.192  20.038  0.00  0.00    +0.000 C 
ATOM     30  N   UNL     1       5.209   1.687  20.078  0.00  0.00    +0.000 N 
ATOM     31  O   UNL     1       3.362   2.519  21.067  0.00  0.00    +0.000 OA
ATOM     32  H   UNL     1       5.772   1.705  19.231  0.00  0.00    +0.000 HD
ATOM     33  H   UNL     1       5.680   1.723  20.966  0.00  0.00    +0.000 HD
ENDBRANCH  28  29
ENDBRANCH   3  28
TORSDOF 6
ENDMDL
MODEL 2
REMARK VINA RESULT:      -9.8      1.008      1.545
REMARK  Name = 
REMARK  9 active torsions:
REMARK  status: ('A' for Active; 'I' for Inactive)
REMARK    1  A    between atoms: C_1  and  C_2
REMARK    2  A    between atoms: C_2  and  C_3
REMARK    3  A    between atoms: C_2  and  C_4
REMARK    4  A    between atoms: C_2  and  C_5
REMARK    5  A    between atoms: C_8  and  C_9
REMARK    6  A    between atoms: C_9  and  N_10
REMARK    7  A    between atoms: C_12  and  C_13
REMARK    8  A    between atoms: C_13  and  C_14
REMARK    9  A    between atoms: C_19  and  C_20
REMARK                            x       y       z     vdW  Elec       q    Type
REMARK                         _______ _______ _______ _____ _____    ______ ____
ROOT
ATOM      1  N   UNL     1       2.517   5.671  18.849  0.00  0.00    +0.000 N 
ATOM      2  C   UNL     1       1.880   4.440  18.671  0.00  0.00    +0.000 A 
ATOM      3  C   UNL     1       2.837   3.596  18.155  0.00  0.00    +0.000 A 
ATOM      4  C   UNL     1       3.546   4.431  17.280  0.00  0.00    +0.000 A 
ATOM      5  C   UNL     1       4.363   4.119  16.173  0.00  0.00    +0.000 A 
ATOM      6  C   UNL     1       5.247   5.031  15.611  0.00  0.00    +0.000 A 
ATOM      7  C   UNL     1       5.398   6.230  16.344  0.00  0.00    +0.000 A 
ATOM      8  C   UNL     1       4.580   6.583  17.489  0.00  0.00    +0.000 A 
ATOM      9  C   UNL     1       3.565   5.694  17.904  0.00  0.00    +0.000 A 
ENDROOT
BRANCH   6  10
ATOM     10  C   UNL     1       5.937   4.670  14.335  0.00  0.00    +0.000 A 
ATOM     11  C   UNL     1       7.184   5.184  13.935  0.00  0.00    +0.000 A 
ATOM     12  C   UNL     1       7.811   4.763  12.733  0.00  0.00    +0.000 A 
ATOM     13  C   UNL     1       7.209   3.830  11.922  0.00  0.00    +0.000 A 
ATOM     14  C   UNL     1       5.996   3.274  12.302  0.00  0.00    +0.000 A 
ATOM     15  F   UNL     1       5.392   2.369  11.501  0.00  0.00    +0.000 F 
ATOM     16  C   UNL     1       5.372   3.698  13.466  0.00  0.00    +0.000 A 
ENDBRANCH   6  10
BRANCH   1  17
ATOM     17  C   UNL     1       2.232   6.434  20.107  0.00  0.00    +0.000 C 
BRANCH  17  21
ATOM     18  C   UNL     1       0.403  10.501  19.829  0.00  0.00    +0.000 A 
ATOM     19  C   UNL     1       0.423   9.743  21.010  0.00  0.00    +0.000 A 
ATOM     20  C   UNL     1       1.045   8.459  21.137  0.00  0.00    +0.000 A 
ATOM     21  C   UNL     1       1.697   7.873  20.060  0.00  0.00    +0.000 A 
ATOM     22  C   UNL     1       1.730   8.654  18.861  0.00  0.00    +0.000 A 
ATOM     23  C   UNL     1       1.101   9.927  18.751  0.00  0.00    +0.000 A 
BRANCH  18  25
ATOM     24  C   UNL     1       0.577  13.085  19.798  0.00  0.00    +0.000 C 
ATOM     25  C   UNL     1      -0.364  11.852  19.727  0.00  0.00    +0.000 C 
ATOM     26  C   UNL     1      -1.382  12.028  20.884  0.00  0.00    +0.000 C 
ATOM     27  C   UNL     1      -1.163  12.001  18.405  0.00  0.00    +0.000 C 
ENDBRANCH  18  25
ENDBRANCH  17  21
ENDBRANCH   1  17
BRANCH   3  28
ATOM     28  C   UNL     1       3.383   2.276  18.617  0.00  0.00    +0.000 C 
BRANCH  28  29
ATOM     29  C   UNL     1       3.914   2.248  20.016  0.00  0.00    +0.000 C 
ATOM     30  N   UNL     1       5.180   1.753  20.140  0.00  0.00    +0.000 N 
ATOM     31  O   UNL     1       3.260   2.559  21.005  0.00  0.00    +0.000 OA
ATOM     32  H   UNL     1       5.800   1.785  19.335  0.00  0.00    +0.000 HD
ATOM     33  H   UNL     1       5.586   1.783  21.060  0.00  0.00    +0.000 HD
ENDBRANCH  28  29
ENDBRANCH   3  28
TORSDOF 6
ENDMDL
MODEL 3
REMARK VINA RESULT:      -9.6      1.014      1.593
REMARK  Name = 
REMARK  9 active torsions:
REMARK  status: ('A' for Active; 'I' for Inactive)
REMARK    1  A    between atoms: C_1  and  C_2
REMARK    2  A    between atoms: C_2  and  C_3
REMARK    3  A    between atoms: C_2  and  C_4
REMARK    4  A    between atoms: C_2  and  C_5
REMARK    5  A    between atoms: C_8  and  C_9
REMARK    6  A    between atoms: C_9  and  N_10
REMARK    7  A    between atoms: C_12  and  C_13
REMARK    8  A    between atoms: C_13  and  C_14
REMARK    9  A    between atoms: C_19  and  C_20
REMARK                            x       y       z     vdW  Elec       q    Type
REMARK                         _______ _______ _______ _____ _____    ______ ____
ROOT
ATOM      1  N   UNL     1       2.637   5.780  18.875  0.00  0.00    +0.000 N 
ATOM      2  C   UNL     1       1.962   4.570  18.694  0.00  0.00    +0.000 A 
ATOM      3  C   UNL     1       2.888   3.702  18.163  0.00  0.00    +0.000 A 
ATOM      4  C   UNL     1       3.614   4.522  17.287  0.00  0.00    +0.000 A 
ATOM      5  C   UNL     1       4.411   4.194  16.170  0.00  0.00    +0.000 A 
ATOM      6  C   UNL     1       5.316   5.084  15.607  0.00  0.00    +0.000 A 
ATOM      7  C   UNL     1       5.510   6.271  16.347  0.00  0.00    +0.000 A 
ATOM      8  C   UNL     1       4.714   6.640  17.502  0.00  0.00    +0.000 A 
ATOM      9  C   UNL     1       3.677   5.779  17.920  0.00  0.00    +0.000 A 
ENDROOT
BRANCH   6  10
ATOM     10  C   UNL     1       5.983   4.711  14.321  0.00  0.00    +0.000 A 
ATOM     11  C   UNL     1       7.220   5.226  13.892  0.00  0.00    +0.000 A 
ATOM     12  C   UNL     1       7.825   4.795  12.683  0.00  0.00    +0.000 A 
ATOM     13  C   UNL     1       7.212   3.852  11.893  0.00  0.00    +0.000 A 
ATOM     14  C   UNL     1       6.009   3.295  12.302  0.00  0.00    +0.000 A 
ATOM     15  F   UNL     1       5.393   2.379  11.522  0.00  0.00    +0.000 F 
ATOM     16  C   UNL     1       5.405   3.728  13.474  0.00  0.00    +0.000 A 
ENDBRANCH   6  10
BRANCH   1  17
ATOM     17  C   UNL     1       2.387   6.542  20.142  0.00  0.00    +0.000 C 
BRANCH  17  21
ATOM     18  C   UNL     1       0.413  10.549  20.262  0.00  0.00    +0.000 A 
ATOM     19  C   UNL     1       1.043  10.032  19.118  0.00  0.00    +0.000 A 
ATOM     20  C   UNL     1       1.640   8.732  19.041  0.00  0.00    +0.000 A 
ATOM     21  C   UNL     1       1.619   7.872  20.131  0.00  0.00    +0.000 A 
ATOM     22  C   UNL     1       0.938   8.363  21.290  0.00  0.00    +0.000 A 
ATOM     23  C   UNL     1       0.355   9.660  21.351  0.00  0.00    +0.000 A 
BRANCH  18  25
ATOM     24  C   UNL     1      -1.312  12.163  21.320  0.00  0.00    +0.000 C 
ATOM     25  C   UNL     1      -0.141  12.002  20.314  0.00  0.00    +0.000 C 
ATOM     26  C   UNL     1      -0.696  12.459  18.939  0.00  0.00    +0.000 C 
ATOM     27  C   UNL     1       0.927  13.047  20.732  0.00  0.00    +0.000 C 
ENDBRANCH  18  25
ENDBRANCH  17  21
ENDBRANCH   1  17
BRANCH   3  28
ATOM     28  C   UNL     1       3.399   2.363  18.609  0.00  0.00    +0.000 C 
BRANCH  28  29
ATOM     29  C   UNL     1       3.895   2.295  20.020  0.00  0.00    +0.000 C 
ATOM     30  N   UNL     1       5.153   1.787  20.162  0.00  0.00    +0.000 N 
ATOM     31  O   UNL     1       3.219   2.588  21.000  0.00  0.00    +0.000 OA
ATOM     32  H   UNL     1       5.793   1.833  19.374  0.00  0.00    +0.000 HD
ATOM     33  H   UNL     1       5.537   1.790  21.092  0.00  0.00    +0.000 HD
ENDBRANCH  28  29
ENDBRANCH   3  28
TORSDOF 6
ENDMDL
MODEL 4
REMARK VINA RESULT:      -9.5      0.639      1.047
REMARK  Name = 
REMARK  9 active torsions:
REMARK  status: ('A' for Active; 'I' for Inactive)
REMARK    1  A    between atoms: C_1  and  C_2
REMARK    2  A    between atoms: C_2  and  C_3
REMARK    3  A    between atoms: C_2  and  C_4
REMARK    4  A    between atoms: C_2  and  C_5
REMARK    5  A    between atoms: C_8  and  C_9
REMARK    6  A    between atoms: C_9  and  N_10
REMARK    7  A    between atoms: C_12  and  C_13
REMARK    8  A    between atoms: C_13  and  C_14
REMARK    9  A    between atoms: C_19  and  C_20
REMARK                            x       y       z     vdW  Elec       q    Type
REMARK                         _______ _______ _______ _____ _____    ______ ____
ROOT
ATOM      1  N   UNL     1       2.501   5.537  18.973  0.00  0.00    +0.000 N 
ATOM      2  C   UNL     1       1.920   4.277  18.806  0.00  0.00    +0.000 A 
ATOM      3  C   UNL     1       2.915   3.471  18.303  0.00  0.00    +0.000 A 
ATOM      4  C   UNL     1       3.590   4.327  17.421  0.00  0.00    +0.000 A 
ATOM      5  C   UNL     1       4.425   4.040  16.321  0.00  0.00    +0.000 A 
ATOM      6  C   UNL     1       5.269   4.984  15.752  0.00  0.00    +0.000 A 
ATOM      7  C   UNL     1       5.364   6.195  16.472  0.00  0.00    +0.000 A 
ATOM      8  C   UNL     1       4.528   6.524  17.611  0.00  0.00    +0.000 A 
ATOM      9  C   UNL     1       3.551   5.596  18.031  0.00  0.00    +0.000 A 
ENDROOT
BRANCH   6  10
ATOM     10  C   UNL     1       5.980   4.640  14.482  0.00  0.00    +0.000 A 
ATOM     11  C   UNL     1       5.507   3.711  13.536  0.00  0.00    +0.000 A 
ATOM     12  C   UNL     1       6.205   3.464  12.325  0.00  0.00    +0.000 A 
ATOM     13  C   UNL     1       7.372   4.135  12.042  0.00  0.00    +0.000 A 
ATOM     14  C   UNL     1       7.848   5.084  12.934  0.00  0.00    +0.000 A 
ATOM     15  F   UNL     1       9.002   5.735  12.668  0.00  0.00    +0.000 F 
ATOM     16  C   UNL     1       7.179   5.314  14.128  0.00  0.00    +0.000 A 
ENDBRANCH   6  10
BRANCH   1  17
ATOM     17  C   UNL     1       2.178   6.300  20.222  0.00  0.00    +0.000 C 
BRANCH  17  21
ATOM     18  C   UNL     1       0.394  10.383  19.893  0.00  0.00    +0.000 A 
ATOM     19  C   UNL     1       0.383   9.629  21.076  0.00  0.00    +0.000 A 
ATOM     20  C   UNL     1       0.989   8.340  21.220  0.00  0.00    +0.000 A 
ATOM     21  C   UNL     1       1.658   7.744  20.159  0.00  0.00    +0.000 A 
ATOM     22  C   UNL     1       1.723   8.520  18.959  0.00  0.00    +0.000 A 
ATOM     23  C   UNL     1       1.110   9.798  18.831  0.00  0.00    +0.000 A 
BRANCH  18  25
ATOM     24  C   UNL     1       0.570  12.903  19.322  0.00  0.00    +0.000 C 
ATOM     25  C   UNL     1      -0.356  11.741  19.770  0.00  0.00    +0.000 C 
ATOM     26  C   UNL     1      -0.971  12.186  21.124  0.00  0.00    +0.000 C 
ATOM     27  C   UNL     1      -1.520  11.704  18.745  0.00  0.00    +0.000 C 
ENDBRANCH  18  25
ENDBRANCH  17  21
ENDBRANCH   1  17
BRANCH   3  28
ATOM     28  C   UNL     1       3.517   2.181  18.780  0.00  0.00    +0.000 C 
BRANCH  28  29
ATOM     29  C   UNL     1       4.053   2.194  20.178  0.00  0.00    +0.000 C 
ATOM     30  N   UNL     1       3.171   2.623  21.126  0.00  0.00    +0.000 N 
ATOM     31  O   UNL     1       5.213   1.927  20.471  0.00  0.00    +0.000 OA
ATOM     32  H   UNL     1       2.174   2.551  20.938  0.00  0.00    +0.000 HD
ATOM     33  H   UNL     1       3.482   2.580  22.082  0.00  0.00    +0.000 HD
ENDBRANCH  28  29
ENDBRANCH   3  28
TORSDOF 6
ENDMDL
MODEL 5
REMARK VINA RESULT:      -9.4      0.508      1.299
REMARK  Name = 
REMARK  9 active torsions:
REMARK  status: ('A' for Active; 'I' for Inactive)
REMARK    1  A    between atoms: C_1  and  C_2
REMARK    2  A    between atoms: C_2  and  C_3
REMARK    3  A    between atoms: C_2  and  C_4
REMARK    4  A    between atoms: C_2  and  C_5
REMARK    5  A    between atoms: C_8  and  C_9
REMARK    6  A    between atoms: C_9  and  N_10
REMARK    7  A    between atoms: C_12  and  C_13
REMARK    8  A    between atoms: C_13  and  C_14
REMARK    9  A    between atoms: C_19  and  C_20
REMARK                            x       y       z     vdW  Elec       q    Type
REMARK                         _______ _______ _______ _____ _____    ______ ____
ROOT
ATOM      1  N   UNL     1       2.519   5.924  19.019  0.00  0.00    +0.000 N 
ATOM      2  C   UNL     1       1.774   4.763  18.794  0.00  0.00    +0.000 A 
ATOM      3  C   UNL     1       2.662   3.845  18.281  0.00  0.00    +0.000 A 
ATOM      4  C   UNL     1       3.469   4.630  17.445  0.00  0.00    +0.000 A 
ATOM      5  C   UNL     1       4.283   4.268  16.351  0.00  0.00    +0.000 A 
ATOM      6  C   UNL     1       5.262   5.105  15.834  0.00  0.00    +0.000 A 
ATOM      7  C   UNL     1       5.505   6.267  16.600  0.00  0.00    +0.000 A 
ATOM      8  C   UNL     1       4.694   6.669  17.734  0.00  0.00    +0.000 A 
ATOM      9  C   UNL     1       3.590   5.870  18.101  0.00  0.00    +0.000 A 
ENDROOT
BRANCH   6  10
ATOM     10  C   UNL     1       5.950   4.710  14.566  0.00  0.00    +0.000 A 
ATOM     11  C   UNL     1       5.453   3.755  13.661  0.00  0.00    +0.000 A 
ATOM     12  C   UNL     1       6.129   3.458  12.448  0.00  0.00    +0.000 A 
ATOM     13  C   UNL     1       7.298   4.106  12.124  0.00  0.00    +0.000 A 
ATOM     14  C   UNL     1       7.798   5.081  12.975  0.00  0.00    +0.000 A 
ATOM     15  F   UNL     1       8.954   5.710  12.670  0.00  0.00    +0.000 F 
ATOM     16  C   UNL     1       7.150   5.359  14.170  0.00  0.00    +0.000 A 
ENDBRANCH   6  10
BRANCH   1  17
ATOM     17  C   UNL     1       2.273   6.682  20.290  0.00  0.00    +0.000 C 
BRANCH  17  21
ATOM     18  C   UNL     1       0.026  10.538  20.497  0.00  0.00    +0.000 A 
ATOM     19  C   UNL     1       0.753  10.128  19.369  0.00  0.00    +0.000 A 
ATOM     20  C   UNL     1       1.441   8.876  19.260  0.00  0.00    +0.000 A 
ATOM     21  C   UNL     1       1.418   7.958  20.301  0.00  0.00    +0.000 A 
ATOM     22  C   UNL     1       0.640   8.337  21.440  0.00  0.00    +0.000 A 
ATOM     23  C   UNL     1      -0.033   9.589  21.534  0.00  0.00    +0.000 A 
BRANCH  18  25
ATOM     24  C   UNL     1       0.394  13.100  20.411  0.00  0.00    +0.000 C 
ATOM     25  C   UNL     1      -0.629  11.947  20.591  0.00  0.00    +0.000 C 
ATOM     26  C   UNL     1      -1.296  12.183  21.972  0.00  0.00    +0.000 C 
ATOM     27  C   UNL     1      -1.728  12.181  19.521  0.00  0.00    +0.000 C 
ENDBRANCH  18  25
ENDBRANCH  17  21
ENDBRANCH   1  17
BRANCH   3  28
ATOM     28  C   UNL     1       3.071   2.469  18.722  0.00  0.00    +0.000 C 
BRANCH  28  29
ATOM     29  C   UNL     1       3.775   2.394  20.040  0.00  0.00    +0.000 C 
ATOM     30  N   UNL     1       5.111   2.130  19.963  0.00  0.00    +0.000 N 
ATOM     31  O   UNL     1       3.211   2.473  21.126  0.00  0.00    +0.000 OA
ATOM     32  H   UNL     1       5.608   2.360  19.106  0.00  0.00    +0.000 HD
ATOM     33  H   UNL     1       5.623   2.139  20.829  0.00  0.00    +0.000 HD
ENDBRANCH  28  29
ENDBRANCH   3  28
TORSDOF 6
ENDMDL
MODEL 6
REMARK VINA RESULT:      -9.4      1.409      1.697
REMARK  Name = 
REMARK  9 active torsions:
REMARK  status: ('A' for Active; 'I' for Inactive)
REMARK    1  A    between atoms: C_1  and  C_2
REMARK    2  A    between atoms: C_2  and  C_3
REMARK    3  A    between atoms: C_2  and  C_4
REMARK    4  A    between atoms: C_2  and  C_5
REMARK    5  A    between atoms: C_8  and  C_9
REMARK    6  A    between atoms: C_9  and  N_10
REMARK    7  A    between atoms: C_12  and  C_13
REMARK    8  A    between atoms: C_13  and  C_14
REMARK    9  A    between atoms: C_19  and  C_20
REMARK                            x       y       z     vdW  Elec       q    Type
REMARK                         _______ _______ _______ _____ _____    ______ ____
ROOT
ATOM      1  N   UNL     1       2.589   6.232  18.895  0.00  0.00    +0.000 N 
ATOM      2  C   UNL     1       2.071   4.934  18.944  0.00  0.00    +0.000 A 
ATOM      3  C   UNL     1       3.084   4.112  18.506  0.00  0.00    +0.000 A 
ATOM      4  C   UNL     1       3.665   4.862  17.472  0.00  0.00    +0.000 A 
ATOM      5  C   UNL     1       4.458   4.457  16.379  0.00  0.00    +0.000 A 
ATOM      6  C   UNL     1       5.219   5.347  15.632  0.00  0.00    +0.000 A 
ATOM      7  C   UNL     1       5.281   6.654  16.164  0.00  0.00    +0.000 A 
ATOM      8  C   UNL     1       4.486   7.105  17.290  0.00  0.00    +0.000 A 
ATOM      9  C   UNL     1       3.585   6.203  17.895  0.00  0.00    +0.000 A 
ENDROOT
BRANCH   6  10
ATOM     10  C   UNL     1       5.883   4.855  14.386  0.00  0.00    +0.000 A 
ATOM     11  C   UNL     1       7.179   5.224  13.981  0.00  0.00    +0.000 A 
ATOM     12  C   UNL     1       7.773   4.683  12.811  0.00  0.00    +0.000 A 
ATOM     13  C   UNL     1       7.090   3.773  12.037  0.00  0.00    +0.000 A 
ATOM     14  C   UNL     1       5.826   3.359  12.426  0.00  0.00    +0.000 A 
ATOM     15  F   UNL     1       5.143   2.477  11.662  0.00  0.00    +0.000 F 
ATOM     16  C   UNL     1       5.234   3.900  13.558  0.00  0.00    +0.000 A 
ENDBRANCH   6  10
BRANCH   1  17
ATOM     17  C   UNL     1       2.286   7.153  20.038  0.00  0.00    +0.000 C 
BRANCH  17  21
ATOM     18  C   UNL     1      -0.258  10.745  19.269  0.00  0.00    +0.000 A 
ATOM     19  C   UNL     1      -0.189  10.100  20.514  0.00  0.00    +0.000 A 
ATOM     20  C   UNL     1       0.654   8.978  20.798  0.00  0.00    +0.000 A 
ATOM     21  C   UNL     1       1.492   8.450  19.824  0.00  0.00    +0.000 A 
ATOM     22  C   UNL     1       1.472   9.126  18.563  0.00  0.00    +0.000 A 
ATOM     23  C   UNL     1       0.623  10.237  18.295  0.00  0.00    +0.000 A 
BRANCH  18  25
ATOM     24  C   UNL     1      -2.378  11.511  17.995  0.00  0.00    +0.000 C 
ATOM     25  C   UNL     1      -1.257  11.906  18.994  0.00  0.00    +0.000 C 
ATOM     26  C   UNL     1      -0.552  13.141  18.374  0.00  0.00    +0.000 C 
ATOM     27  C   UNL     1      -1.981  12.403  20.272  0.00  0.00    +0.000 C 
ENDBRANCH  18  25
ENDBRANCH  17  21
ENDBRANCH   1  17
BRANCH   3  28
ATOM     28  C   UNL     1       3.781   2.938  19.128  0.00  0.00    +0.000 C 
BRANCH  28  29
ATOM     29  C   UNL     1       3.477   1.605  18.519  0.00  0.00    +0.000 C 
ATOM     30  N   UNL     1       4.385   0.626  18.796  0.00  0.00    +0.000 N 
ATOM     31  O   UNL     1       2.538   1.397  17.757  0.00  0.00    +0.000 OA
ATOM     32  H   UNL     1       4.959   0.711  19.631  0.00  0.00    +0.000 HD
ATOM     33  H   UNL     1       4.171  -0.296  18.454  0.00  0.00    +0.000 HD
ENDBRANCH  28  29
ENDBRANCH   3  28
TORSDOF 6
ENDMDL
MODEL 7
REMARK VINA RESULT:      -9.2      1.315      1.945
REMARK  Name = 
REMARK  9 active torsions:
REMARK  status: ('A' for Active; 'I' for Inactive)
REMARK    1  A    between atoms: C_1  and  C_2
REMARK    2  A    between atoms: C_2  and  C_3
REMARK    3  A    between atoms: C_2  and  C_4
REMARK    4  A    between atoms: C_2  and  C_5
REMARK    5  A    between atoms: C_8  and  C_9
REMARK    6  A    between atoms: C_9  and  N_10
REMARK    7  A    between atoms: C_12  and  C_13
REMARK    8  A    between atoms: C_13  and  C_14
REMARK    9  A    between atoms: C_19  and  C_20
REMARK                            x       y       z     vdW  Elec       q    Type
REMARK                         _______ _______ _______ _____ _____    ______ ____
ROOT
ATOM      1  N   UNL     1       2.677   6.302  18.843  0.00  0.00    +0.000 N 
ATOM      2  C   UNL     1       2.156   5.006  18.910  0.00  0.00    +0.000 A 
ATOM      3  C   UNL     1       3.164   4.177  18.476  0.00  0.00    +0.000 A 
ATOM      4  C   UNL     1       3.741   4.913  17.430  0.00  0.00    +0.000 A 
ATOM      5  C   UNL     1       4.527   4.493  16.337  0.00  0.00    +0.000 A 
ATOM      6  C   UNL     1       5.286   5.372  15.576  0.00  0.00    +0.000 A 
ATOM      7  C   UNL     1       5.355   6.685  16.092  0.00  0.00    +0.000 A 
ATOM      8  C   UNL     1       4.567   7.151  17.217  0.00  0.00    +0.000 A 
ATOM      9  C   UNL     1       3.668   6.259  17.838  0.00  0.00    +0.000 A 
ENDROOT
BRANCH   6  10
ATOM     10  C   UNL     1       5.942   4.864  14.332  0.00  0.00    +0.000 A 
ATOM     11  C   UNL     1       7.221   5.254  13.894  0.00  0.00    +0.000 A 
ATOM     12  C   UNL     1       7.809   4.697  12.729  0.00  0.00    +0.000 A 
ATOM     13  C   UNL     1       7.137   3.751  11.991  0.00  0.00    +0.000 A 
ATOM     14  C   UNL     1       5.890   3.315  12.413  0.00  0.00    +0.000 A 
ATOM     15  F   UNL     1       5.218   2.397  11.684  0.00  0.00    +0.000 F 
ATOM     16  C   UNL     1       5.303   3.871  13.541  0.00  0.00    +0.000 A 
ENDBRANCH   6  10
BRANCH   1  17
ATOM     17  C   UNL     1       2.383   7.237  19.977  0.00  0.00    +0.000 C 
BRANCH  17  21
ATOM     18  C   UNL     1      -0.210  10.858  19.617  0.00  0.00    +0.000 A 
ATOM     19  C   UNL     1       0.541  10.337  18.552  0.00  0.00    +0.000 A 
ATOM     20  C   UNL     1       1.341   9.151  18.629  0.00  0.00    +0.000 A 
ATOM     21  C   UNL     1       1.414   8.416  19.804  0.00  0.00    +0.000 A 
ATOM     22  C   UNL     1       0.615   8.904  20.887  0.00  0.00    +0.000 A 
ATOM     23  C   UNL     1      -0.170  10.088  20.794  0.00  0.00    +0.000 A 
BRANCH  18  25
ATOM     24  C   UNL     1      -1.129  12.937  20.858  0.00  0.00    +0.000 C 
ATOM     25  C   UNL     1      -0.992  12.198  19.500  0.00  0.00    +0.000 C 
ATOM     26  C   UNL     1      -2.440  11.980  18.988  0.00  0.00    +0.000 C 
ATOM     27  C   UNL     1      -0.326  13.209  18.530  0.00  0.00    +0.000 C 
ENDBRANCH  18  25
ENDBRANCH  17  21
ENDBRANCH   1  17
BRANCH   3  28
ATOM     28  C   UNL     1       3.862   3.007  19.108  0.00  0.00    +0.000 C 
BRANCH  28  29
ATOM     29  C   UNL     1       3.222   1.673  18.884  0.00  0.00    +0.000 C 
ATOM     30  N   UNL     1       4.046   0.723  18.354  0.00  0.00    +0.000 N 
ATOM     31  O   UNL     1       2.033   1.441  19.072  0.00  0.00    +0.000 OA
ATOM     32  H   UNL     1       5.050   0.818  18.482  0.00  0.00    +0.000 HD
ATOM     33  H   UNL     1       3.661  -0.202  18.255  0.00  0.00    +0.000 HD
ENDBRANCH  28  29
ENDBRANCH   3  28
TORSDOF 6
ENDMDL
MODEL 8
REMARK VINA RESULT:      -9.2      1.154      1.249
REMARK  Name = 
REMARK  9 active torsions:
REMARK  status: ('A' for Active; 'I' for Inactive)
REMARK    1  A    between atoms: C_1  and  C_2
REMARK    2  A    between atoms: C_2  and  C_3
REMARK    3  A    between atoms: C_2  and  C_4
REMARK    4  A    between atoms: C_2  and  C_5
REMARK    5  A    between atoms: C_8  and  C_9
REMARK    6  A    between atoms: C_9  and  N_10
REMARK    7  A    between atoms: C_12  and  C_13
REMARK    8  A    between atoms: C_13  and  C_14
REMARK    9  A    between atoms: C_19  and  C_20
REMARK                            x       y       z     vdW  Elec       q    Type
REMARK                         _______ _______ _______ _____ _____    ______ ____
ROOT
ATOM      1  N   UNL     1       2.498   6.252  18.988  0.00  0.00    +0.000 N 
ATOM      2  C   UNL     1       2.015   4.942  19.066  0.00  0.00    +0.000 A 
ATOM      3  C   UNL     1       3.055   4.138  18.661  0.00  0.00    +0.000 A 
ATOM      4  C   UNL     1       3.628   4.876  17.615  0.00  0.00    +0.000 A 
ATOM      5  C   UNL     1       4.445   4.464  16.541  0.00  0.00    +0.000 A 
ATOM      6  C   UNL     1       5.190   5.355  15.780  0.00  0.00    +0.000 A 
ATOM      7  C   UNL     1       5.211   6.677  16.278  0.00  0.00    +0.000 A 
ATOM      8  C   UNL     1       4.390   7.135  17.383  0.00  0.00    +0.000 A 
ATOM      9  C   UNL     1       3.507   6.225  18.001  0.00  0.00    +0.000 A 
ENDROOT
BRANCH   6  10
ATOM     10  C   UNL     1       5.883   4.849  14.556  0.00  0.00    +0.000 A 
ATOM     11  C   UNL     1       5.355   3.870  13.694  0.00  0.00    +0.000 A 
ATOM     12  C   UNL     1       6.040   3.467  12.518  0.00  0.00    +0.000 A 
ATOM     13  C   UNL     1       7.250   4.031  12.188  0.00  0.00    +0.000 A 
ATOM     14  C   UNL     1       7.784   5.025  12.994  0.00  0.00    +0.000 A 
ATOM     15  F   UNL     1       8.980   5.572  12.682  0.00  0.00    +0.000 F 
ATOM     16  C   UNL     1       7.126   5.408  14.154  0.00  0.00    +0.000 A 
ENDBRANCH   6  10
BRANCH   1  17
ATOM     17  C   UNL     1       2.156   7.194  20.103  0.00  0.00    +0.000 C 
BRANCH  17  21
ATOM     18  C   UNL     1      -0.327  10.797  19.198  0.00  0.00    +0.000 A 
ATOM     19  C   UNL     1      -0.225  10.231  20.479  0.00  0.00    +0.000 A 
ATOM     20  C   UNL     1       0.601   9.107  20.804  0.00  0.00    +0.000 A 
ATOM     21  C   UNL     1       1.386   8.496  19.835  0.00  0.00    +0.000 A 
ATOM     22  C   UNL     1       1.334   9.091  18.535  0.00  0.00    +0.000 A 
ATOM     23  C   UNL     1       0.503  10.205  18.228  0.00  0.00    +0.000 A 
BRANCH  18  25
ATOM     24  C   UNL     1      -2.247  11.658  17.690  0.00  0.00    +0.000 C 
ATOM     25  C   UNL     1      -1.307  11.965  18.886  0.00  0.00    +0.000 C 
ATOM     26  C   UNL     1      -0.554  13.268  18.510  0.00  0.00    +0.000 C 
ATOM     27  C   UNL     1      -2.235  12.317  20.078  0.00  0.00    +0.000 C 
ENDBRANCH  18  25
ENDBRANCH  17  21
ENDBRANCH   1  17
BRANCH   3  28
ATOM     28  C   UNL     1       3.776   2.999  19.322  0.00  0.00    +0.000 C 
BRANCH  28  29
ATOM     29  C   UNL     1       3.461   1.636  18.791  0.00  0.00    +0.000 C 
ATOM     30  N   UNL     1       2.196   1.488  18.303  0.00  0.00    +0.000 N 
ATOM     31  O   UNL     1       4.229   0.682  18.850  0.00  0.00    +0.000 OA
ATOM     32  H   UNL     1       1.693   2.313  17.987  0.00  0.00    +0.000 HD
ATOM     33  H   UNL     1       1.977   0.602  17.879  0.00  0.00    +0.000 HD
ENDBRANCH  28  29
ENDBRANCH   3  28
TORSDOF 6
ENDMDL
MODEL 9
REMARK VINA RESULT:      -9.0      0.919      1.273
REMARK  Name = 
REMARK  9 active torsions:
REMARK  status: ('A' for Active; 'I' for Inactive)
REMARK    1  A    between atoms: C_1  and  C_2
REMARK    2  A    between atoms: C_2  and  C_3
REMARK    3  A    between atoms: C_2  and  C_4
REMARK    4  A    between atoms: C_2  and  C_5
REMARK    5  A    between atoms: C_8  and  C_9
REMARK    6  A    between atoms: C_9  and  N_10
REMARK    7  A    between atoms: C_12  and  C_13
REMARK    8  A    between atoms: C_13  and  C_14
REMARK    9  A    between atoms: C_19  and  C_20
REMARK                            x       y       z     vdW  Elec       q    Type
REMARK                         _______ _______ _______ _____ _____    ______ ____
ROOT
ATOM      1  N   UNL     1       2.558   6.262  19.004  0.00  0.00    +0.000 N 
ATOM      2  C   UNL     1       2.019   4.972  19.035  0.00  0.00    +0.000 A 
ATOM      3  C   UNL     1       3.027   4.137  18.612  0.00  0.00    +0.000 A 
ATOM      4  C   UNL     1       3.640   4.883  17.594  0.00  0.00    +0.000 A 
ATOM      5  C   UNL     1       4.448   4.472  16.514  0.00  0.00    +0.000 A 
ATOM      6  C   UNL     1       5.237   5.354  15.788  0.00  0.00    +0.000 A 
ATOM      7  C   UNL     1       5.310   6.657  16.329  0.00  0.00    +0.000 A 
ATOM      8  C   UNL     1       4.499   7.114  17.442  0.00  0.00    +0.000 A 
ATOM      9  C   UNL     1       3.573   6.223  18.024  0.00  0.00    +0.000 A 
ENDROOT
BRANCH   6  10
ATOM     10  C   UNL     1       5.918   4.859  14.552  0.00  0.00    +0.000 A 
ATOM     11  C   UNL     1       5.376   3.898  13.680  0.00  0.00    +0.000 A 
ATOM     12  C   UNL     1       6.051   3.505  12.495  0.00  0.00    +0.000 A 
ATOM     13  C   UNL     1       7.264   4.061  12.166  0.00  0.00    +0.000 A 
ATOM     14  C   UNL     1       7.812   5.038  12.983  0.00  0.00    +0.000 A 
ATOM     15  F   UNL     1       9.012   5.578  12.672  0.00  0.00    +0.000 F 
ATOM     16  C   UNL     1       7.164   5.411  14.152  0.00  0.00    +0.000 A 
ENDBRANCH   6  10
BRANCH   1  17
ATOM     17  C   UNL     1       2.247   7.181  20.146  0.00  0.00    +0.000 C 
BRANCH  17  21
ATOM     18  C   UNL     1      -0.130  10.943  19.746  0.00  0.00    +0.000 A 
ATOM     19  C   UNL     1       0.656  10.413  18.711  0.00  0.00    +0.000 A 
ATOM     20  C   UNL     1       1.388   9.185  18.799  0.00  0.00    +0.000 A 
ATOM     21  C   UNL     1       1.351   8.414  19.953  0.00  0.00    +0.000 A 
ATOM     22  C   UNL     1       0.515   8.914  21.002  0.00  0.00    +0.000 A 
ATOM     23  C   UNL     1      -0.201  10.140  20.900  0.00  0.00    +0.000 A 
BRANCH  18  25
ATOM     24  C   UNL     1      -2.380  12.223  19.687  0.00  0.00    +0.000 C 
ATOM     25  C   UNL     1      -0.833  12.326  19.624  0.00  0.00    +0.000 C 
ATOM     26  C   UNL     1      -0.508  13.023  18.277  0.00  0.00    +0.000 C 
ATOM     27  C   UNL     1      -0.426  13.318  20.746  0.00  0.00    +0.000 C 
ENDBRANCH  18  25
ENDBRANCH  17  21
ENDBRANCH   1  17
BRANCH   3  28
ATOM     28  C   UNL     1       3.693   2.947  19.240  0.00  0.00    +0.000 C 
BRANCH  28  29
ATOM     29  C   UNL     1       3.116   1.615  18.878  0.00  0.00    +0.000 C 
ATOM     30  N   UNL     1       4.028   0.684  18.476  0.00  0.00    +0.000 N 
ATOM     31  O   UNL     1       1.914   1.371  18.854  0.00  0.00    +0.000 OA
ATOM     32  H   UNL     1       4.994   0.783  18.777  0.00  0.00    +0.000 HD
ATOM     33  H   UNL     1       3.676  -0.240  18.290  0.00  0.00    +0.000 HD
ENDBRANCH  28  29
ENDBRANCH   3  28
TORSDOF 6
ENDMDL
