MODEL 1
REMARK VINA RESULT:      -8.1      0.000      0.000
REMARK  Name = 
REMARK  5 active torsions:
REMARK  status: ('A' for Active; 'I' for Inactive)
REMARK    1  A    between atoms: C_1  and  O_2
REMARK    2  A    between atoms: O_2  and  C_3
REMARK    3  A    between atoms: C_9  and  C_10
REMARK    4  A    between atoms: N_12  and  N_13
REMARK    5  A    between atoms: C_14  and  C_16
REMARK                            x       y       z     vdW  Elec       q    Type
REMARK                         _______ _______ _______ _____ _____    ______ ____
ROOT
ATOM      1  C   UNL     1       7.378   7.175  17.369  0.00  0.00    +0.000 C 
ATOM      2  O   UNL     1       8.139   7.047  16.409  0.00  0.00    +0.000 OA
ATOM      3  N   UNL     1       7.271   8.356  18.067  0.00  0.00    +0.000 N 
ATOM      4  H   UNL     1       6.626   8.492  18.855  0.00  0.00    +0.000 HD
ENDROOT
BRANCH   1  11
ATOM      5  C   UNL     1       4.102   2.778  19.064  0.00  0.00    +0.000 A 
ATOM      6  C   UNL     1       2.983   2.443  18.297  0.00  0.00    +0.000 A 
ATOM      7  C   UNL     1       2.629   3.201  17.181  0.00  0.00    +0.000 A 
ATOM      8  C   UNL     1       3.411   4.295  16.798  0.00  0.00    +0.000 A 
ATOM      9  C   UNL     1       4.546   4.634  17.536  0.00  0.00    +0.000 A 
ATOM     10  C   UNL     1       5.420   5.736  17.140  0.00  0.00    +0.000 A 
ATOM     11  C   UNL     1       6.515   6.051  17.857  0.00  0.00    +0.000 A 
ATOM     12  C   UNL     1       6.835   5.293  19.084  0.00  0.00    +0.000 A 
ATOM     13  O   UNL     1       7.783   5.591  19.803  0.00  0.00    +0.000 OA
ATOM     14  O   UNL     1       6.024   4.217  19.398  0.00  0.00    +0.000 OA
ATOM     15  C   UNL     1       4.874   3.877  18.666  0.00  0.00    +0.000 A 
BRANCH   5  17
ATOM     16  C   UNL     1       3.526   2.054  21.260  0.00  0.00    +0.000 C 
ATOM     17  O   UNL     1       4.347   1.925  20.105  0.00  0.00    +0.000 OA
ENDBRANCH   5  17
ENDBRANCH   1  11
BRANCH   3  18
ATOM     18  N   UNL     1       8.014   9.475  17.672  0.00  0.00    +0.000 N 
ATOM     19  C   UNL     1       8.872  10.032  18.600  0.00  0.00    +0.000 C 
ATOM     20  O   UNL     1       8.996   9.589  19.740  0.00  0.00    +0.000 OA
ATOM     21  H   UNL     1       8.006   9.703  16.681  0.00  0.00    +0.000 HD
BRANCH  19  22
ATOM     22  C   UNL     1       9.674  11.210  18.170  0.00  0.00    +0.000 A 
ATOM     23  C   UNL     1       9.079  12.391  17.709  0.00  0.00    +0.000 A 
ATOM     24  C   UNL     1       9.878  13.495  17.384  0.00  0.00    +0.000 A 
ATOM     25  C   UNL     1      11.264  13.418  17.523  0.00  0.00    +0.000 A 
ATOM     26 BR   UNL     1      12.333  14.923  17.118  0.00  0.00    +0.000 Br
ATOM     27  C   UNL     1      11.865  12.245  17.976  0.00  0.00    +0.000 A 
ATOM     28  C   UNL     1      11.069  11.145  18.304  0.00  0.00    +0.000 A 
ENDBRANCH  19  22
ENDBRANCH   3  18
TORSDOF 4
ENDMDL
MODEL 2
REMARK VINA RESULT:      -7.9      7.701      8.623
REMARK  Name = 
REMARK  5 active torsions:
REMARK  status: ('A' for Active; 'I' for Inactive)
REMARK    1  A    between atoms: C_1  and  O_2
REMARK    2  A    between atoms: O_2  and  C_3
REMARK    3  A    between atoms: C_9  and  C_10
REMARK    4  A    between atoms: N_12  and  N_13
REMARK    5  A    between atoms: C_14  and  C_16
REMARK                            x       y       z     vdW  Elec       q    Type
REMARK                         _______ _______ _______ _____ _____    ______ ____
ROOT
ATOM      1  C   UNL     1       1.329   8.984  19.176  0.00  0.00    +0.000 C 
ATOM      2  O   UNL     1       0.808   9.577  18.231  0.00  0.00    +0.000 OA
ATOM      3  N   UNL     1       1.122   9.364  20.482  0.00  0.00    +0.000 N 
ATOM      4  H   UNL     1       1.526   8.869  21.288  0.00  0.00    +0.000 HD
ENDROOT
BRANCH   1  11
ATOM      5  C   UNL     1       4.955   4.602  18.412  0.00  0.00    +0.000 A 
ATOM      6  C   UNL     1       5.784   4.609  17.287  0.00  0.00    +0.000 A 
ATOM      7  C   UNL     1       5.687   5.622  16.333  0.00  0.00    +0.000 A 
ATOM      8  C   UNL     1       4.772   6.665  16.508  0.00  0.00    +0.000 A 
ATOM      9  C   UNL     1       3.950   6.692  17.635  0.00  0.00    +0.000 A 
ATOM     10  C   UNL     1       3.020   7.790  17.884  0.00  0.00    +0.000 A 
ATOM     11  C   UNL     1       2.235   7.807  18.977  0.00  0.00    +0.000 A 
ATOM     12  C   UNL     1       2.288   6.687  19.939  0.00  0.00    +0.000 A 
ATOM     13  O   UNL     1       1.542   6.629  20.911  0.00  0.00    +0.000 OA
ATOM     14  O   UNL     1       3.223   5.693  19.710  0.00  0.00    +0.000 OA
ATOM     15  C   UNL     1       4.046   5.655  18.571  0.00  0.00    +0.000 A 
BRANCH   5  17
ATOM     16  C   UNL     1       4.208   2.540  19.343  0.00  0.00    +0.000 C 
ATOM     17  O   UNL     1       5.189   3.569  19.277  0.00  0.00    +0.000 OA
ENDBRANCH   5  17
ENDBRANCH   1  11
BRANCH   3  18
ATOM     18  N   UNL     1       0.268  10.434  20.776  0.00  0.00    +0.000 N 
ATOM     19  C   UNL     1       0.002  10.692  22.107  0.00  0.00    +0.000 C 
ATOM     20  O   UNL     1       0.475  10.020  23.021  0.00  0.00    +0.000 OA
ATOM     21  H   UNL     1       0.035  11.058  20.008  0.00  0.00    +0.000 HD
BRANCH  19  22
ATOM     22  C   UNL     1      -0.891  11.842  22.416  0.00  0.00    +0.000 A 
ATOM     23  C   UNL     1      -0.640  13.134  21.936  0.00  0.00    +0.000 A 
ATOM     24  C   UNL     1      -1.549  14.165  22.197  0.00  0.00    +0.000 A 
ATOM     25  C   UNL     1      -2.706  13.905  22.934  0.00  0.00    +0.000 A 
ATOM     26 BR   UNL     1      -3.947  15.294  23.253  0.00  0.00    +0.000 Br
ATOM     27  C   UNL     1      -2.961  12.625  23.420  0.00  0.00    +0.000 A 
ATOM     28  C   UNL     1      -2.056  11.595  23.157  0.00  0.00    +0.000 A 
ENDBRANCH  19  22
ENDBRANCH   3  18
TORSDOF 4
ENDMDL
MODEL 3
REMARK VINA RESULT:      -7.5      8.571      9.430
REMARK  Name = 
REMARK  5 active torsions:
REMARK  status: ('A' for Active; 'I' for Inactive)
REMARK    1  A    between atoms: C_1  and  O_2
REMARK    2  A    between atoms: O_2  and  C_3
REMARK    3  A    between atoms: C_9  and  C_10
REMARK    4  A    between atoms: N_12  and  N_13
REMARK    5  A    between atoms: C_14  and  C_16
REMARK                            x       y       z     vdW  Elec       q    Type
REMARK                         _______ _______ _______ _____ _____    ______ ____
ROOT
ATOM      1  C   UNL     1       0.854   9.915  20.034  0.00  0.00    +0.000 C 
ATOM      2  O   UNL     1       1.302  11.031  19.769  0.00  0.00    +0.000 OA
ATOM      3  N   UNL     1      -0.286   9.743  20.785  0.00  0.00    +0.000 N 
ATOM      4  H   UNL     1      -0.691   8.822  20.998  0.00  0.00    +0.000 HD
ENDROOT
BRANCH   1  11
ATOM      5  C   UNL     1       3.230   4.997  18.271  0.00  0.00    +0.000 A 
ATOM      6  C   UNL     1       3.234   3.906  19.144  0.00  0.00    +0.000 A 
ATOM      7  C   UNL     1       2.735   4.026  20.441  0.00  0.00    +0.000 A 
ATOM      8  C   UNL     1       2.194   5.240  20.875  0.00  0.00    +0.000 A 
ATOM      9  C   UNL     1       2.157   6.337  20.013  0.00  0.00    +0.000 A 
ATOM     10  C   UNL     1       1.552   7.606  20.408  0.00  0.00    +0.000 A 
ATOM     11  C   UNL     1       1.519   8.656  19.565  0.00  0.00    +0.000 A 
ATOM     12  C   UNL     1       2.125   8.543  18.223  0.00  0.00    +0.000 A 
ATOM     13  O   UNL     1       2.178   9.494  17.451  0.00  0.00    +0.000 OA
ATOM     14  O   UNL     1       2.634   7.310  17.856  0.00  0.00    +0.000 OA
ATOM     15  C   UNL     1       2.683   6.205  18.722  0.00  0.00    +0.000 A 
BRANCH   5  17
ATOM     16  C   UNL     1       5.047   4.222  16.939  0.00  0.00    +0.000 C 
ATOM     17  O   UNL     1       3.717   4.721  17.023  0.00  0.00    +0.000 OA
ENDBRANCH   5  17
ENDBRANCH   1  11
BRANCH   3  18
ATOM     18  N   UNL     1      -0.998  10.857  21.246  0.00  0.00    +0.000 N 
ATOM     19  C   UNL     1      -0.938  11.139  22.597  0.00  0.00    +0.000 C 
ATOM     20  O   UNL     1      -0.299  10.452  23.391  0.00  0.00    +0.000 OA
ATOM     21  H   UNL     1      -1.372  11.486  20.540  0.00  0.00    +0.000 HD
BRANCH  19  22
ATOM     22  C   UNL     1      -1.682  12.334  23.081  0.00  0.00    +0.000 A 
ATOM     23  C   UNL     1      -3.014  12.264  23.508  0.00  0.00    +0.000 A 
ATOM     24  C   UNL     1      -3.644  13.405  24.021  0.00  0.00    +0.000 A 
ATOM     25  C   UNL     1      -2.944  14.609  24.106  0.00  0.00    +0.000 A 
ATOM     26 BR   UNL     1      -3.789  16.136  24.831  0.00  0.00    +0.000 Br
ATOM     27  C   UNL     1      -1.621  14.690  23.678  0.00  0.00    +0.000 A 
ATOM     28  C   UNL     1      -0.990  13.552  23.170  0.00  0.00    +0.000 A 
ENDBRANCH  19  22
ENDBRANCH   3  18
TORSDOF 4
ENDMDL
MODEL 4
REMARK VINA RESULT:      -7.5      8.530      9.940
REMARK  Name = 
REMARK  5 active torsions:
REMARK  status: ('A' for Active; 'I' for Inactive)
REMARK    1  A    between atoms: C_1  and  O_2
REMARK    2  A    between atoms: O_2  and  C_3
REMARK    3  A    between atoms: C_9  and  C_10
REMARK    4  A    between atoms: N_12  and  N_13
REMARK    5  A    between atoms: C_14  and  C_16
REMARK                            x       y       z     vdW  Elec       q    Type
REMARK                         _______ _______ _______ _____ _____    ______ ____
ROOT
ATOM      1  C   UNL     1       1.046  10.259  19.185  0.00  0.00    +0.000 C 
ATOM      2  O   UNL     1       1.616  10.933  18.327  0.00  0.00    +0.000 OA
ATOM      3  N   UNL     1       1.289   8.914  19.342  0.00  0.00    +0.000 N 
ATOM      4  H   UNL     1       0.843   8.338  20.067  0.00  0.00    +0.000 HD
ENDROOT
BRANCH   1  11
ATOM      5  C   UNL     1      -2.965  12.409  22.683  0.00  0.00    +0.000 A 
ATOM      6  C   UNL     1      -4.075  13.041  22.117  0.00  0.00    +0.000 A 
ATOM      7  C   UNL     1      -4.177  13.209  20.737  0.00  0.00    +0.000 A 
ATOM      8  C   UNL     1      -3.175  12.717  19.894  0.00  0.00    +0.000 A 
ATOM      9  C   UNL     1      -2.068  12.061  20.435  0.00  0.00    +0.000 A 
ATOM     10  C   UNL     1      -1.026  11.484  19.588  0.00  0.00    +0.000 A 
ATOM     11  C   UNL     1       0.035  10.850  20.121  0.00  0.00    +0.000 A 
ATOM     12  C   UNL     1       0.173  10.751  21.588  0.00  0.00    +0.000 A 
ATOM     13  O   UNL     1       1.157  10.243  22.116  0.00  0.00    +0.000 OA
ATOM     14  O   UNL     1      -0.860  11.251  22.362  0.00  0.00    +0.000 OA
ATOM     15  C   UNL     1      -1.971  11.921  21.824  0.00  0.00    +0.000 A 
BRANCH   5  17
ATOM     16  C   UNL     1      -4.286  12.483  24.664  0.00  0.00    +0.000 C 
ATOM     17  O   UNL     1      -3.021  12.283  24.044  0.00  0.00    +0.000 OA
ENDBRANCH   5  17
ENDBRANCH   1  11
BRANCH   3  18
ATOM     18  N   UNL     1       2.238   8.273  18.536  0.00  0.00    +0.000 N 
ATOM     19  C   UNL     1       2.531   6.953  18.821  0.00  0.00    +0.000 C 
ATOM     20  O   UNL     1       2.001   6.340  19.745  0.00  0.00    +0.000 OA
ATOM     21  H   UNL     1       2.524   8.760  17.690  0.00  0.00    +0.000 HD
BRANCH  19  22
ATOM     22  C   UNL     1       3.525   6.270  17.950  0.00  0.00    +0.000 A 
ATOM     23  C   UNL     1       3.541   4.879  17.782  0.00  0.00    +0.000 A 
ATOM     24  C   UNL     1       4.452   4.293  16.896  0.00  0.00    +0.000 A 
ATOM     25  C   UNL     1       5.344   5.094  16.181  0.00  0.00    +0.000 A 
ATOM     26 BR   UNL     1       6.548   4.299  14.960  0.00  0.00    +0.000 Br
ATOM     27  C   UNL     1       5.339   6.477  16.346  0.00  0.00    +0.000 A 
ATOM     28  C   UNL     1       4.428   7.063  17.227  0.00  0.00    +0.000 A 
ENDBRANCH  19  22
ENDBRANCH   3  18
TORSDOF 4
ENDMDL
MODEL 5
REMARK VINA RESULT:      -7.3      6.473      7.081
REMARK  Name = 
REMARK  5 active torsions:
REMARK  status: ('A' for Active; 'I' for Inactive)
REMARK    1  A    between atoms: C_1  and  O_2
REMARK    2  A    between atoms: O_2  and  C_3
REMARK    3  A    between atoms: C_9  and  C_10
REMARK    4  A    between atoms: N_12  and  N_13
REMARK    5  A    between atoms: C_14  and  C_16
REMARK                            x       y       z     vdW  Elec       q    Type
REMARK                         _______ _______ _______ _____ _____    ______ ____
ROOT
ATOM      1  C   UNL     1       1.890   8.877  18.502  0.00  0.00    +0.000 C 
ATOM      2  O   UNL     1       2.345   9.328  17.450  0.00  0.00    +0.000 OA
ATOM      3  N   UNL     1       1.147   9.646  19.367  0.00  0.00    +0.000 N 
ATOM      4  H   UNL     1       0.738   9.284  20.239  0.00  0.00    +0.000 HD
ENDROOT
BRANCH   1  11
ATOM      5  C   UNL     1       2.959   3.462  20.074  0.00  0.00    +0.000 A 
ATOM      6  C   UNL     1       3.492   2.584  19.126  0.00  0.00    +0.000 A 
ATOM      7  C   UNL     1       3.696   2.991  17.809  0.00  0.00    +0.000 A 
ATOM      8  C   UNL     1       3.395   4.302  17.424  0.00  0.00    +0.000 A 
ATOM      9  C   UNL     1       2.884   5.204  18.359  0.00  0.00    +0.000 A 
ATOM     10  C   UNL     1       2.608   6.596  18.014  0.00  0.00    +0.000 A 
ATOM     11  C   UNL     1       2.119   7.458  18.926  0.00  0.00    +0.000 A 
ATOM     12  C   UNL     1       1.829   6.993  20.297  0.00  0.00    +0.000 A 
ATOM     13  O   UNL     1       1.320   7.726  21.138  0.00  0.00    +0.000 OA
ATOM     14  O   UNL     1       2.161   5.686  20.611  0.00  0.00    +0.000 OA
ATOM     15  C   UNL     1       2.665   4.771  19.672  0.00  0.00    +0.000 A 
BRANCH   5  17
ATOM     16  C   UNL     1       1.558   2.506  21.747  0.00  0.00    +0.000 C 
ATOM     17  O   UNL     1       2.850   2.935  21.331  0.00  0.00    +0.000 OA
ENDBRANCH   5  17
ENDBRANCH   1  11
BRANCH   3  18
ATOM     18  N   UNL     1       0.852  10.977  19.049  0.00  0.00    +0.000 N 
ATOM     19  C   UNL     1       1.049  11.927  20.033  0.00  0.00    +0.000 C 
ATOM     20  O   UNL     1       1.458  11.645  21.157  0.00  0.00    +0.000 OA
ATOM     21  H   UNL     1       0.678  11.186  18.070  0.00  0.00    +0.000 HD
BRANCH  19  22
ATOM     22  C   UNL     1       0.753  13.344  19.685  0.00  0.00    +0.000 A 
ATOM     23  C   UNL     1       1.651  14.140  18.963  0.00  0.00    +0.000 A 
ATOM     24  C   UNL     1       1.294  15.445  18.600  0.00  0.00    +0.000 A 
ATOM     25  C   UNL     1       0.042  15.949  18.957  0.00  0.00    +0.000 A 
ATOM     26 BR   UNL     1      -0.448  17.697  18.433  0.00  0.00    +0.000 Br
ATOM     27  C   UNL     1      -0.856  15.166  19.679  0.00  0.00    +0.000 A 
ATOM     28  C   UNL     1      -0.502  13.864  20.038  0.00  0.00    +0.000 A 
ENDBRANCH  19  22
ENDBRANCH   3  18
TORSDOF 4
ENDMDL
MODEL 6
REMARK VINA RESULT:      -7.2      7.969      8.945
REMARK  Name = 
REMARK  5 active torsions:
REMARK  status: ('A' for Active; 'I' for Inactive)
REMARK    1  A    between atoms: C_1  and  O_2
REMARK    2  A    between atoms: O_2  and  C_3
REMARK    3  A    between atoms: C_9  and  C_10
REMARK    4  A    between atoms: N_12  and  N_13
REMARK    5  A    between atoms: C_14  and  C_16
REMARK                            x       y       z     vdW  Elec       q    Type
REMARK                         _______ _______ _______ _____ _____    ______ ____
ROOT
ATOM      1  C   UNL     1       1.138   8.785  19.947  0.00  0.00    +0.000 C 
ATOM      2  O   UNL     1       1.192   9.686  19.109  0.00  0.00    +0.000 OA
ATOM      3  N   UNL     1       0.403   8.905  21.104  0.00  0.00    +0.000 N 
ATOM      4  H   UNL     1       0.324   8.156  21.805  0.00  0.00    +0.000 HD
ENDROOT
BRANCH   1  11
ATOM      5  C   UNL     1       3.783   3.738  19.271  0.00  0.00    +0.000 A 
ATOM      6  C   UNL     1       3.489   2.703  20.164  0.00  0.00    +0.000 A 
ATOM      7  C   UNL     1       2.623   2.911  21.237  0.00  0.00    +0.000 A 
ATOM      8  C   UNL     1       2.013   4.156  21.417  0.00  0.00    +0.000 A 
ATOM      9  C   UNL     1       2.274   5.197  20.525  0.00  0.00    +0.000 A 
ATOM     10  C   UNL     1       1.617   6.496  20.644  0.00  0.00    +0.000 A 
ATOM     11  C   UNL     1       1.875   7.492  19.775  0.00  0.00    +0.000 A 
ATOM     12  C   UNL     1       2.856   7.287  18.690  0.00  0.00    +0.000 A 
ATOM     13  O   UNL     1       3.170   8.187  17.919  0.00  0.00    +0.000 OA
ATOM     14  O   UNL     1       3.414   6.026  18.565  0.00  0.00    +0.000 OA
ATOM     15  C   UNL     1       3.163   4.978  19.466  0.00  0.00    +0.000 A 
BRANCH   5  17
ATOM     16  C   UNL     1       4.061   3.333  16.940  0.00  0.00    +0.000 C 
ATOM     17  O   UNL     1       4.618   3.378  18.249  0.00  0.00    +0.000 OA
ENDBRANCH   5  17
ENDBRANCH   1  11
BRANCH   3  18
ATOM     18  N   UNL     1      -0.345  10.063  21.345  0.00  0.00    +0.000 N 
ATOM     19  C   UNL     1      -0.411  10.521  22.647  0.00  0.00    +0.000 C 
ATOM     20  O   UNL     1       0.148   9.950  23.581  0.00  0.00    +0.000 OA
ATOM     21  H   UNL     1      -0.649  10.590  20.531  0.00  0.00    +0.000 HD
BRANCH  19  22
ATOM     22  C   UNL     1      -1.192  11.763  22.897  0.00  0.00    +0.000 A 
ATOM     23  C   UNL     1      -0.690  13.036  22.593  0.00  0.00    +0.000 A 
ATOM     24  C   UNL     1      -1.493  14.167  22.781  0.00  0.00    +0.000 A 
ATOM     25  C   UNL     1      -2.793  14.026  23.270  0.00  0.00    +0.000 A 
ATOM     26 BR   UNL     1      -3.884  15.553  23.488  0.00  0.00    +0.000 Br
ATOM     27  C   UNL     1      -3.299  12.765  23.580  0.00  0.00    +0.000 A 
ATOM     28  C   UNL     1      -2.500  11.636  23.388  0.00  0.00    +0.000 A 
ENDBRANCH  19  22
ENDBRANCH   3  18
TORSDOF 4
ENDMDL
MODEL 7
REMARK VINA RESULT:      -7.2      8.879     10.167
REMARK  Name = 
REMARK  5 active torsions:
REMARK  status: ('A' for Active; 'I' for Inactive)
REMARK    1  A    between atoms: C_1  and  O_2
REMARK    2  A    between atoms: O_2  and  C_3
REMARK    3  A    between atoms: C_9  and  C_10
REMARK    4  A    between atoms: N_12  and  N_13
REMARK    5  A    between atoms: C_14  and  C_16
REMARK                            x       y       z     vdW  Elec       q    Type
REMARK                         _______ _______ _______ _____ _____    ______ ____
ROOT
ATOM      1  C   UNL     1       0.798  10.483  19.706  0.00  0.00    +0.000 C 
ATOM      2  O   UNL     1       1.465  11.195  18.954  0.00  0.00    +0.000 OA
ATOM      3  N   UNL     1       0.975   9.120  19.771  0.00  0.00    +0.000 N 
ATOM      4  H   UNL     1       0.447   8.510  20.408  0.00  0.00    +0.000 HD
ENDROOT
BRANCH   1  11
ATOM      5  C   UNL     1      -3.408  12.538  23.026  0.00  0.00    +0.000 A 
ATOM      6  C   UNL     1      -4.413  13.306  22.432  0.00  0.00    +0.000 A 
ATOM      7  C   UNL     1      -4.363  13.625  21.076  0.00  0.00    +0.000 A 
ATOM      8  C   UNL     1      -3.312  13.153  20.282  0.00  0.00    +0.000 A 
ATOM      9  C   UNL     1      -2.309  12.365  20.848  0.00  0.00    +0.000 A 
ATOM     10  C   UNL     1      -1.224  11.806  20.045  0.00  0.00    +0.000 A 
ATOM     11  C   UNL     1      -0.264  11.044  20.602  0.00  0.00    +0.000 A 
ATOM     12  C   UNL     1      -0.283  10.781  22.055  0.00  0.00    +0.000 A 
ATOM     13  O   UNL     1       0.608  10.150  22.613  0.00  0.00    +0.000 OA
ATOM     14  O   UNL     1      -1.357  11.270  22.778  0.00  0.00    +0.000 OA
ATOM     15  C   UNL     1      -2.364  12.073  22.216  0.00  0.00    +0.000 A 
BRANCH   5  17
ATOM     16  C   UNL     1      -4.939  12.397  24.845  0.00  0.00    +0.000 C 
ATOM     17  O   UNL     1      -3.610  12.274  24.353  0.00  0.00    +0.000 OA
ENDBRANCH   5  17
ENDBRANCH   1  11
BRANCH   3  18
ATOM     18  N   UNL     1       1.963   8.502  18.995  0.00  0.00    +0.000 N 
ATOM     19  C   UNL     1       2.360   7.230  19.361  0.00  0.00    +0.000 C 
ATOM     20  O   UNL     1       1.889   6.641  20.331  0.00  0.00    +0.000 OA
ATOM     21  H   UNL     1       2.202   8.952  18.115  0.00  0.00    +0.000 HD
BRANCH  19  22
ATOM     22  C   UNL     1       3.397   6.569  18.522  0.00  0.00    +0.000 A 
ATOM     23  C   UNL     1       3.887   7.148  17.344  0.00  0.00    +0.000 A 
ATOM     24  C   UNL     1       4.913   6.518  16.630  0.00  0.00    +0.000 A 
ATOM     25  C   UNL     1       5.447   5.314  17.093  0.00  0.00    +0.000 A 
ATOM     26 BR   UNL     1       6.856   4.486  16.144  0.00  0.00    +0.000 Br
ATOM     27  C   UNL     1       4.962   4.728  18.260  0.00  0.00    +0.000 A 
ATOM     28  C   UNL     1       3.941   5.358  18.975  0.00  0.00    +0.000 A 
ENDBRANCH  19  22
ENDBRANCH   3  18
TORSDOF 4
ENDMDL
MODEL 8
REMARK VINA RESULT:      -7.2      9.211     11.430
REMARK  Name = 
REMARK  5 active torsions:
REMARK  status: ('A' for Active; 'I' for Inactive)
REMARK    1  A    between atoms: C_1  and  O_2
REMARK    2  A    between atoms: O_2  and  C_3
REMARK    3  A    between atoms: C_9  and  C_10
REMARK    4  A    between atoms: N_12  and  N_13
REMARK    5  A    between atoms: C_14  and  C_16
REMARK                            x       y       z     vdW  Elec       q    Type
REMARK                         _______ _______ _______ _____ _____    ______ ____
ROOT
ATOM      1  C   UNL     1      -0.047   9.236  21.815  0.00  0.00    +0.000 C 
ATOM      2  O   UNL     1      -0.920   8.369  21.768  0.00  0.00    +0.000 OA
ATOM      3  N   UNL     1       1.283   8.948  21.609  0.00  0.00    +0.000 N 
ATOM      4  H   UNL     1       2.025   9.660  21.620  0.00  0.00    +0.000 HD
ENDROOT
BRANCH   1  11
ATOM      5  C   UNL     1      -1.254  14.688  23.139  0.00  0.00    +0.000 A 
ATOM      6  C   UNL     1      -2.396  14.954  23.900  0.00  0.00    +0.000 A 
ATOM      7  C   UNL     1      -3.262  13.927  24.273  0.00  0.00    +0.000 A 
ATOM      8  C   UNL     1      -2.981  12.606  23.912  0.00  0.00    +0.000 A 
ATOM      9  C   UNL     1      -1.834  12.313  23.172  0.00  0.00    +0.000 A 
ATOM     10  C   UNL     1      -1.474  10.942  22.820  0.00  0.00    +0.000 A 
ATOM     11  C   UNL     1      -0.363  10.671  22.110  0.00  0.00    +0.000 A 
ATOM     12  C   UNL     1       0.504  11.775  21.650  0.00  0.00    +0.000 A 
ATOM     13  O   UNL     1       1.487  11.579  20.943  0.00  0.00    +0.000 OA
ATOM     14  O   UNL     1       0.171  13.057  22.052  0.00  0.00    +0.000 OA
ATOM     15  C   UNL     1      -0.987  13.359  22.787  0.00  0.00    +0.000 A 
BRANCH   5  17
ATOM     16  C   UNL     1      -0.774  16.974  23.609  0.00  0.00    +0.000 C 
ATOM     17  O   UNL     1      -0.481  15.787  22.881  0.00  0.00    +0.000 OA
ENDBRANCH   5  17
ENDBRANCH   1  11
BRANCH   3  18
ATOM     18  N   UNL     1       1.679   7.642  21.298  0.00  0.00    +0.000 N 
ATOM     19  C   UNL     1       1.981   7.363  19.979  0.00  0.00    +0.000 C 
ATOM     20  O   UNL     1       1.906   8.206  19.088  0.00  0.00    +0.000 OA
ATOM     21  H   UNL     1       1.885   7.027  22.081  0.00  0.00    +0.000 HD
BRANCH  19  22
ATOM     22  C   UNL     1       2.419   5.978  19.655  0.00  0.00    +0.000 A 
ATOM     23  C   UNL     1       2.337   4.931  20.583  0.00  0.00    +0.000 A 
ATOM     24  C   UNL     1       2.697   3.632  20.204  0.00  0.00    +0.000 A 
ATOM     25  C   UNL     1       3.136   3.381  18.903  0.00  0.00    +0.000 A 
ATOM     26 BR   UNL     1       3.586   1.619  18.389  0.00  0.00    +0.000 Br
ATOM     27  C   UNL     1       3.226   4.417  17.976  0.00  0.00    +0.000 A 
ATOM     28  C   UNL     1       2.864   5.712  18.351  0.00  0.00    +0.000 A 
ENDBRANCH  19  22
ENDBRANCH   3  18
TORSDOF 4
ENDMDL
MODEL 9
REMARK VINA RESULT:      -7.2      7.739      8.780
REMARK  Name = 
REMARK  5 active torsions:
REMARK  status: ('A' for Active; 'I' for Inactive)
REMARK    1  A    between atoms: C_1  and  O_2
REMARK    2  A    between atoms: O_2  and  C_3
REMARK    3  A    between atoms: C_9  and  C_10
REMARK    4  A    between atoms: N_12  and  N_13
REMARK    5  A    between atoms: C_14  and  C_16
REMARK                            x       y       z     vdW  Elec       q    Type
REMARK                         _______ _______ _______ _____ _____    ______ ____
ROOT
ATOM      1  C   UNL     1       1.221   8.487  20.369  0.00  0.00    +0.000 C 
ATOM      2  O   UNL     1       1.016   8.127  21.528  0.00  0.00    +0.000 OA
ATOM      3  N   UNL     1       0.610   9.595  19.827  0.00  0.00    +0.000 N 
ATOM      4  H   UNL     1       0.784   9.927  18.870  0.00  0.00    +0.000 HD
ENDROOT
BRANCH   1  11
ATOM      5  C   UNL     1       4.617   5.485  16.850  0.00  0.00    +0.000 A 
ATOM      6  C   UNL     1       4.989   4.190  17.223  0.00  0.00    +0.000 A 
ATOM      7  C   UNL     1       4.600   3.661  18.453  0.00  0.00    +0.000 A 
ATOM      8  C   UNL     1       3.806   4.415  19.322  0.00  0.00    +0.000 A 
ATOM      9  C   UNL     1       3.403   5.702  18.961  0.00  0.00    +0.000 A 
ATOM     10  C   UNL     1       2.528   6.502  19.814  0.00  0.00    +0.000 A 
ATOM     11  C   UNL     1       2.144   7.741  19.453  0.00  0.00    +0.000 A 
ATOM     12  C   UNL     1       2.628   8.322  18.185  0.00  0.00    +0.000 A 
ATOM     13  O   UNL     1       2.358   9.471  17.851  0.00  0.00    +0.000 OA
ATOM     14  O   UNL     1       3.404   7.517  17.369  0.00  0.00    +0.000 OA
ATOM     15  C   UNL     1       3.821   6.225  17.732  0.00  0.00    +0.000 A 
BRANCH   5  17
ATOM     16  C   UNL     1       6.224   5.240  15.107  0.00  0.00    +0.000 C 
ATOM     17  O   UNL     1       5.039   5.854  15.602  0.00  0.00    +0.000 OA
ENDBRANCH   5  17
ENDBRANCH   1  11
BRANCH   3  18
ATOM     18  N   UNL     1      -0.248  10.377  20.610  0.00  0.00    +0.000 N 
ATOM     19  C   UNL     1       0.285  11.496  21.219  0.00  0.00    +0.000 C 
ATOM     20  O   UNL     1       1.467  11.815  21.104  0.00  0.00    +0.000 OA
ATOM     21  H   UNL     1      -1.242  10.173  20.543  0.00  0.00    +0.000 HD
BRANCH  19  22
ATOM     22  C   UNL     1      -0.634  12.335  22.034  0.00  0.00    +0.000 A 
ATOM     23  C   UNL     1      -1.808  11.824  22.602  0.00  0.00    +0.000 A 
ATOM     24  C   UNL     1      -2.602  12.637  23.420  0.00  0.00    +0.000 A 
ATOM     25  C   UNL     1      -2.221  13.957  23.670  0.00  0.00    +0.000 A 
ATOM     26 BR   UNL     1      -3.277  15.039  24.803  0.00  0.00    +0.000 Br
ATOM     27  C   UNL     1      -1.058  14.476  23.105  0.00  0.00    +0.000 A 
ATOM     28  C   UNL     1      -0.264  13.664  22.293  0.00  0.00    +0.000 A 
ENDBRANCH  19  22
ENDBRANCH   3  18
TORSDOF 4
ENDMDL
