MODEL 1
REMARK VINA RESULT:      -8.0      0.000      0.000
REMARK  Name = 
REMARK  4 active torsions:
REMARK  status: ('A' for Active; 'I' for Inactive)
REMARK    1  A    between atoms: C_1  and  C_2
REMARK    2  A    between atoms: C_2  and  C_3
REMARK    3  A    between atoms: C_10  and  C_11
REMARK    4  A    between atoms: C_12  and  C_13
REMARK                            x       y       z     vdW  Elec       q    Type
REMARK                         _______ _______ _______ _____ _____    ______ ____
ROOT
ATOM      1  C   UNL     1       4.881   6.348  17.318  0.00  0.00    +0.000 C 
ATOM      2  C   UNL     1       6.322   6.115  16.837  0.00  0.00    +0.000 C 
ATOM      3  O   UNL     1       6.908   7.432  16.639  0.00  0.00    +0.000 OA
ATOM      4  C   UNL     1       7.707   7.673  17.754  0.00  0.00    +0.000 C 
ATOM      5  C   UNL     1       7.963   6.648  18.563  0.00  0.00    +0.000 C 
ATOM      6  C   UNL     1       7.168   5.577  17.974  0.00  0.00    +0.000 C 
ATOM      7  O   UNL     1       7.169   4.446  18.436  0.00  0.00    +0.000 OA
ENDROOT
BRANCH   2   8
ATOM      8  C   UNL     1       6.334   5.250  15.581  0.00  0.00    +0.000 A 
ATOM      9  C   UNL     1       7.362   5.326  14.628  0.00  0.00    +0.000 A 
ATOM     10  C   UNL     1       7.284   4.598  13.433  0.00  0.00    +0.000 A 
ATOM     11  C   UNL     1       6.184   3.785  13.173  0.00  0.00    +0.000 A 
ATOM     12  C   UNL     1       5.170   3.672  14.117  0.00  0.00    +0.000 A 
ATOM     13  C   UNL     1       5.250   4.389  15.311  0.00  0.00    +0.000 A 
ENDBRANCH   2   8
BRANCH   4  14
ATOM     14  C   UNL     1       8.167   9.027  17.972  0.00  0.00    +0.000 C 
ATOM     15  C   UNL     1       9.000   9.402  18.960  0.00  0.00    +0.000 C 
BRANCH  15  16
ATOM     16  C   UNL     1       9.499  10.726  19.199  0.00  0.00    +0.000 A 
ATOM     17  C   UNL     1       9.961  11.675  18.233  0.00  0.00    +0.000 A 
ATOM     18  C   UNL     1      10.355  12.865  18.810  0.00  0.00    +0.000 A 
ATOM     19  S   UNL     1      10.194  12.839  20.510  0.00  0.00    +0.000 S 
ATOM     20  C   UNL     1       9.591  11.238  20.480  0.00  0.00    +0.000 A 
ENDBRANCH  15  16
ENDBRANCH   4  14
TORSDOF 3
ENDMDL
MODEL 2
REMARK VINA RESULT:      -7.8      0.568      1.407
REMARK  Name = 
REMARK  4 active torsions:
REMARK  status: ('A' for Active; 'I' for Inactive)
REMARK    1  A    between atoms: C_1  and  C_2
REMARK    2  A    between atoms: C_2  and  C_3
REMARK    3  A    between atoms: C_10  and  C_11
REMARK    4  A    between atoms: C_12  and  C_13
REMARK                            x       y       z     vdW  Elec       q    Type
REMARK                         _______ _______ _______ _____ _____    ______ ____
ROOT
ATOM      1  C   UNL     1       4.875   6.434  17.498  0.00  0.00    +0.000 C 
ATOM      2  C   UNL     1       6.275   6.235  16.897  0.00  0.00    +0.000 C 
ATOM      3  O   UNL     1       6.827   7.566  16.692  0.00  0.00    +0.000 OA
ATOM      4  C   UNL     1       7.709   7.787  17.747  0.00  0.00    +0.000 C 
ATOM      5  C   UNL     1       8.042   6.744  18.503  0.00  0.00    +0.000 C 
ATOM      6  C   UNL     1       7.216   5.679  17.947  0.00  0.00    +0.000 C 
ATOM      7  O   UNL     1       7.268   4.535  18.375  0.00  0.00    +0.000 OA
ENDROOT
BRANCH   2   8
ATOM      8  C   UNL     1       6.198   5.406  15.619  0.00  0.00    +0.000 A 
ATOM      9  C   UNL     1       5.140   4.521  15.362  0.00  0.00    +0.000 A 
ATOM     10  C   UNL     1       5.159   3.694  14.231  0.00  0.00    +0.000 A 
ATOM     11  C   UNL     1       6.230   3.739  13.342  0.00  0.00    +0.000 A 
ATOM     12  C   UNL     1       7.274   4.630  13.563  0.00  0.00    +0.000 A 
ATOM     13  C   UNL     1       7.252   5.461  14.684  0.00  0.00    +0.000 A 
ENDBRANCH   2   8
BRANCH   4  14
ATOM     14  C   UNL     1       8.169   9.141  17.967  0.00  0.00    +0.000 C 
ATOM     15  C   UNL     1       9.000   9.516  18.956  0.00  0.00    +0.000 C 
BRANCH  15  16
ATOM     16  C   UNL     1       9.499  10.839  19.198  0.00  0.00    +0.000 A 
ATOM     17  C   UNL     1      10.027  11.366  20.419  0.00  0.00    +0.000 A 
ATOM     18  C   UNL     1      10.437  12.677  20.293  0.00  0.00    +0.000 A 
ATOM     19  S   UNL     1      10.169  13.287  18.720  0.00  0.00    +0.000 S 
ATOM     20  C   UNL     1       9.509  11.796  18.200  0.00  0.00    +0.000 A 
ENDBRANCH  15  16
ENDBRANCH   4  14
TORSDOF 3
ENDMDL
MODEL 3
REMARK VINA RESULT:      -7.5      0.661      1.289
REMARK  Name = 
REMARK  4 active torsions:
REMARK  status: ('A' for Active; 'I' for Inactive)
REMARK    1  A    between atoms: C_1  and  C_2
REMARK    2  A    between atoms: C_2  and  C_3
REMARK    3  A    between atoms: C_10  and  C_11
REMARK    4  A    between atoms: C_12  and  C_13
REMARK                            x       y       z     vdW  Elec       q    Type
REMARK                         _______ _______ _______ _____ _____    ______ ____
ROOT
ATOM      1  C   UNL     1       4.858   6.559  17.326  0.00  0.00    +0.000 C 
ATOM      2  C   UNL     1       6.269   6.089  16.938  0.00  0.00    +0.000 C 
ATOM      3  O   UNL     1       7.113   7.275  16.944  0.00  0.00    +0.000 OA
ATOM      4  C   UNL     1       7.825   7.238  18.141  0.00  0.00    +0.000 C 
ATOM      5  C   UNL     1       7.797   6.107  18.842  0.00  0.00    +0.000 C 
ATOM      6  C   UNL     1       6.877   5.282  18.068  0.00  0.00    +0.000 C 
ATOM      7  O   UNL     1       6.614   4.134  18.393  0.00  0.00    +0.000 OA
ENDROOT
BRANCH   2   8
ATOM      8  C   UNL     1       6.244   5.369  15.594  0.00  0.00    +0.000 A 
ATOM      9  C   UNL     1       5.182   4.537  15.208  0.00  0.00    +0.000 A 
ATOM     10  C   UNL     1       5.244   3.805  14.015  0.00  0.00    +0.000 A 
ATOM     11  C   UNL     1       6.363   3.892  13.192  0.00  0.00    +0.000 A 
ATOM     12  C   UNL     1       7.414   4.732  13.541  0.00  0.00    +0.000 A 
ATOM     13  C   UNL     1       7.350   5.470  14.724  0.00  0.00    +0.000 A 
ENDBRANCH   2   8
BRANCH   4  14
ATOM     14  C   UNL     1       8.511   8.443  18.553  0.00  0.00    +0.000 C 
ATOM     15  C   UNL     1       8.404   9.634  17.936  0.00  0.00    +0.000 C 
BRANCH  15  16
ATOM     16  C   UNL     1       9.046  10.857  18.323  0.00  0.00    +0.000 A 
ATOM     17  C   UNL     1       8.852  12.161  17.766  0.00  0.00    +0.000 A 
ATOM     18  C   UNL     1       9.620  13.121  18.393  0.00  0.00    +0.000 A 
ATOM     19  S   UNL     1      10.589  12.459  19.634  0.00  0.00    +0.000 S 
ATOM     20  C   UNL     1       9.981  10.886  19.340  0.00  0.00    +0.000 A 
ENDBRANCH  15  16
ENDBRANCH   4  14
TORSDOF 3
ENDMDL
MODEL 4
REMARK VINA RESULT:      -7.5      5.147      6.815
REMARK  Name = 
REMARK  4 active torsions:
REMARK  status: ('A' for Active; 'I' for Inactive)
REMARK    1  A    between atoms: C_1  and  C_2
REMARK    2  A    between atoms: C_2  and  C_3
REMARK    3  A    between atoms: C_10  and  C_11
REMARK    4  A    between atoms: C_12  and  C_13
REMARK                            x       y       z     vdW  Elec       q    Type
REMARK                         _______ _______ _______ _____ _____    ______ ____
ROOT
ATOM      1  C   UNL     1       1.628   4.255  17.639  0.00  0.00    +0.000 C 
ATOM      2  C   UNL     1       2.804   4.909  18.379  0.00  0.00    +0.000 C 
ATOM      3  O   UNL     1       2.306   6.170  18.909  0.00  0.00    +0.000 OA
ATOM      4  C   UNL     1       2.051   5.950  20.260  0.00  0.00    +0.000 C 
ATOM      5  C   UNL     1       2.520   4.829  20.803  0.00  0.00    +0.000 C 
ATOM      6  C   UNL     1       3.104   4.146  19.654  0.00  0.00    +0.000 C 
ATOM      7  O   UNL     1       3.670   3.069  19.766  0.00  0.00    +0.000 OA
ENDROOT
BRANCH   2   8
ATOM      8  C   UNL     1       4.001   5.072  17.448  0.00  0.00    +0.000 A 
ATOM      9  C   UNL     1       4.441   4.041  16.604  0.00  0.00    +0.000 A 
ATOM     10  C   UNL     1       5.609   4.188  15.845  0.00  0.00    +0.000 A 
ATOM     11  C   UNL     1       6.353   5.363  15.915  0.00  0.00    +0.000 A 
ATOM     12  C   UNL     1       5.918   6.408  16.722  0.00  0.00    +0.000 A 
ATOM     13  C   UNL     1       4.750   6.267  17.472  0.00  0.00    +0.000 A 
ENDBRANCH   2   8
BRANCH   4  14
ATOM     14  C   UNL     1       1.263   6.937  20.966  0.00  0.00    +0.000 C 
ATOM     15  C   UNL     1       1.359   8.266  20.783  0.00  0.00    +0.000 C 
BRANCH  15  16
ATOM     16  C   UNL     1       0.583   9.277  21.442  0.00  0.00    +0.000 A 
ATOM     17  C   UNL     1      -0.182   9.149  22.644  0.00  0.00    +0.000 A 
ATOM     18  C   UNL     1      -0.792  10.331  23.009  0.00  0.00    +0.000 A 
ATOM     19  S   UNL     1      -0.466  11.592  21.904  0.00  0.00    +0.000 S 
ATOM     20  C   UNL     1       0.496  10.560  20.934  0.00  0.00    +0.000 A 
ENDBRANCH  15  16
ENDBRANCH   4  14
TORSDOF 3
ENDMDL
MODEL 5
REMARK VINA RESULT:      -7.5      0.954      1.676
REMARK  Name = 
REMARK  4 active torsions:
REMARK  status: ('A' for Active; 'I' for Inactive)
REMARK    1  A    between atoms: C_1  and  C_2
REMARK    2  A    between atoms: C_2  and  C_3
REMARK    3  A    between atoms: C_10  and  C_11
REMARK    4  A    between atoms: C_12  and  C_13
REMARK                            x       y       z     vdW  Elec       q    Type
REMARK                         _______ _______ _______ _____ _____    ______ ____
ROOT
ATOM      1  C   UNL     1       4.764   6.632  16.374  0.00  0.00    +0.000 C 
ATOM      2  C   UNL     1       6.133   5.944  16.268  0.00  0.00    +0.000 C 
ATOM      3  O   UNL     1       7.132   6.978  16.495  0.00  0.00    +0.000 OA
ATOM      4  C   UNL     1       7.562   6.822  17.810  0.00  0.00    +0.000 C 
ATOM      5  C   UNL     1       7.210   5.706  18.446  0.00  0.00    +0.000 C 
ATOM      6  C   UNL     1       6.356   5.044  17.468  0.00  0.00    +0.000 C 
ATOM      7  O   UNL     1       5.855   3.951  17.687  0.00  0.00    +0.000 OA
ENDROOT
BRANCH   2   8
ATOM      8  C   UNL     1       6.279   5.243  14.921  0.00  0.00    +0.000 A 
ATOM      9  C   UNL     1       5.344   4.305  14.458  0.00  0.00    +0.000 A 
ATOM     10  C   UNL     1       5.567   3.600  13.268  0.00  0.00    +0.000 A 
ATOM     11  C   UNL     1       6.723   3.820  12.524  0.00  0.00    +0.000 A 
ATOM     12  C   UNL     1       7.649   4.766  12.950  0.00  0.00    +0.000 A 
ATOM     13  C   UNL     1       7.423   5.477  14.130  0.00  0.00    +0.000 A 
ENDBRANCH   2   8
BRANCH   4  14
ATOM     14  C   UNL     1       8.325   7.898  18.401  0.00  0.00    +0.000 C 
ATOM     15  C   UNL     1       8.252   9.187  18.021  0.00  0.00    +0.000 C 
BRANCH  15  16
ATOM     16  C   UNL     1       8.971  10.289  18.593  0.00  0.00    +0.000 A 
ATOM     17  C   UNL     1       9.424  10.432  19.943  0.00  0.00    +0.000 A 
ATOM     18  C   UNL     1      10.104  11.615  20.148  0.00  0.00    +0.000 A 
ATOM     19  S   UNL     1      10.183  12.565  18.730  0.00  0.00    +0.000 S 
ATOM     20  C   UNL     1       9.311  11.394  17.836  0.00  0.00    +0.000 A 
ENDBRANCH  15  16
ENDBRANCH   4  14
TORSDOF 3
ENDMDL
MODEL 6
REMARK VINA RESULT:      -7.5      5.108      6.819
REMARK  Name = 
REMARK  4 active torsions:
REMARK  status: ('A' for Active; 'I' for Inactive)
REMARK    1  A    between atoms: C_1  and  C_2
REMARK    2  A    between atoms: C_2  and  C_3
REMARK    3  A    between atoms: C_10  and  C_11
REMARK    4  A    between atoms: C_12  and  C_13
REMARK                            x       y       z     vdW  Elec       q    Type
REMARK                         _______ _______ _______ _____ _____    ______ ____
ROOT
ATOM      1  C   UNL     1       2.024   4.234  17.599  0.00  0.00    +0.000 C 
ATOM      2  C   UNL     1       3.064   4.578  18.675  0.00  0.00    +0.000 C 
ATOM      3  O   UNL     1       2.690   5.880  19.207  0.00  0.00    +0.000 OA
ATOM      4  C   UNL     1       2.052   5.635  20.420  0.00  0.00    +0.000 C 
ATOM      5  C   UNL     1       2.142   4.409  20.929  0.00  0.00    +0.000 C 
ATOM      6  C   UNL     1       2.868   3.691  19.889  0.00  0.00    +0.000 C 
ATOM      7  O   UNL     1       3.172   2.513  20.012  0.00  0.00    +0.000 OA
ENDROOT
BRANCH   2   8
ATOM      8  C   UNL     1       4.473   4.542  18.092  0.00  0.00    +0.000 A 
ATOM      9  C   UNL     1       5.597   4.968  18.817  0.00  0.00    +0.000 A 
ATOM     10  C   UNL     1       6.858   5.025  18.211  0.00  0.00    +0.000 A 
ATOM     11  C   UNL     1       7.018   4.659  16.877  0.00  0.00    +0.000 A 
ATOM     12  C   UNL     1       5.923   4.207  16.150  0.00  0.00    +0.000 A 
ATOM     13  C   UNL     1       4.667   4.140  16.754  0.00  0.00    +0.000 A 
ENDBRANCH   2   8
BRANCH   4  14
ATOM     14  C   UNL     1       1.306   6.720  21.019  0.00  0.00    +0.000 C 
ATOM     15  C   UNL     1       1.486   8.022  20.733  0.00  0.00    +0.000 C 
BRANCH  15  16
ATOM     16  C   UNL     1       0.755   9.127  21.284  0.00  0.00    +0.000 A 
ATOM     17  C   UNL     1      -0.021   9.151  22.486  0.00  0.00    +0.000 A 
ATOM     18  C   UNL     1      -0.577  10.390  22.730  0.00  0.00    +0.000 A 
ATOM     19  S   UNL     1      -0.188  11.521  21.510  0.00  0.00    +0.000 S 
ATOM     20  C   UNL     1       0.730  10.357  20.653  0.00  0.00    +0.000 A 
ENDBRANCH  15  16
ENDBRANCH   4  14
TORSDOF 3
ENDMDL
MODEL 7
REMARK VINA RESULT:      -7.3      4.968      6.663
REMARK  Name = 
REMARK  4 active torsions:
REMARK  status: ('A' for Active; 'I' for Inactive)
REMARK    1  A    between atoms: C_1  and  C_2
REMARK    2  A    between atoms: C_2  and  C_3
REMARK    3  A    between atoms: C_10  and  C_11
REMARK    4  A    between atoms: C_12  and  C_13
REMARK                            x       y       z     vdW  Elec       q    Type
REMARK                         _______ _______ _______ _____ _____    ______ ____
ROOT
ATOM      1  C   UNL     1       2.213   3.808  17.567  0.00  0.00    +0.000 C 
ATOM      2  C   UNL     1       3.285   4.437  18.471  0.00  0.00    +0.000 C 
ATOM      3  O   UNL     1       2.766   5.732  18.885  0.00  0.00    +0.000 OA
ATOM      4  C   UNL     1       2.291   5.563  20.183  0.00  0.00    +0.000 C 
ATOM      5  C   UNL     1       2.618   4.441  20.819  0.00  0.00    +0.000 C 
ATOM      6  C   UNL     1       3.345   3.701  19.795  0.00  0.00    +0.000 C 
ATOM      7  O   UNL     1       3.837   2.605  20.020  0.00  0.00    +0.000 OA
ENDROOT
BRANCH   2   8
ATOM      8  C   UNL     1       4.620   4.523  17.739  0.00  0.00    +0.000 A 
ATOM      9  C   UNL     1       4.775   4.106  16.408  0.00  0.00    +0.000 A 
ATOM     10  C   UNL     1       6.038   4.097  15.804  0.00  0.00    +0.000 A 
ATOM     11  C   UNL     1       7.164   4.503  16.516  0.00  0.00    +0.000 A 
ATOM     12  C   UNL     1       7.029   4.947  17.826  0.00  0.00    +0.000 A 
ATOM     13  C   UNL     1       5.769   4.966  18.427  0.00  0.00    +0.000 A 
ENDBRANCH   2   8
BRANCH   4  14
ATOM     14  C   UNL     1       1.446   6.602  20.731  0.00  0.00    +0.000 C 
ATOM     15  C   UNL     1       1.599   7.917  20.493  0.00  0.00    +0.000 C 
BRANCH  15  16
ATOM     16  C   UNL     1       0.773   8.977  20.995  0.00  0.00    +0.000 A 
ATOM     17  C   UNL     1       0.166  10.041  20.253  0.00  0.00    +0.000 A 
ATOM     18  C   UNL     1      -0.583  10.879  21.052  0.00  0.00    +0.000 A 
ATOM     19  S   UNL     1      -0.546  10.407  22.693  0.00  0.00    +0.000 S 
ATOM     20  C   UNL     1       0.470   9.076  22.340  0.00  0.00    +0.000 A 
ENDBRANCH  15  16
ENDBRANCH   4  14
TORSDOF 3
ENDMDL
MODEL 8
REMARK VINA RESULT:      -7.2      4.109      5.113
REMARK  Name = 
REMARK  4 active torsions:
REMARK  status: ('A' for Active; 'I' for Inactive)
REMARK    1  A    between atoms: C_1  and  C_2
REMARK    2  A    between atoms: C_2  and  C_3
REMARK    3  A    between atoms: C_10  and  C_11
REMARK    4  A    between atoms: C_12  and  C_13
REMARK                            x       y       z     vdW  Elec       q    Type
REMARK                         _______ _______ _______ _____ _____    ______ ____
ROOT
ATOM      1  C   UNL     1       5.002   3.495  16.260  0.00  0.00    +0.000 C 
ATOM      2  C   UNL     1       5.803   4.721  15.796  0.00  0.00    +0.000 C 
ATOM      3  O   UNL     1       4.898   5.858  15.876  0.00  0.00    +0.000 OA
ATOM      4  C   UNL     1       5.231   6.539  17.044  0.00  0.00    +0.000 C 
ATOM      5  C   UNL     1       6.368   6.204  17.651  0.00  0.00    +0.000 C 
ATOM      6  C   UNL     1       6.840   5.090  16.838  0.00  0.00    +0.000 C 
ATOM      7  O   UNL     1       7.897   4.523  17.075  0.00  0.00    +0.000 OA
ENDROOT
BRANCH   2   8
ATOM      8  C   UNL     1       6.370   4.494  14.398  0.00  0.00    +0.000 A 
ATOM      9  C   UNL     1       7.418   5.269  13.878  0.00  0.00    +0.000 A 
ATOM     10  C   UNL     1       7.838   5.105  12.552  0.00  0.00    +0.000 A 
ATOM     11  C   UNL     1       7.222   4.168  11.727  0.00  0.00    +0.000 A 
ATOM     12  C   UNL     1       6.202   3.369  12.231  0.00  0.00    +0.000 A 
ATOM     13  C   UNL     1       5.789   3.524  13.555  0.00  0.00    +0.000 A 
ENDBRANCH   2   8
BRANCH   4  14
ATOM     14  C   UNL     1       4.300   7.530  17.534  0.00  0.00    +0.000 C 
ATOM     15  C   UNL     1       3.113   7.251  18.102  0.00  0.00    +0.000 C 
BRANCH  15  16
ATOM     16  C   UNL     1       2.170   8.199  18.622  0.00  0.00    +0.000 A 
ATOM     17  C   UNL     1       1.537   9.277  17.925  0.00  0.00    +0.000 A 
ATOM     18  C   UNL     1       0.666   9.984  18.728  0.00  0.00    +0.000 A 
ATOM     19  S   UNL     1       0.620   9.373  20.322  0.00  0.00    +0.000 S 
ATOM     20  C   UNL     1       1.763   8.156  19.943  0.00  0.00    +0.000 A 
ENDBRANCH  15  16
ENDBRANCH   4  14
TORSDOF 3
ENDMDL
MODEL 9
REMARK VINA RESULT:      -7.1      5.234      6.790
REMARK  Name = 
REMARK  4 active torsions:
REMARK  status: ('A' for Active; 'I' for Inactive)
REMARK    1  A    between atoms: C_1  and  C_2
REMARK    2  A    between atoms: C_2  and  C_3
REMARK    3  A    between atoms: C_10  and  C_11
REMARK    4  A    between atoms: C_12  and  C_13
REMARK                            x       y       z     vdW  Elec       q    Type
REMARK                         _______ _______ _______ _____ _____    ______ ____
ROOT
ATOM      1  C   UNL     1       1.799   4.601  17.579  0.00  0.00    +0.000 C 
ATOM      2  C   UNL     1       3.007   5.282  18.240  0.00  0.00    +0.000 C 
ATOM      3  O   UNL     1       2.639   6.677  18.433  0.00  0.00    +0.000 OA
ATOM      4  C   UNL     1       2.294   6.805  19.776  0.00  0.00    +0.000 C 
ATOM      5  C   UNL     1       2.597   5.796  20.591  0.00  0.00    +0.000 C 
ATOM      6  C   UNL     1       3.150   4.808  19.673  0.00  0.00    +0.000 C 
ATOM      7  O   UNL     1       3.576   3.732  20.066  0.00  0.00    +0.000 OA
ENDROOT
BRANCH   2   8
ATOM      8  C   UNL     1       4.259   5.096  17.389  0.00  0.00    +0.000 A 
ATOM      9  C   UNL     1       5.205   6.119  17.213  0.00  0.00    +0.000 A 
ATOM     10  C   UNL     1       6.285   5.950  16.337  0.00  0.00    +0.000 A 
ATOM     11  C   UNL     1       6.437   4.763  15.625  0.00  0.00    +0.000 A 
ATOM     12  C   UNL     1       5.528   3.728  15.806  0.00  0.00    +0.000 A 
ATOM     13  C   UNL     1       4.457   3.890  16.687  0.00  0.00    +0.000 A 
ENDBRANCH   2   8
BRANCH   4  14
ATOM     14  C   UNL     1       1.597   8.006  20.181  0.00  0.00    +0.000 C 
ATOM     15  C   UNL     1       0.821   8.109  21.274  0.00  0.00    +0.000 C 
BRANCH  15  16
ATOM     16  C   UNL     1       0.131   9.284  21.725  0.00  0.00    +0.000 A 
ATOM     17  C   UNL     1      -0.434   9.525  23.017  0.00  0.00    +0.000 A 
ATOM     18  C   UNL     1      -1.010  10.775  23.115  0.00  0.00    +0.000 A 
ATOM     19  S   UNL     1      -0.894  11.653  21.654  0.00  0.00    +0.000 S 
ATOM     20  C   UNL     1      -0.068  10.365  20.887  0.00  0.00    +0.000 A 
ENDBRANCH  15  16
ENDBRANCH   4  14
TORSDOF 3
ENDMDL
