MODEL 1
REMARK VINA RESULT:      -8.1      0.000      0.000
REMARK  Name = 
REMARK  6 active torsions:
REMARK  status: ('A' for Active; 'I' for Inactive)
REMARK    1  A    between atoms: C_1  and  C_2
REMARK    2  A    between atoms: C_3  and  S_4
REMARK    3  A    between atoms: S_4  and  N_7
REMARK    4  A    between atoms: N_7  and  C_8
REMARK    5  A    between atoms: N_20  and  C_21
REMARK    6  A    between atoms: N_24  and  C_25
REMARK                            x       y       z     vdW  Elec       q    Type
REMARK                         _______ _______ _______ _____ _____    ______ ____
ROOT
ATOM      1  S   UNL     1       2.936   4.622  19.391  0.00  0.00    +0.000 S 
ATOM      2  O   UNL     1       1.715   4.637  18.604  0.00  0.00    +0.000 OA
ATOM      3  O   UNL     1       3.009   3.588  20.407  0.00  0.00    +0.000 OA
ENDROOT
BRANCH   1   6
ATOM      4  C   UNL     1       3.237   3.319  16.416  0.00  0.00    +0.000 C 
ATOM      5  C   UNL     1       4.363   4.074  17.100  0.00  0.00    +0.000 A 
ATOM      6  C   UNL     1       4.324   4.616  18.336  0.00  0.00    +0.000 A 
ATOM      7  C   UNL     1       5.551   5.227  18.897  0.00  0.00    +0.000 A 
ATOM      8  O   UNL     1       5.652   5.474  20.096  0.00  0.00    +0.000 OA
ATOM      9  N   UNL     1       6.602   5.433  18.022  0.00  0.00    +0.000 N 
ATOM     10  C   UNL     1       7.800   6.097  18.504  0.00  0.00    +0.000 C 
ATOM     11  C   UNL     1       6.682   4.862  16.765  0.00  0.00    +0.000 A 
ATOM     12  O   UNL     1       7.705   4.942  16.083  0.00  0.00    +0.000 OA
ATOM     13  N   UNL     1       5.546   4.174  16.337  0.00  0.00    +0.000 N 
ATOM     14  C   UNL     1       5.625   3.577  14.999  0.00  0.00    +0.000 C 
ENDBRANCH   1   6
BRANCH   1  15
ATOM     15  N   UNL     1       2.922   6.093  20.251  0.00  0.00    +0.000 N 
ATOM     16  H   UNL     1       3.831   6.213  20.697  0.00  0.00    +0.000 HD
BRANCH  15  17
ATOM     17  C   UNL     1       2.439   7.272  19.586  0.00  0.00    +0.000 A 
ATOM     18  C   UNL     1       2.804   7.422  18.244  0.00  0.00    +0.000 A 
ATOM     19  C   UNL     1       2.341   8.505  17.505  0.00  0.00    +0.000 A 
ATOM     20  C   UNL     1       1.466   9.416  18.092  0.00  0.00    +0.000 A 
ATOM     21  C   UNL     1       1.052   9.263  19.423  0.00  0.00    +0.000 A 
ATOM     22  C   UNL     1       0.092  10.137  19.960  0.00  0.00    +0.000 A 
ATOM     23  C   UNL     1      -0.335  10.009  21.279  0.00  0.00    +0.000 A 
ATOM     24  C   UNL     1       0.233   9.038  22.095  0.00  0.00    +0.000 A 
ATOM     25  C   UNL     1       1.181   8.153  21.572  0.00  0.00    +0.000 A 
ATOM     26  C   UNL     1       1.580   8.212  20.216  0.00  0.00    +0.000 A 
ENDBRANCH  15  17
ENDBRANCH   1  15
TORSDOF 3
ENDMDL
MODEL 2
REMARK VINA RESULT:      -7.3      3.342      7.287
REMARK  Name = 
REMARK  6 active torsions:
REMARK  status: ('A' for Active; 'I' for Inactive)
REMARK    1  A    between atoms: C_1  and  C_2
REMARK    2  A    between atoms: C_3  and  S_4
REMARK    3  A    between atoms: S_4  and  N_7
REMARK    4  A    between atoms: N_7  and  C_8
REMARK    5  A    between atoms: N_20  and  C_21
REMARK    6  A    between atoms: N_24  and  C_25
REMARK                            x       y       z     vdW  Elec       q    Type
REMARK                         _______ _______ _______ _____ _____    ______ ____
ROOT
ATOM      1  S   UNL     1       1.872   8.719  18.340  0.00  0.00    +0.000 S 
ATOM      2  O   UNL     1       0.766   8.061  17.666  0.00  0.00    +0.000 OA
ATOM      3  O   UNL     1       2.813   9.402  17.472  0.00  0.00    +0.000 OA
ENDROOT
BRANCH   1   6
ATOM      4  C   UNL     1       1.829  11.978  18.474  0.00  0.00    +0.000 C 
ATOM      5  C   UNL     1       1.262  11.102  19.577  0.00  0.00    +0.000 A 
ATOM      6  C   UNL     1       1.267   9.753  19.607  0.00  0.00    +0.000 A 
ATOM      7  C   UNL     1       0.766   9.054  20.812  0.00  0.00    +0.000 A 
ATOM      8  O   UNL     1       1.004   7.865  21.008  0.00  0.00    +0.000 OA
ATOM      9  N   UNL     1       0.086   9.819  21.742  0.00  0.00    +0.000 N 
ATOM     10  C   UNL     1      -0.490   9.170  22.906  0.00  0.00    +0.000 C 
ATOM     11  C   UNL     1       0.093  11.203  21.754  0.00  0.00    +0.000 A 
ATOM     12  O   UNL     1      -0.391  11.843  22.688  0.00  0.00    +0.000 OA
ATOM     13  N   UNL     1       0.704  11.816  20.660  0.00  0.00    +0.000 N 
ATOM     14  C   UNL     1       0.703  13.284  20.665  0.00  0.00    +0.000 C 
ENDBRANCH   1   6
BRANCH   1  15
ATOM     15  N   UNL     1       2.762   7.455  19.058  0.00  0.00    +0.000 N 
ATOM     16  H   UNL     1       2.267   7.150  19.896  0.00  0.00    +0.000 HD
BRANCH  15  17
ATOM     17  C   UNL     1       3.218   6.377  18.225  0.00  0.00    +0.000 A 
ATOM     18  C   UNL     1       4.294   6.659  17.377  0.00  0.00    +0.000 A 
ATOM     19  C   UNL     1       4.837   5.663  16.574  0.00  0.00    +0.000 A 
ATOM     20  C   UNL     1       4.340   4.365  16.654  0.00  0.00    +0.000 A 
ATOM     21  C   UNL     1       3.290   4.048  17.528  0.00  0.00    +0.000 A 
ATOM     22  C   UNL     1       2.874   2.713  17.664  0.00  0.00    +0.000 A 
ATOM     23  C   UNL     1       1.833   2.371  18.523  0.00  0.00    +0.000 A 
ATOM     24  C   UNL     1       1.158   3.368  19.217  0.00  0.00    +0.000 A 
ATOM     25  C   UNL     1       1.567   4.700  19.101  0.00  0.00    +0.000 A 
ATOM     26  C   UNL     1       2.668   5.069  18.293  0.00  0.00    +0.000 A 
ENDBRANCH  15  17
ENDBRANCH   1  15
TORSDOF 3
ENDMDL
MODEL 3
REMARK VINA RESULT:      -7.1      3.548      7.532
REMARK  Name = 
REMARK  6 active torsions:
REMARK  status: ('A' for Active; 'I' for Inactive)
REMARK    1  A    between atoms: C_1  and  C_2
REMARK    2  A    between atoms: C_3  and  S_4
REMARK    3  A    between atoms: S_4  and  N_7
REMARK    4  A    between atoms: N_7  and  C_8
REMARK    5  A    between atoms: N_20  and  C_21
REMARK    6  A    between atoms: N_24  and  C_25
REMARK                            x       y       z     vdW  Elec       q    Type
REMARK                         _______ _______ _______ _____ _____    ______ ____
ROOT
ATOM      1  S   UNL     1       1.587   8.960  18.280  0.00  0.00    +0.000 S 
ATOM      2  O   UNL     1       0.713   8.216  17.390  0.00  0.00    +0.000 OA
ATOM      3  O   UNL     1       2.472   9.911  17.634  0.00  0.00    +0.000 OA
ENDROOT
BRANCH   1   6
ATOM      4  C   UNL     1       1.419   8.116  21.426  0.00  0.00    +0.000 C 
ATOM      5  C   UNL     1       0.654   9.294  20.850  0.00  0.00    +0.000 A 
ATOM      6  C   UNL     1       0.651   9.688  19.559  0.00  0.00    +0.000 A 
ATOM      7  C   UNL     1      -0.238  10.797  19.144  0.00  0.00    +0.000 A 
ATOM      8  O   UNL     1      -0.490  11.006  17.960  0.00  0.00    +0.000 OA
ATOM      9  N   UNL     1      -0.830  11.535  20.152  0.00  0.00    +0.000 N 
ATOM     10  C   UNL     1      -1.651  12.680  19.800  0.00  0.00    +0.000 C 
ATOM     11  C   UNL     1      -0.870  11.137  21.477  0.00  0.00    +0.000 A 
ATOM     12  O   UNL     1      -1.542  11.742  22.312  0.00  0.00    +0.000 OA
ATOM     13  N   UNL     1      -0.126   9.999  21.791  0.00  0.00    +0.000 N 
ATOM     14  C   UNL     1      -0.158   9.582  23.198  0.00  0.00    +0.000 C 
ENDBRANCH   1   6
BRANCH   1  15
ATOM     15  N   UNL     1       2.615   7.788  18.968  0.00  0.00    +0.000 N 
ATOM     16  H   UNL     1       2.158   7.406  19.796  0.00  0.00    +0.000 HD
BRANCH  15  17
ATOM     17  C   UNL     1       3.191   6.790  18.109  0.00  0.00    +0.000 A 
ATOM     18  C   UNL     1       4.273   7.198  17.321  0.00  0.00    +0.000 A 
ATOM     19  C   UNL     1       4.927   6.289  16.499  0.00  0.00    +0.000 A 
ATOM     20  C   UNL     1       4.535   4.952  16.500  0.00  0.00    +0.000 A 
ATOM     21  C   UNL     1       3.481   4.511  17.314  0.00  0.00    +0.000 A 
ATOM     22  C   UNL     1       3.172   3.142  17.372  0.00  0.00    +0.000 A 
ATOM     23  C   UNL     1       2.130   2.677  18.170  0.00  0.00    +0.000 A 
ATOM     24  C   UNL     1       1.348   3.582  18.877  0.00  0.00    +0.000 A 
ATOM     25  C   UNL     1       1.651   4.946  18.838  0.00  0.00    +0.000 A 
ATOM     26  C   UNL     1       2.749   5.441  18.095  0.00  0.00    +0.000 A 
ENDBRANCH  15  17
ENDBRANCH   1  15
TORSDOF 3
ENDMDL
MODEL 4
REMARK VINA RESULT:      -7.1      3.509      7.515
REMARK  Name = 
REMARK  6 active torsions:
REMARK  status: ('A' for Active; 'I' for Inactive)
REMARK    1  A    between atoms: C_1  and  C_2
REMARK    2  A    between atoms: C_3  and  S_4
REMARK    3  A    between atoms: S_4  and  N_7
REMARK    4  A    between atoms: N_7  and  C_8
REMARK    5  A    between atoms: N_20  and  C_21
REMARK    6  A    between atoms: N_24  and  C_25
REMARK                            x       y       z     vdW  Elec       q    Type
REMARK                         _______ _______ _______ _____ _____    ______ ____
ROOT
ATOM      1  S   UNL     1       1.443   9.147  18.473  0.00  0.00    +0.000 S 
ATOM      2  O   UNL     1       0.557   8.593  17.463  0.00  0.00    +0.000 OA
ATOM      3  O   UNL     1       2.512   9.989  17.970  0.00  0.00    +0.000 OA
ENDROOT
BRANCH   1   6
ATOM      4  C   UNL     1      -0.680  11.607  18.191  0.00  0.00    +0.000 C 
ATOM      5  C   UNL     1      -0.374  10.933  19.516  0.00  0.00    +0.000 A 
ATOM      6  C   UNL     1       0.508   9.932  19.718  0.00  0.00    +0.000 A 
ATOM      7  C   UNL     1       0.764   9.459  21.098  0.00  0.00    +0.000 A 
ATOM      8  O   UNL     1       1.741   8.765  21.365  0.00  0.00    +0.000 OA
ATOM      9  N   UNL     1      -0.103   9.901  22.080  0.00  0.00    +0.000 N 
ATOM     10  C   UNL     1       0.059   9.410  23.437  0.00  0.00    +0.000 C 
ATOM     11  C   UNL     1      -0.992  10.948  21.911  0.00  0.00    +0.000 A 
ATOM     12  O   UNL     1      -1.630  11.412  22.856  0.00  0.00    +0.000 OA
ATOM     13  N   UNL     1      -1.094  11.454  20.614  0.00  0.00    +0.000 N 
ATOM     14  C   UNL     1      -2.044  12.556  20.430  0.00  0.00    +0.000 C 
ENDBRANCH   1   6
BRANCH   1  15
ATOM     15  N   UNL     1       2.223   7.796  19.160  0.00  0.00    +0.000 N 
ATOM     16  H   UNL     1       1.572   7.339  19.797  0.00  0.00    +0.000 HD
BRANCH  15  17
ATOM     17  C   UNL     1       2.921   6.890  18.290  0.00  0.00    +0.000 A 
ATOM     18  C   UNL     1       4.001   7.421  17.576  0.00  0.00    +0.000 A 
ATOM     19  C   UNL     1       4.767   6.607  16.750  0.00  0.00    +0.000 A 
ATOM     20  C   UNL     1       4.490   5.244  16.675  0.00  0.00    +0.000 A 
ATOM     21  C   UNL     1       3.439   4.681  17.414  0.00  0.00    +0.000 A 
ATOM     22  C   UNL     1       3.243   3.290  17.399  0.00  0.00    +0.000 A 
ATOM     23  C   UNL     1       2.206   2.705  18.121  0.00  0.00    +0.000 A 
ATOM     24  C   UNL     1       1.319   3.510  18.826  0.00  0.00    +0.000 A 
ATOM     25  C   UNL     1       1.508   4.894  18.861  0.00  0.00    +0.000 A 
ATOM     26  C   UNL     1       2.595   5.511  18.196  0.00  0.00    +0.000 A 
ENDBRANCH  15  17
ENDBRANCH   1  15
TORSDOF 3
ENDMDL
MODEL 5
REMARK VINA RESULT:      -7.0      3.195      7.465
REMARK  Name = 
REMARK  6 active torsions:
REMARK  status: ('A' for Active; 'I' for Inactive)
REMARK    1  A    between atoms: C_1  and  C_2
REMARK    2  A    between atoms: C_3  and  S_4
REMARK    3  A    between atoms: S_4  and  N_7
REMARK    4  A    between atoms: N_7  and  C_8
REMARK    5  A    between atoms: N_20  and  C_21
REMARK    6  A    between atoms: N_24  and  C_25
REMARK                            x       y       z     vdW  Elec       q    Type
REMARK                         _______ _______ _______ _____ _____    ______ ____
ROOT
ATOM      1  S   UNL     1       1.945   8.525  18.320  0.00  0.00    +0.000 S 
ATOM      2  O   UNL     1       0.832   7.881  17.644  0.00  0.00    +0.000 OA
ATOM      3  O   UNL     1       2.951   9.104  17.450  0.00  0.00    +0.000 OA
ENDROOT
BRANCH   1   6
ATOM      4  C   UNL     1       1.983  11.785  18.211  0.00  0.00    +0.000 C 
ATOM      5  C   UNL     1       1.377  11.008  19.366  0.00  0.00    +0.000 A 
ATOM      6  C   UNL     1       1.347   9.665  19.496  0.00  0.00    +0.000 A 
ATOM      7  C   UNL     1       0.809   9.070  20.741  0.00  0.00    +0.000 A 
ATOM      8  O   UNL     1       1.014   7.894  21.028  0.00  0.00    +0.000 OA
ATOM      9  N   UNL     1       0.135   9.919  21.599  0.00  0.00    +0.000 N 
ATOM     10  C   UNL     1      -0.475   9.373  22.798  0.00  0.00    +0.000 C 
ATOM     11  C   UNL     1       0.178  11.299  21.509  0.00  0.00    +0.000 A 
ATOM     12  O   UNL     1      -0.305  12.019  22.384  0.00  0.00    +0.000 OA
ATOM     13  N   UNL     1       0.821  11.815  20.383  0.00  0.00    +0.000 N 
ATOM     14  C   UNL     1       0.858  13.278  20.279  0.00  0.00    +0.000 C 
ENDBRANCH   1   6
BRANCH   1  15
ATOM     15  N   UNL     1       2.741   7.267  19.149  0.00  0.00    +0.000 N 
ATOM     16  H   UNL     1       2.343   7.197  20.085  0.00  0.00    +0.000 HD
BRANCH  15  17
ATOM     17  C   UNL     1       2.900   6.001  18.488  0.00  0.00    +0.000 A 
ATOM     18  C   UNL     1       1.855   5.084  18.643  0.00  0.00    +0.000 A 
ATOM     19  C   UNL     1       1.898   3.853  17.997  0.00  0.00    +0.000 A 
ATOM     20  C   UNL     1       2.962   3.556  17.149  0.00  0.00    +0.000 A 
ATOM     21  C   UNL     1       4.000   4.477  16.945  0.00  0.00    +0.000 A 
ATOM     22  C   UNL     1       5.008   4.194  16.009  0.00  0.00    +0.000 A 
ATOM     23  C   UNL     1       6.051   5.090  15.787  0.00  0.00    +0.000 A 
ATOM     24  C   UNL     1       6.128   6.256  16.539  0.00  0.00    +0.000 A 
ATOM     25  C   UNL     1       5.126   6.557  17.466  0.00  0.00    +0.000 A 
ATOM     26  C   UNL     1       4.015   5.702  17.660  0.00  0.00    +0.000 A 
ENDBRANCH  15  17
ENDBRANCH   1  15
TORSDOF 3
ENDMDL
MODEL 6
REMARK VINA RESULT:      -7.0      5.497      9.517
REMARK  Name = 
REMARK  6 active torsions:
REMARK  status: ('A' for Active; 'I' for Inactive)
REMARK    1  A    between atoms: C_1  and  C_2
REMARK    2  A    between atoms: C_3  and  S_4
REMARK    3  A    between atoms: S_4  and  N_7
REMARK    4  A    between atoms: N_7  and  C_8
REMARK    5  A    between atoms: N_20  and  C_21
REMARK    6  A    between atoms: N_24  and  C_25
REMARK                            x       y       z     vdW  Elec       q    Type
REMARK                         _______ _______ _______ _____ _____    ______ ____
ROOT
ATOM      1  S   UNL     1      -0.331  12.373  19.078  0.00  0.00    +0.000 S 
ATOM      2  O   UNL     1      -0.042  13.339  18.032  0.00  0.00    +0.000 OA
ATOM      3  O   UNL     1       0.414  12.548  20.311  0.00  0.00    +0.000 OA
ENDROOT
BRANCH   1   6
ATOM      4  C   UNL     1      -2.014  13.077  21.782  0.00  0.00    +0.000 C 
ATOM      5  C   UNL     1      -2.679  12.621  20.495  0.00  0.00    +0.000 A 
ATOM      6  C   UNL     1      -2.051  12.287  19.348  0.00  0.00    +0.000 A 
ATOM      7  C   UNL     1      -2.846  11.759  18.215  0.00  0.00    +0.000 A 
ATOM      8  O   UNL     1      -2.311  11.184  17.271  0.00  0.00    +0.000 OA
ATOM      9  N   UNL     1      -4.221  11.874  18.309  0.00  0.00    +0.000 N 
ATOM     10  C   UNL     1      -5.043  11.440  17.194  0.00  0.00    +0.000 C 
ATOM     11  C   UNL     1      -4.890  12.181  19.481  0.00  0.00    +0.000 A 
ATOM     12  O   UNL     1      -6.118  12.118  19.558  0.00  0.00    +0.000 OA
ATOM     13  N   UNL     1      -4.086  12.538  20.564  0.00  0.00    +0.000 N 
ATOM     14  C   UNL     1      -4.795  12.875  21.804  0.00  0.00    +0.000 C 
ENDBRANCH   1   6
BRANCH   1  15
ATOM     15  N   UNL     1       0.190  10.877  18.449  0.00  0.00    +0.000 N 
ATOM     16  H   UNL     1       0.875  11.058  17.716  0.00  0.00    +0.000 HD
BRANCH  15  17
ATOM     17  C   UNL     1       0.579   9.844  19.369  0.00  0.00    +0.000 A 
ATOM     18  C   UNL     1      -0.092   9.819  20.596  0.00  0.00    +0.000 A 
ATOM     19  C   UNL     1       0.181   8.824  21.528  0.00  0.00    +0.000 A 
ATOM     20  C   UNL     1       1.089   7.816  21.214  0.00  0.00    +0.000 A 
ATOM     21  C   UNL     1       1.742   7.795  19.973  0.00  0.00    +0.000 A 
ATOM     22  C   UNL     1       2.576   6.714  19.642  0.00  0.00    +0.000 A 
ATOM     23  C   UNL     1       3.238   6.669  18.417  0.00  0.00    +0.000 A 
ATOM     24  C   UNL     1       3.116   7.732  17.530  0.00  0.00    +0.000 A 
ATOM     25  C   UNL     1       2.281   8.809  17.840  0.00  0.00    +0.000 A 
ATOM     26  C   UNL     1       1.539   8.848  19.044  0.00  0.00    +0.000 A 
ENDBRANCH  15  17
ENDBRANCH   1  15
TORSDOF 3
ENDMDL
MODEL 7
REMARK VINA RESULT:      -7.0      5.957      9.892
REMARK  Name = 
REMARK  6 active torsions:
REMARK  status: ('A' for Active; 'I' for Inactive)
REMARK    1  A    between atoms: C_1  and  C_2
REMARK    2  A    between atoms: C_3  and  S_4
REMARK    3  A    between atoms: S_4  and  N_7
REMARK    4  A    between atoms: N_7  and  C_8
REMARK    5  A    between atoms: N_20  and  C_21
REMARK    6  A    between atoms: N_24  and  C_25
REMARK                            x       y       z     vdW  Elec       q    Type
REMARK                         _______ _______ _______ _____ _____    ______ ____
ROOT
ATOM      1  S   UNL     1      -1.858  11.440  18.588  0.00  0.00    +0.000 S 
ATOM      2  O   UNL     1      -1.930  10.010  18.347  0.00  0.00    +0.000 OA
ATOM      3  O   UNL     1      -1.530  12.252  17.431  0.00  0.00    +0.000 OA
ENDROOT
BRANCH   1   6
ATOM      4  C   UNL     1      -4.961  11.123  17.633  0.00  0.00    +0.000 C 
ATOM      5  C   UNL     1      -4.567  11.789  18.939  0.00  0.00    +0.000 A 
ATOM      6  C   UNL     1      -3.309  11.981  19.389  0.00  0.00    +0.000 A 
ATOM      7  C   UNL     1      -3.097  12.746  20.640  0.00  0.00    +0.000 A 
ATOM      8  O   UNL     1      -1.991  13.188  20.939  0.00  0.00    +0.000 OA
ATOM      9  N   UNL     1      -4.215  13.006  21.411  0.00  0.00    +0.000 N 
ATOM     10  C   UNL     1      -4.052  13.688  22.682  0.00  0.00    +0.000 C 
ATOM     11  C   UNL     1      -5.514  12.850  20.962  0.00  0.00    +0.000 A 
ATOM     12  O   UNL     1      -6.477  13.242  21.622  0.00  0.00    +0.000 OA
ATOM     13  N   UNL     1      -5.656  12.249  19.711  0.00  0.00    +0.000 N 
ATOM     14  C   UNL     1      -7.034  12.072  19.238  0.00  0.00    +0.000 C 
ENDBRANCH   1   6
BRANCH   1  15
ATOM     15  N   UNL     1      -0.548  11.640  19.659  0.00  0.00    +0.000 N 
ATOM     16  H   UNL     1      -0.788  12.372  20.328  0.00  0.00    +0.000 HD
BRANCH  15  17
ATOM     17  C   UNL     1       0.034  10.471  20.259  0.00  0.00    +0.000 A 
ATOM     18  C   UNL     1      -0.407  10.149  21.548  0.00  0.00    +0.000 A 
ATOM     19  C   UNL     1       0.061   9.007  22.187  0.00  0.00    +0.000 A 
ATOM     20  C   UNL     1       0.932   8.150  21.518  0.00  0.00    +0.000 A 
ATOM     21  C   UNL     1       1.354   8.429  20.210  0.00  0.00    +0.000 A 
ATOM     22  C   UNL     1       2.151   7.500  19.521  0.00  0.00    +0.000 A 
ATOM     23  C   UNL     1       2.586   7.752  18.223  0.00  0.00    +0.000 A 
ATOM     24  C   UNL     1       2.273   8.962  17.615  0.00  0.00    +0.000 A 
ATOM     25  C   UNL     1       1.470   9.892  18.283  0.00  0.00    +0.000 A 
ATOM     26  C   UNL     1       0.953   9.633  19.574  0.00  0.00    +0.000 A 
ENDBRANCH  15  17
ENDBRANCH   1  15
TORSDOF 3
ENDMDL
MODEL 8
REMARK VINA RESULT:      -7.0      4.005      7.830
REMARK  Name = 
REMARK  6 active torsions:
REMARK  status: ('A' for Active; 'I' for Inactive)
REMARK    1  A    between atoms: C_1  and  C_2
REMARK    2  A    between atoms: C_3  and  S_4
REMARK    3  A    between atoms: S_4  and  N_7
REMARK    4  A    between atoms: N_7  and  C_8
REMARK    5  A    between atoms: N_20  and  C_21
REMARK    6  A    between atoms: N_24  and  C_25
REMARK                            x       y       z     vdW  Elec       q    Type
REMARK                         _______ _______ _______ _____ _____    ______ ____
ROOT
ATOM      1  S   UNL     1       1.207   9.388  18.209  0.00  0.00    +0.000 S 
ATOM      2  O   UNL     1       0.633   8.256  17.502  0.00  0.00    +0.000 OA
ATOM      3  O   UNL     1       2.194  10.150  17.466  0.00  0.00    +0.000 OA
ENDROOT
BRANCH   1   6
ATOM      4  C   UNL     1      -1.778   9.928  17.010  0.00  0.00    +0.000 C 
ATOM      5  C   UNL     1      -1.289  10.548  18.307  0.00  0.00    +0.000 A 
ATOM      6  C   UNL     1      -0.063  10.394  18.852  0.00  0.00    +0.000 A 
ATOM      7  C   UNL     1       0.287  11.158  20.072  0.00  0.00    +0.000 A 
ATOM      8  O   UNL     1       1.453  11.275  20.440  0.00  0.00    +0.000 OA
ATOM      9  N   UNL     1      -0.749  11.795  20.729  0.00  0.00    +0.000 N 
ATOM     10  C   UNL     1      -0.472  12.496  21.970  0.00  0.00    +0.000 C 
ATOM     11  C   UNL     1      -2.003  11.996  20.179  0.00  0.00    +0.000 A 
ATOM     12  O   UNL     1      -2.845  12.704  20.733  0.00  0.00    +0.000 OA
ATOM     13  N   UNL     1      -2.237  11.368  18.956  0.00  0.00    +0.000 N 
ATOM     14  C   UNL     1      -3.570  11.569  18.377  0.00  0.00    +0.000 C 
ENDBRANCH   1   6
BRANCH   1  15
ATOM     15  N   UNL     1       2.062   8.703  19.514  0.00  0.00    +0.000 N 
ATOM     16  H   UNL     1       1.684   9.086  20.381  0.00  0.00    +0.000 HD
BRANCH  15  17
ATOM     17  C   UNL     1       2.250   7.278  19.540  0.00  0.00    +0.000 A 
ATOM     18  C   UNL     1       1.483   6.567  20.469  0.00  0.00    +0.000 A 
ATOM     19  C   UNL     1       1.559   5.180  20.530  0.00  0.00    +0.000 A 
ATOM     20  C   UNL     1       2.365   4.494  19.626  0.00  0.00    +0.000 A 
ATOM     21  C   UNL     1       3.111   5.182  18.657  0.00  0.00    +0.000 A 
ATOM     22  C   UNL     1       3.836   4.462  17.693  0.00  0.00    +0.000 A 
ATOM     23  C   UNL     1       4.586   5.121  16.722  0.00  0.00    +0.000 A 
ATOM     24  C   UNL     1       4.663   6.508  16.736  0.00  0.00    +0.000 A 
ATOM     25  C   UNL     1       3.938   7.239  17.681  0.00  0.00    +0.000 A 
ATOM     26  C   UNL     1       3.109   6.601  18.635  0.00  0.00    +0.000 A 
ENDBRANCH  15  17
ENDBRANCH   1  15
TORSDOF 3
ENDMDL
MODEL 9
REMARK VINA RESULT:      -6.9      5.874      9.512
REMARK  Name = 
REMARK  6 active torsions:
REMARK  status: ('A' for Active; 'I' for Inactive)
REMARK    1  A    between atoms: C_1  and  C_2
REMARK    2  A    between atoms: C_3  and  S_4
REMARK    3  A    between atoms: S_4  and  N_7
REMARK    4  A    between atoms: N_7  and  C_8
REMARK    5  A    between atoms: N_20  and  C_21
REMARK    6  A    between atoms: N_24  and  C_25
REMARK                            x       y       z     vdW  Elec       q    Type
REMARK                         _______ _______ _______ _____ _____    ______ ____
ROOT
ATOM      1  S   UNL     1      -2.181  11.031  17.789  0.00  0.00    +0.000 S 
ATOM      2  O   UNL     1      -2.390   9.611  18.012  0.00  0.00    +0.000 OA
ATOM      3  O   UNL     1      -2.284  11.467  16.409  0.00  0.00    +0.000 OA
ENDROOT
BRANCH   1   6
ATOM      4  C   UNL     1      -5.425  10.919  18.118  0.00  0.00    +0.000 C 
ATOM      5  C   UNL     1      -4.545  11.834  18.952  0.00  0.00    +0.000 A 
ATOM      6  C   UNL     1      -3.204  11.956  18.856  0.00  0.00    +0.000 A 
ATOM      7  C   UNL     1      -2.510  12.976  19.675  0.00  0.00    +0.000 A 
ATOM      8  O   UNL     1      -1.358  13.320  19.426  0.00  0.00    +0.000 OA
ATOM      9  N   UNL     1      -3.246  13.578  20.679  0.00  0.00    +0.000 N 
ATOM     10  C   UNL     1      -2.593  14.531  21.558  0.00  0.00    +0.000 C 
ATOM     11  C   UNL     1      -4.624  13.497  20.780  0.00  0.00    +0.000 A 
ATOM     12  O   UNL     1      -5.252  14.174  21.593  0.00  0.00    +0.000 OA
ATOM     13  N   UNL     1      -5.247  12.623  19.889  0.00  0.00    +0.000 N 
ATOM     14  C   UNL     1      -6.707  12.527  20.001  0.00  0.00    +0.000 C 
ENDBRANCH   1   6
BRANCH   1  15
ATOM     15  N   UNL     1      -0.558  11.310  18.227  0.00  0.00    +0.000 N 
ATOM     16  H   UNL     1      -0.518  12.162  18.786  0.00  0.00    +0.000 HD
BRANCH  15  17
ATOM     17  C   UNL     1       0.204  10.220  18.771  0.00  0.00    +0.000 A 
ATOM     18  C   UNL     1       1.013   9.517  17.871  0.00  0.00    +0.000 A 
ATOM     19  C   UNL     1       1.825   8.481  18.316  0.00  0.00    +0.000 A 
ATOM     20  C   UNL     1       1.873   8.177  19.674  0.00  0.00    +0.000 A 
ATOM     21  C   UNL     1       1.104   8.897  20.601  0.00  0.00    +0.000 A 
ATOM     22  C   UNL     1       1.246   8.638  21.975  0.00  0.00    +0.000 A 
ATOM     23  C   UNL     1       0.494   9.336  22.916  0.00  0.00    +0.000 A 
ATOM     24  C   UNL     1      -0.450  10.264  22.492  0.00  0.00    +0.000 A 
ATOM     25  C   UNL     1      -0.594  10.540  21.130  0.00  0.00    +0.000 A 
ATOM     26  C   UNL     1       0.207   9.901  20.155  0.00  0.00    +0.000 A 
ENDBRANCH  15  17
ENDBRANCH   1  15
TORSDOF 3
ENDMDL
