MODEL 1
REMARK VINA RESULT:      -7.6      0.000      0.000
REMARK  Name = 
REMARK  4 active torsions:
REMARK  status: ('A' for Active; 'I' for Inactive)
REMARK    1  A    between atoms: C_1  and  C_2
REMARK    2  A    between atoms: C_6  and  C_7
REMARK    3  A    between atoms: C_13  and  N_14
REMARK    4  A    between atoms: N_17  and  C_18
REMARK                            x       y       z     vdW  Elec       q    Type
REMARK                         _______ _______ _______ _____ _____    ______ ____
ROOT
ATOM      1  C   UNL     1       0.808   9.556  21.123  0.00  0.00    +0.000 A 
ATOM      2  C   UNL     1       0.030   9.026  22.145  0.00  0.00    +0.000 A 
ATOM      3  C   UNL     1      -0.819   9.848  22.856  0.00  0.00    +0.000 A 
ATOM      4  C   UNL     1      -0.936  11.222  22.565  0.00  0.00    +0.000 A 
ATOM      5  C   UNL     1      -0.043  11.842  21.672  0.00  0.00    +0.000 A 
ATOM      6  C   UNL     1       0.865  10.964  21.013  0.00  0.00    +0.000 A 
ATOM      7  C   UNL     1       0.027  13.371  21.336  0.00  0.00    +0.000 C 
ATOM      8  C   UNL     1      -0.518  14.313  22.498  0.00  0.00    +0.000 C 
ATOM      9  C   UNL     1      -2.022  14.434  22.627  0.00  0.00    +0.000 A 
ATOM     10  C   UNL     1      -2.666  15.638  22.936  0.00  0.00    +0.000 A 
ATOM     11  C   UNL     1      -4.065  15.720  22.907  0.00  0.00    +0.000 A 
ATOM     12  C   UNL     1      -4.827  14.627  22.498  0.00  0.00    +0.000 A 
ATOM     13  C   UNL     1      -4.202  13.404  22.305  0.00  0.00    +0.000 A 
ATOM     14  C   UNL     1      -2.825  13.303  22.517  0.00  0.00    +0.000 A 
ATOM     15  S   UNL     1      -2.307  11.882  23.450  0.00  0.00    +0.000 S 
ENDROOT
BRANCH   1  21
ATOM     16  C   UNL     1       2.925   5.169  19.833  0.00  0.00    +0.000 C 
ATOM     17  C   UNL     1       2.460   6.538  19.460  0.00  0.00    +0.000 A 
ATOM     18  C   UNL     1       2.635   7.024  18.158  0.00  0.00    +0.000 A 
ATOM     19  C   UNL     1       2.214   8.308  17.828  0.00  0.00    +0.000 A 
ATOM     20  C   UNL     1       1.617   9.104  18.808  0.00  0.00    +0.000 A 
ATOM     21  C   UNL     1       1.404   8.644  20.126  0.00  0.00    +0.000 A 
ATOM     22  C   UNL     1       1.839   7.346  20.433  0.00  0.00    +0.000 A 
ENDBRANCH   1  21
BRANCH   7  23
ATOM     23  N   UNL     1      -0.482  13.698  19.950  0.00  0.00    +0.000 NA
ATOM     24  C   UNL     1       0.418  13.307  18.832  0.00  0.00    +0.000 C 
ATOM     25  C   UNL     1       1.733  14.121  18.770  0.00  0.00    +0.000 C 
ATOM     26  N   UNL     1       1.468  15.547  18.530  0.00  0.00    +0.000 NA
ATOM     27  C   UNL     1       2.696  16.336  18.623  0.00  0.00    +0.000 C 
ATOM     28  C   UNL     1       0.429  16.070  19.437  0.00  0.00    +0.000 C 
ATOM     29  C   UNL     1      -0.786  15.128  19.682  0.00  0.00    +0.000 C 
ENDBRANCH   7  23
TORSDOF 2
ENDMDL
MODEL 2
REMARK VINA RESULT:      -7.2      0.963      1.484
REMARK  Name = 
REMARK  4 active torsions:
REMARK  status: ('A' for Active; 'I' for Inactive)
REMARK    1  A    between atoms: C_1  and  C_2
REMARK    2  A    between atoms: C_6  and  C_7
REMARK    3  A    between atoms: C_13  and  N_14
REMARK    4  A    between atoms: N_17  and  C_18
REMARK                            x       y       z     vdW  Elec       q    Type
REMARK                         _______ _______ _______ _____ _____    ______ ____
ROOT
ATOM      1  C   UNL     1       0.810   9.203  21.489  0.00  0.00    +0.000 A 
ATOM      2  C   UNL     1      -0.115   8.893  22.480  0.00  0.00    +0.000 A 
ATOM      3  C   UNL     1      -0.946   9.878  22.972  0.00  0.00    +0.000 A 
ATOM      4  C   UNL     1      -0.898  11.200  22.485  0.00  0.00    +0.000 A 
ATOM      5  C   UNL     1       0.136  11.607  21.623  0.00  0.00    +0.000 A 
ATOM      6  C   UNL     1       1.015  10.570  21.196  0.00  0.00    +0.000 A 
ATOM      7  C   UNL     1       0.389  13.059  21.092  0.00  0.00    +0.000 C 
ATOM      8  C   UNL     1      -0.175  14.203  22.046  0.00  0.00    +0.000 C 
ATOM      9  C   UNL     1      -1.665  14.464  21.988  0.00  0.00    +0.000 A 
ATOM     10  C   UNL     1      -2.216  15.749  22.055  0.00  0.00    +0.000 A 
ATOM     11  C   UNL     1      -3.591  15.942  21.857  0.00  0.00    +0.000 A 
ATOM     12  C   UNL     1      -4.412  14.868  21.518  0.00  0.00    +0.000 A 
ATOM     13  C   UNL     1      -3.893  13.582  21.565  0.00  0.00    +0.000 A 
ATOM     14  C   UNL     1      -2.561  13.400  21.942  0.00  0.00    +0.000 A 
ATOM     15  S   UNL     1      -2.279  12.092  23.112  0.00  0.00    +0.000 S 
ENDROOT
BRANCH   1  21
ATOM     16  C   UNL     1       3.216   7.481  17.411  0.00  0.00    +0.000 C 
ATOM     17  C   UNL     1       2.555   7.224  18.724  0.00  0.00    +0.000 A 
ATOM     18  C   UNL     1       2.429   5.921  19.221  0.00  0.00    +0.000 A 
ATOM     19  C   UNL     1       1.795   5.693  20.438  0.00  0.00    +0.000 A 
ATOM     20  C   UNL     1       1.287   6.778  21.155  0.00  0.00    +0.000 A 
ATOM     21  C   UNL     1       1.411   8.109  20.700  0.00  0.00    +0.000 A 
ATOM     22  C   UNL     1       2.054   8.310  19.469  0.00  0.00    +0.000 A 
ENDBRANCH   1  21
BRANCH   7  23
ATOM     23  N   UNL     1       0.055  13.222  19.627  0.00  0.00    +0.000 NA
ATOM     24  C   UNL     1       0.878  12.409  18.692  0.00  0.00    +0.000 C 
ATOM     25  C   UNL     1       2.362  12.847  18.619  0.00  0.00    +0.000 C 
ATOM     26  N   UNL     1       2.490  14.218  18.104  0.00  0.00    +0.000 NA
ATOM     27  C   UNL     1       3.875  14.683  18.180  0.00  0.00    +0.000 C 
ATOM     28  C   UNL     1       1.578  15.148  18.796  0.00  0.00    +0.000 C 
ATOM     29  C   UNL     1       0.148  14.601  19.080  0.00  0.00    +0.000 C 
ENDBRANCH   7  23
TORSDOF 2
ENDMDL
MODEL 3
REMARK VINA RESULT:      -7.0      3.000      4.601
REMARK  Name = 
REMARK  4 active torsions:
REMARK  status: ('A' for Active; 'I' for Inactive)
REMARK    1  A    between atoms: C_1  and  C_2
REMARK    2  A    between atoms: C_6  and  C_7
REMARK    3  A    between atoms: C_13  and  N_14
REMARK    4  A    between atoms: N_17  and  C_18
REMARK                            x       y       z     vdW  Elec       q    Type
REMARK                         _______ _______ _______ _____ _____    ______ ____
ROOT
ATOM      1  C   UNL     1      -0.693  11.551  20.725  0.00  0.00    +0.000 A 
ATOM      2  C   UNL     1      -0.368  11.927  22.022  0.00  0.00    +0.000 A 
ATOM      3  C   UNL     1      -1.286  12.615  22.787  0.00  0.00    +0.000 A 
ATOM      4  C   UNL     1      -2.566  12.940  22.294  0.00  0.00    +0.000 A 
ATOM      5  C   UNL     1      -2.879  12.749  20.936  0.00  0.00    +0.000 A 
ATOM      6  C   UNL     1      -1.871  12.099  20.166  0.00  0.00    +0.000 A 
ATOM      7  C   UNL     1      -4.208  13.164  20.218  0.00  0.00    +0.000 C 
ATOM      8  C   UNL     1      -4.964  14.381  20.913  0.00  0.00    +0.000 C 
ATOM      9  C   UNL     1      -5.762  14.063  22.160  0.00  0.00    +0.000 A 
ATOM     10  C   UNL     1      -7.003  14.647  22.440  0.00  0.00    +0.000 A 
ATOM     11  C   UNL     1      -7.759  14.212  23.538  0.00  0.00    +0.000 A 
ATOM     12  C   UNL     1      -7.320  13.144  24.318  0.00  0.00    +0.000 A 
ATOM     13  C   UNL     1      -6.043  12.643  24.116  0.00  0.00    +0.000 A 
ATOM     14  C   UNL     1      -5.235  13.215  23.130  0.00  0.00    +0.000 A 
ATOM     15  S   UNL     1      -3.557  13.535  23.620  0.00  0.00    +0.000 S 
ENDROOT
BRANCH   1  21
ATOM     16  C   UNL     1       1.802   7.175  20.770  0.00  0.00    +0.000 C 
ATOM     17  C   UNL     1       1.350   8.396  20.039  0.00  0.00    +0.000 A 
ATOM     18  C   UNL     1       1.725   8.615  18.708  0.00  0.00    +0.000 A 
ATOM     19  C   UNL     1       1.313   9.766  18.045  0.00  0.00    +0.000 A 
ATOM     20  C   UNL     1       0.522  10.697  18.722  0.00  0.00    +0.000 A 
ATOM     21  C   UNL     1       0.105  10.503  20.057  0.00  0.00    +0.000 A 
ATOM     22  C   UNL     1       0.536   9.335  20.703  0.00  0.00    +0.000 A 
ENDBRANCH   1  21
BRANCH   7  23
ATOM     23  N   UNL     1      -5.082  11.984  19.859  0.00  0.00    +0.000 NA
ATOM     24  C   UNL     1      -4.917  11.467  18.475  0.00  0.00    +0.000 C 
ATOM     25  C   UNL     1      -5.417  12.439  17.378  0.00  0.00    +0.000 C 
ATOM     26  N   UNL     1      -6.862  12.682  17.496  0.00  0.00    +0.000 NA
ATOM     27  C   UNL     1      -7.304  13.714  16.559  0.00  0.00    +0.000 C 
ATOM     28  C   UNL     1      -7.247  13.019  18.879  0.00  0.00    +0.000 C 
ATOM     29  C   UNL     1      -6.548  12.186  19.994  0.00  0.00    +0.000 C 
ENDBRANCH   7  23
TORSDOF 2
ENDMDL
MODEL 4
REMARK VINA RESULT:      -6.8      2.952      4.757
REMARK  Name = 
REMARK  4 active torsions:
REMARK  status: ('A' for Active; 'I' for Inactive)
REMARK    1  A    between atoms: C_1  and  C_2
REMARK    2  A    between atoms: C_6  and  C_7
REMARK    3  A    between atoms: C_13  and  N_14
REMARK    4  A    between atoms: N_17  and  C_18
REMARK                            x       y       z     vdW  Elec       q    Type
REMARK                         _______ _______ _______ _____ _____    ______ ____
ROOT
ATOM      1  C   UNL     1      -0.749  11.590  21.290  0.00  0.00    +0.000 A 
ATOM      2  C   UNL     1      -0.505  12.092  22.563  0.00  0.00    +0.000 A 
ATOM      3  C   UNL     1      -1.455  12.877  23.183  0.00  0.00    +0.000 A 
ATOM      4  C   UNL     1      -2.687  13.174  22.568  0.00  0.00    +0.000 A 
ATOM      5  C   UNL     1      -2.909  12.849  21.217  0.00  0.00    +0.000 A 
ATOM      6  C   UNL     1      -1.868  12.100  20.594  0.00  0.00    +0.000 A 
ATOM      7  C   UNL     1      -4.172  13.214  20.366  0.00  0.00    +0.000 C 
ATOM      8  C   UNL     1      -4.941  14.513  20.875  0.00  0.00    +0.000 C 
ATOM      9  C   UNL     1      -5.833  14.344  22.087  0.00  0.00    +0.000 A 
ATOM     10  C   UNL     1      -7.073  14.980  22.214  0.00  0.00    +0.000 A 
ATOM     11  C   UNL     1      -7.917  14.679  23.292  0.00  0.00    +0.000 A 
ATOM     12  C   UNL     1      -7.564  13.690  24.208  0.00  0.00    +0.000 A 
ATOM     13  C   UNL     1      -6.290  13.143  24.152  0.00  0.00    +0.000 A 
ATOM     14  C   UNL     1      -5.400  13.591  23.174  0.00  0.00    +0.000 A 
ATOM     15  S   UNL     1      -3.752  13.926  23.750  0.00  0.00    +0.000 S 
ENDROOT
BRANCH   1  21
ATOM     16  C   UNL     1       1.878   9.271  17.670  0.00  0.00    +0.000 C 
ATOM     17  C   UNL     1       1.327   9.286  19.057  0.00  0.00    +0.000 A 
ATOM     18  C   UNL     1       1.513   8.195  19.915  0.00  0.00    +0.000 A 
ATOM     19  C   UNL     1       0.979   8.214  21.199  0.00  0.00    +0.000 A 
ATOM     20  C   UNL     1       0.257   9.333  21.620  0.00  0.00    +0.000 A 
ATOM     21  C   UNL     1       0.064  10.461  20.794  0.00  0.00    +0.000 A 
ATOM     22  C   UNL     1       0.612  10.415  19.504  0.00  0.00    +0.000 A 
ENDBRANCH   1  21
BRANCH   7  23
ATOM     23  N   UNL     1      -5.052  12.022  20.067  0.00  0.00    +0.000 NA
ATOM     24  C   UNL     1      -4.838  11.389  18.739  0.00  0.00    +0.000 C 
ATOM     25  C   UNL     1      -5.272  12.274  17.544  0.00  0.00    +0.000 C 
ATOM     26  N   UNL     1      -6.717  12.547  17.579  0.00  0.00    +0.000 NA
ATOM     27  C   UNL     1      -7.099  13.504  16.541  0.00  0.00    +0.000 C 
ATOM     28  C   UNL     1      -7.154  13.004  18.912  0.00  0.00    +0.000 C 
ATOM     29  C   UNL     1      -6.518  12.256  20.121  0.00  0.00    +0.000 C 
ENDBRANCH   7  23
TORSDOF 2
ENDMDL
MODEL 5
REMARK VINA RESULT:      -6.8      2.836      3.684
REMARK  Name = 
REMARK  4 active torsions:
REMARK  status: ('A' for Active; 'I' for Inactive)
REMARK    1  A    between atoms: C_1  and  C_2
REMARK    2  A    between atoms: C_6  and  C_7
REMARK    3  A    between atoms: C_13  and  N_14
REMARK    4  A    between atoms: N_17  and  C_18
REMARK                            x       y       z     vdW  Elec       q    Type
REMARK                         _______ _______ _______ _____ _____    ______ ____
ROOT
ATOM      1  C   UNL     1       0.947   9.585  20.088  0.00  0.00    +0.000 A 
ATOM      2  C   UNL     1       1.309  10.120  21.319  0.00  0.00    +0.000 A 
ATOM      3  C   UNL     1       0.553  11.130  21.876  0.00  0.00    +0.000 A 
ATOM      4  C   UNL     1      -0.600  11.630  21.237  0.00  0.00    +0.000 A 
ATOM      5  C   UNL     1      -0.905  11.257  19.916  0.00  0.00    +0.000 A 
ATOM      6  C   UNL     1      -0.052  10.263  19.354  0.00  0.00    +0.000 A 
ATOM      7  C   UNL     1      -2.077  11.812  19.037  0.00  0.00    +0.000 C 
ATOM      8  C   UNL     1      -2.551  13.277  19.444  0.00  0.00    +0.000 C 
ATOM      9  C   UNL     1      -3.441  13.390  20.664  0.00  0.00    +0.000 A 
ATOM     10  C   UNL     1      -4.520  14.278  20.740  0.00  0.00    +0.000 A 
ATOM     11  C   UNL     1      -5.391  14.242  21.838  0.00  0.00    +0.000 A 
ATOM     12  C   UNL     1      -5.238  13.273  22.828  0.00  0.00    +0.000 A 
ATOM     13  C   UNL     1      -4.107  12.470  22.815  0.00  0.00    +0.000 A 
ATOM     14  C   UNL     1      -3.157  12.648  21.807  0.00  0.00    +0.000 A 
ATOM     15  S   UNL     1      -1.467  12.675  22.357  0.00  0.00    +0.000 S 
ENDROOT
BRANCH   1  21
ATOM     16  C   UNL     1       2.064   4.760  21.017  0.00  0.00    +0.000 C 
ATOM     17  C   UNL     1       2.085   5.937  20.098  0.00  0.00    +0.000 A 
ATOM     18  C   UNL     1       2.690   5.852  18.839  0.00  0.00    +0.000 A 
ATOM     19  C   UNL     1       2.720   6.961  17.999  0.00  0.00    +0.000 A 
ATOM     20  C   UNL     1       2.139   8.156  18.429  0.00  0.00    +0.000 A 
ATOM     21  C   UNL     1       1.500   8.277  19.682  0.00  0.00    +0.000 A 
ATOM     22  C   UNL     1       1.487   7.144  20.509  0.00  0.00    +0.000 A 
ENDBRANCH   1  21
BRANCH   7  23
ATOM     23  N   UNL     1      -3.190  10.810  18.831  0.00  0.00    +0.000 NA
ATOM     24  C   UNL     1      -2.793   9.548  18.150  0.00  0.00    +0.000 C 
ATOM     25  C   UNL     1      -2.401   9.734  16.663  0.00  0.00    +0.000 C 
ATOM     26  N   UNL     1      -3.535  10.226  15.868  0.00  0.00    +0.000 NA
ATOM     27  C   UNL     1      -3.124  10.545  14.501  0.00  0.00    +0.000 C 
ATOM     28  C   UNL     1      -4.192  11.380  16.510  0.00  0.00    +0.000 C 
ATOM     29  C   UNL     1      -4.365  11.282  18.054  0.00  0.00    +0.000 C 
ENDBRANCH   7  23
TORSDOF 2
ENDMDL
MODEL 6
REMARK VINA RESULT:      -6.7      2.673      7.034
REMARK  Name = 
REMARK  4 active torsions:
REMARK  status: ('A' for Active; 'I' for Inactive)
REMARK    1  A    between atoms: C_1  and  C_2
REMARK    2  A    between atoms: C_6  and  C_7
REMARK    3  A    between atoms: C_13  and  N_14
REMARK    4  A    between atoms: N_17  and  C_18
REMARK                            x       y       z     vdW  Elec       q    Type
REMARK                         _______ _______ _______ _____ _____    ______ ____
ROOT
ATOM      1  C   UNL     1      -4.448  14.051  21.224  0.00  0.00    +0.000 A 
ATOM      2  C   UNL     1      -4.777  15.393  21.371  0.00  0.00    +0.000 A 
ATOM      3  C   UNL     1      -3.849  16.364  21.055  0.00  0.00    +0.000 A 
ATOM      4  C   UNL     1      -2.569  16.034  20.566  0.00  0.00    +0.000 A 
ATOM      5  C   UNL     1      -2.122  14.700  20.574  0.00  0.00    +0.000 A 
ATOM      6  C   UNL     1      -3.093  13.737  20.977  0.00  0.00    +0.000 A 
ATOM      7  C   UNL     1      -0.695  14.193  20.174  0.00  0.00    +0.000 C 
ATOM      8  C   UNL     1       0.452  15.282  20.356  0.00  0.00    +0.000 C 
ATOM      9  C   UNL     1       0.554  16.348  19.284  0.00  0.00    +0.000 A 
ATOM     10  C   UNL     1       1.777  16.832  18.806  0.00  0.00    +0.000 A 
ATOM     11  C   UNL     1       1.812  17.716  17.719  0.00  0.00    +0.000 A 
ATOM     12  C   UNL     1       0.638  18.064  17.054  0.00  0.00    +0.000 A 
ATOM     13  C   UNL     1      -0.581  17.680  17.595  0.00  0.00    +0.000 A 
ATOM     14  C   UNL     1      -0.598  16.949  18.784  0.00  0.00    +0.000 A 
ATOM     15  S   UNL     1      -1.780  17.498  19.992  0.00  0.00    +0.000 S 
ENDROOT
BRANCH   1  21
ATOM     16  C   UNL     1      -6.924  10.292  18.960  0.00  0.00    +0.000 C 
ATOM     17  C   UNL     1      -6.779  11.236  20.107  0.00  0.00    +0.000 A 
ATOM     18  C   UNL     1      -7.707  11.238  21.155  0.00  0.00    +0.000 A 
ATOM     19  C   UNL     1      -7.571  12.135  22.210  0.00  0.00    +0.000 A 
ATOM     20  C   UNL     1      -6.499  13.030  22.209  0.00  0.00    +0.000 A 
ATOM     21  C   UNL     1      -5.530  13.046  21.182  0.00  0.00    +0.000 A 
ATOM     22  C   UNL     1      -5.692  12.132  20.130  0.00  0.00    +0.000 A 
ENDBRANCH   1  21
BRANCH   7  23
ATOM     23  N   UNL     1      -0.676  13.452  18.856  0.00  0.00    +0.000 NA
ATOM     24  C   UNL     1      -1.531  12.237  18.796  0.00  0.00    +0.000 C 
ATOM     25  C   UNL     1      -1.037  11.077  19.695  0.00  0.00    +0.000 C 
ATOM     26  N   UNL     1       0.288  10.600  19.273  0.00  0.00    +0.000 NA
ATOM     27  C   UNL     1       0.818   9.612  20.212  0.00  0.00    +0.000 C 
ATOM     28  C   UNL     1       1.234  11.716  19.083  0.00  0.00    +0.000 C 
ATOM     29  C   UNL     1       0.652  12.980  18.386  0.00  0.00    +0.000 C 
ENDBRANCH   7  23
TORSDOF 2
ENDMDL
MODEL 7
REMARK VINA RESULT:      -6.4      2.592      7.362
REMARK  Name = 
REMARK  4 active torsions:
REMARK  status: ('A' for Active; 'I' for Inactive)
REMARK    1  A    between atoms: C_1  and  C_2
REMARK    2  A    between atoms: C_6  and  C_7
REMARK    3  A    between atoms: C_13  and  N_14
REMARK    4  A    between atoms: N_17  and  C_18
REMARK                            x       y       z     vdW  Elec       q    Type
REMARK                         _______ _______ _______ _____ _____    ______ ____
ROOT
ATOM      1  C   UNL     1      -4.367  14.764  22.250  0.00  0.00    +0.000 A 
ATOM      2  C   UNL     1      -4.597  16.130  22.352  0.00  0.00    +0.000 A 
ATOM      3  C   UNL     1      -3.690  17.019  21.813  0.00  0.00    +0.000 A 
ATOM      4  C   UNL     1      -2.532  16.580  21.141  0.00  0.00    +0.000 A 
ATOM      5  C   UNL     1      -2.158  15.224  21.171  0.00  0.00    +0.000 A 
ATOM      6  C   UNL     1      -3.092  14.351  21.802  0.00  0.00    +0.000 A 
ATOM      7  C   UNL     1      -0.849  14.605  20.574  0.00  0.00    +0.000 C 
ATOM      8  C   UNL     1       0.366  15.631  20.480  0.00  0.00    +0.000 C 
ATOM      9  C   UNL     1       0.335  16.617  19.331  0.00  0.00    +0.000 A 
ATOM     10  C   UNL     1       1.480  16.993  18.619  0.00  0.00    +0.000 A 
ATOM     11  C   UNL     1       1.371  17.803  17.479  0.00  0.00    +0.000 A 
ATOM     12  C   UNL     1       0.118  18.179  16.999  0.00  0.00    +0.000 A 
ATOM     13  C   UNL     1      -1.006  17.907  17.764  0.00  0.00    +0.000 A 
ATOM     14  C   UNL     1      -0.854  17.256  18.990  0.00  0.00    +0.000 A 
ATOM     15  S   UNL     1      -1.781  17.953  20.336  0.00  0.00    +0.000 S 
ENDROOT
BRANCH   1  21
ATOM     16  C   UNL     1      -7.561  11.223  20.625  0.00  0.00    +0.000 C 
ATOM     17  C   UNL     1      -7.078  12.125  21.711  0.00  0.00    +0.000 A 
ATOM     18  C   UNL     1      -7.718  12.155  22.956  0.00  0.00    +0.000 A 
ATOM     19  C   UNL     1      -7.269  13.014  23.955  0.00  0.00    +0.000 A 
ATOM     20  C   UNL     1      -6.175  13.843  23.699  0.00  0.00    +0.000 A 
ATOM     21  C   UNL     1      -5.489  13.827  22.465  0.00  0.00    +0.000 A 
ATOM     22  C   UNL     1      -5.963  12.954  21.476  0.00  0.00    +0.000 A 
ENDBRANCH   1  21
BRANCH   7  23
ATOM     23  N   UNL     1      -1.095  13.783  19.330  0.00  0.00    +0.000 NA
ATOM     24  C   UNL     1      -1.891  12.543  19.533  0.00  0.00    +0.000 C 
ATOM     25  C   UNL     1      -1.162  11.457  20.362  0.00  0.00    +0.000 C 
ATOM     26  N   UNL     1       0.053  10.990  19.679  0.00  0.00    +0.000 NA
ATOM     27  C   UNL     1       0.820  10.079  20.528  0.00  0.00    +0.000 C 
ATOM     28  C   UNL     1       0.887  12.116  19.218  0.00  0.00    +0.000 C 
ATOM     29  C   UNL     1       0.113  13.317  18.600  0.00  0.00    +0.000 C 
ENDBRANCH   7  23
TORSDOF 2
ENDMDL
MODEL 8
REMARK VINA RESULT:      -6.4      1.270      2.257
REMARK  Name = 
REMARK  4 active torsions:
REMARK  status: ('A' for Active; 'I' for Inactive)
REMARK    1  A    between atoms: C_1  and  C_2
REMARK    2  A    between atoms: C_6  and  C_7
REMARK    3  A    between atoms: C_13  and  N_14
REMARK    4  A    between atoms: N_17  and  C_18
REMARK                            x       y       z     vdW  Elec       q    Type
REMARK                         _______ _______ _______ _____ _____    ______ ____
ROOT
ATOM      1  C   UNL     1      -0.206  11.143  21.978  0.00  0.00    +0.000 A 
ATOM      2  C   UNL     1      -1.153  10.779  22.928  0.00  0.00    +0.000 A 
ATOM      3  C   UNL     1      -2.061  11.712  23.381  0.00  0.00    +0.000 A 
ATOM      4  C   UNL     1      -2.071  13.035  22.895  0.00  0.00    +0.000 A 
ATOM      5  C   UNL     1      -1.026  13.503  22.077  0.00  0.00    +0.000 A 
ATOM      6  C   UNL     1      -0.069  12.520  21.692  0.00  0.00    +0.000 A 
ATOM      7  C   UNL     1      -0.837  14.968  21.556  0.00  0.00    +0.000 C 
ATOM      8  C   UNL     1      -1.508  16.076  22.482  0.00  0.00    +0.000 C 
ATOM      9  C   UNL     1      -3.008  16.249  22.358  0.00  0.00    +0.000 A 
ATOM     10  C   UNL     1      -3.636  17.499  22.399  0.00  0.00    +0.000 A 
ATOM     11  C   UNL     1      -5.010  17.609  22.141  0.00  0.00    +0.000 A 
ATOM     12  C   UNL     1      -5.750  16.489  21.768  0.00  0.00    +0.000 A 
ATOM     13  C   UNL     1      -5.158  15.237  21.840  0.00  0.00    +0.000 A 
ATOM     14  C   UNL     1      -3.835  15.133  22.275  0.00  0.00    +0.000 A 
ATOM     15  S   UNL     1      -3.529  13.843  23.459  0.00  0.00    +0.000 S 
ENDROOT
BRANCH   1  21
ATOM     16  C   UNL     1       1.802   9.331  17.727  0.00  0.00    +0.000 C 
ATOM     17  C   UNL     1       1.457   9.156  19.169  0.00  0.00    +0.000 A 
ATOM     18  C   UNL     1       1.732   7.953  19.831  0.00  0.00    +0.000 A 
ATOM     19  C   UNL     1       1.389   7.797  21.171  0.00  0.00    +0.000 A 
ATOM     20  C   UNL     1       0.769   8.852  21.843  0.00  0.00    +0.000 A 
ATOM     21  C   UNL     1       0.493  10.087  21.217  0.00  0.00    +0.000 A 
ATOM     22  C   UNL     1       0.848  10.218  19.867  0.00  0.00    +0.000 A 
ENDBRANCH   1  21
BRANCH   7  23
ATOM     23  N   UNL     1      -1.115  15.112  20.077  0.00  0.00    +0.000 NA
ATOM     24  C   UNL     1      -0.206  14.349  19.180  0.00  0.00    +0.000 C 
ATOM     25  C   UNL     1       1.252  14.872  19.171  0.00  0.00    +0.000 C 
ATOM     26  N   UNL     1       1.322  16.249  18.660  0.00  0.00    +0.000 NA
ATOM     27  C   UNL     1       2.673  16.794  18.794  0.00  0.00    +0.000 C 
ATOM     28  C   UNL     1       0.328  17.124  19.309  0.00  0.00    +0.000 C 
ATOM     29  C   UNL     1      -1.079  16.494  19.532  0.00  0.00    +0.000 C 
ENDBRANCH   7  23
TORSDOF 2
ENDMDL
MODEL 9
REMARK VINA RESULT:      -6.4      2.075      4.622
REMARK  Name = 
REMARK  4 active torsions:
REMARK  status: ('A' for Active; 'I' for Inactive)
REMARK    1  A    between atoms: C_1  and  C_2
REMARK    2  A    between atoms: C_6  and  C_7
REMARK    3  A    between atoms: C_13  and  N_14
REMARK    4  A    between atoms: N_17  and  C_18
REMARK                            x       y       z     vdW  Elec       q    Type
REMARK                         _______ _______ _______ _____ _____    ______ ____
ROOT
ATOM      1  C   UNL     1       1.500   9.945  18.934  0.00  0.00    +0.000 A 
ATOM      2  C   UNL     1       2.326  10.559  18.000  0.00  0.00    +0.000 A 
ATOM      3  C   UNL     1       2.349  11.935  17.907  0.00  0.00    +0.000 A 
ATOM      4  C   UNL     1       1.565  12.748  18.750  0.00  0.00    +0.000 A 
ATOM      5  C   UNL     1       0.582  12.179  19.580  0.00  0.00    +0.000 A 
ATOM      6  C   UNL     1       0.545  10.754  19.590  0.00  0.00    +0.000 A 
ATOM      7  C   UNL     1      -0.439  12.954  20.481  0.00  0.00    +0.000 C 
ATOM      8  C   UNL     1      -0.768  14.425  19.967  0.00  0.00    +0.000 C 
ATOM      9  C   UNL     1       0.265  15.493  20.257  0.00  0.00    +0.000 A 
ATOM     10  C   UNL     1      -0.074  16.800  20.627  0.00  0.00    +0.000 A 
ATOM     11  C   UNL     1       0.922  17.707  21.016  0.00  0.00    +0.000 A 
ATOM     12  C   UNL     1       2.250  17.296  21.113  0.00  0.00    +0.000 A 
ATOM     13  C   UNL     1       2.604  16.042  20.638  0.00  0.00    +0.000 A 
ATOM     14  C   UNL     1       1.619  15.221  20.085  0.00  0.00    +0.000 A 
ATOM     15  S   UNL     1       2.068  14.424  18.561  0.00  0.00    +0.000 S 
ENDROOT
BRANCH   1  21
ATOM     16  C   UNL     1       3.093   5.292  17.836  0.00  0.00    +0.000 C 
ATOM     17  C   UNL     1       2.492   6.256  18.804  0.00  0.00    +0.000 A 
ATOM     18  C   UNL     1       2.090   5.836  20.078  0.00  0.00    +0.000 A 
ATOM     19  C   UNL     1       1.514   6.741  20.965  0.00  0.00    +0.000 A 
ATOM     20  C   UNL     1       1.343   8.069  20.568  0.00  0.00    +0.000 A 
ATOM     21  C   UNL     1       1.754   8.537  19.301  0.00  0.00    +0.000 A 
ATOM     22  C   UNL     1       2.330   7.604  18.427  0.00  0.00    +0.000 A 
ENDBRANCH   1  21
BRANCH   7  23
ATOM     23  N   UNL     1      -0.132  12.841  21.957  0.00  0.00    +0.000 NA
ATOM     24  C   UNL     1      -0.725  11.662  22.643  0.00  0.00    +0.000 C 
ATOM     25  C   UNL     1      -2.268  11.711  22.754  0.00  0.00    +0.000 C 
ATOM     26  N   UNL     1      -2.711  12.854  23.566  0.00  0.00    +0.000 NA
ATOM     27  C   UNL     1      -4.167  12.986  23.544  0.00  0.00    +0.000 C 
ATOM     28  C   UNL     1      -2.055  14.107  23.147  0.00  0.00    +0.000 C 
ATOM     29  C   UNL     1      -0.541  13.992  22.804  0.00  0.00    +0.000 C 
ENDBRANCH   7  23
TORSDOF 2
ENDMDL
