MODEL 1
REMARK VINA RESULT:      -8.5      0.000      0.000
REMARK  Name = 
REMARK  4 active torsions:
REMARK  status: ('A' for Active; 'I' for Inactive)
REMARK    1  A    between atoms: N_3  and  C_4
REMARK    2  A    between atoms: C_11  and  O_12
REMARK    3  A    between atoms: N_14  and  C_15
REMARK    4  A    between atoms: C_18  and  C_19
REMARK                            x       y       z     vdW  Elec       q    Type
REMARK                         _______ _______ _______ _____ _____    ______ ____
ROOT
ATOM      1  O   UNL     1       2.097   8.571  17.061  0.00  0.00    +0.000 OA
ATOM      2  C   UNL     1       2.103   8.255  18.246  0.00  0.00    +0.000 C 
ATOM      3  N   UNL     1       2.749   7.165  18.804  0.00  0.00    +0.000 N 
ATOM      4  N   UNL     1       1.402   8.966  19.199  0.00  0.00    +0.000 N 
ATOM      5  H   UNL     1       2.465   6.914  19.737  0.00  0.00    +0.000 HD
ATOM      6  H   UNL     1       1.559   8.731  20.166  0.00  0.00    +0.000 HD
ENDROOT
BRANCH   3   7
ATOM      7  C   UNL     1       3.617   6.261  18.148  0.00  0.00    +0.000 A 
ATOM      8  C   UNL     1       4.817   6.662  17.548  0.00  0.00    +0.000 A 
ATOM      9  C   UNL     1       5.680   5.736  16.936  0.00  0.00    +0.000 A 
ATOM     10  C   UNL     1       5.369   4.378  16.918  0.00  0.00    +0.000 A 
ATOM     11  C   UNL     1       4.179   3.977  17.498  0.00  0.00    +0.000 A 
ATOM     12  C   UNL     1       3.302   4.902  18.098  0.00  0.00    +0.000 A 
ATOM     13  C   UNL     1       2.088   4.178  18.609  0.00  0.00    +0.000 C 
ATOM     14  C   UNL     1       2.168   2.835  17.854  0.00  0.00    +0.000 C 
ATOM     15  C   UNL     1       3.659   2.576  17.595  0.00  0.00    +0.000 C 
BRANCH  14  16
ATOM     16  O   UNL     1       1.567   1.777  18.591  0.00  0.00    +0.000 OA
ATOM     17  H   UNL     1       0.661   1.651  18.262  0.00  0.00    +0.000 HD
ENDBRANCH  14  16
ENDBRANCH   3   7
BRANCH   4  18
ATOM     18  C   UNL     1       0.484  10.061  18.932  0.00  0.00    +0.000 C 
ATOM     19  C   UNL     1       1.145  11.431  18.821  0.00  0.00    +0.000 C 
ATOM     20  C   UNL     1       0.019  12.453  19.023  0.00  0.00    +0.000 C 
ATOM     21  C   UNL     1      -1.208  11.673  19.531  0.00  0.00    +0.000 C 
ATOM     22  C   UNL     1      -0.647  10.292  19.936  0.00  0.00    +0.000 C 
BRANCH  21  23
ATOM     23  C   UNL     1      -2.377  11.547  18.566  0.00  0.00    +0.000 A 
ATOM     24  C   UNL     1      -2.120  11.115  17.251  0.00  0.00    +0.000 A 
ATOM     25  C   UNL     1      -3.146  11.033  16.301  0.00  0.00    +0.000 A 
ATOM     26  C   UNL     1      -4.448  11.383  16.647  0.00  0.00    +0.000 A 
ATOM     27  C   UNL     1      -4.725  11.803  17.945  0.00  0.00    +0.000 A 
ATOM     28  C   UNL     1      -3.699  11.881  18.886  0.00  0.00    +0.000 A 
ATOM     29  F   UNL     1      -4.018  12.310  20.115  0.00  0.00    +0.000 F 
ENDBRANCH  21  23
ENDBRANCH   4  18
TORSDOF 4
ENDMDL
MODEL 2
REMARK VINA RESULT:      -8.4      1.209      1.265
REMARK  Name = 
REMARK  4 active torsions:
REMARK  status: ('A' for Active; 'I' for Inactive)
REMARK    1  A    between atoms: N_3  and  C_4
REMARK    2  A    between atoms: C_11  and  O_12
REMARK    3  A    between atoms: N_14  and  C_15
REMARK    4  A    between atoms: C_18  and  C_19
REMARK                            x       y       z     vdW  Elec       q    Type
REMARK                         _______ _______ _______ _____ _____    ______ ____
ROOT
ATOM      1  O   UNL     1       1.905   7.596  17.828  0.00  0.00    +0.000 OA
ATOM      2  C   UNL     1       2.055   7.717  19.039  0.00  0.00    +0.000 C 
ATOM      3  N   UNL     1       2.706   6.831  19.881  0.00  0.00    +0.000 N 
ATOM      4  N   UNL     1       1.534   8.786  19.741  0.00  0.00    +0.000 N 
ATOM      5  H   UNL     1       2.538   6.953  20.867  0.00  0.00    +0.000 HD
ATOM      6  H   UNL     1       1.807   8.889  20.705  0.00  0.00    +0.000 HD
ENDROOT
BRANCH   3   7
ATOM      7  C   UNL     1       3.421   5.670  19.507  0.00  0.00    +0.000 A 
ATOM      8  C   UNL     1       4.810   5.657  19.332  0.00  0.00    +0.000 A 
ATOM      9  C   UNL     1       5.500   4.479  18.997  0.00  0.00    +0.000 A 
ATOM     10  C   UNL     1       4.818   3.275  18.839  0.00  0.00    +0.000 A 
ATOM     11  C   UNL     1       3.444   3.283  18.997  0.00  0.00    +0.000 A 
ATOM     12  C   UNL     1       2.744   4.463  19.316  0.00  0.00    +0.000 A 
ATOM     13  C   UNL     1       1.274   4.165  19.392  0.00  0.00    +0.000 C 
ATOM     14  C   UNL     1       1.177   2.811  18.660  0.00  0.00    +0.000 C 
ATOM     15  C   UNL     1       2.524   2.107  18.880  0.00  0.00    +0.000 C 
BRANCH  14  16
ATOM     16  O   UNL     1       0.088   2.029  19.134  0.00  0.00    +0.000 OA
ATOM     17  H   UNL     1       0.362   1.588  19.956  0.00  0.00    +0.000 HD
ENDBRANCH  14  16
ENDBRANCH   3   7
BRANCH   4  18
ATOM     18  C   UNL     1       0.654   9.806  19.196  0.00  0.00    +0.000 C 
ATOM     19  C   UNL     1       1.314  11.164  18.980  0.00  0.00    +0.000 C 
ATOM     20  C   UNL     1       0.164  12.174  18.876  0.00  0.00    +0.000 C 
ATOM     21  C   UNL     1      -1.115  11.441  19.321  0.00  0.00    +0.000 C 
ATOM     22  C   UNL     1      -0.606  10.147  19.994  0.00  0.00    +0.000 C 
BRANCH  21  23
ATOM     23  C   UNL     1      -2.139  11.148  18.235  0.00  0.00    +0.000 A 
ATOM     24  C   UNL     1      -1.743  10.373  17.128  0.00  0.00    +0.000 A 
ATOM     25  C   UNL     1      -2.623  10.118  16.070  0.00  0.00    +0.000 A 
ATOM     26  C   UNL     1      -3.917  10.632  16.097  0.00  0.00    +0.000 A 
ATOM     27  C   UNL     1      -4.331  11.391  17.186  0.00  0.00    +0.000 A 
ATOM     28  C   UNL     1      -3.450  11.641  18.238  0.00  0.00    +0.000 A 
ATOM     29  F   UNL     1      -3.896  12.394  19.253  0.00  0.00    +0.000 F 
ENDBRANCH  21  23
ENDBRANCH   4  18
TORSDOF 4
ENDMDL
MODEL 3
REMARK VINA RESULT:      -8.4      6.479      9.703
REMARK  Name = 
REMARK  4 active torsions:
REMARK  status: ('A' for Active; 'I' for Inactive)
REMARK    1  A    between atoms: N_3  and  C_4
REMARK    2  A    between atoms: C_11  and  O_12
REMARK    3  A    between atoms: N_14  and  C_15
REMARK    4  A    between atoms: C_18  and  C_19
REMARK                            x       y       z     vdW  Elec       q    Type
REMARK                         _______ _______ _______ _____ _____    ______ ____
ROOT
ATOM      1  O   UNL     1       8.431   7.900  18.756  0.00  0.00    +0.000 OA
ATOM      2  C   UNL     1       7.867   8.573  17.899  0.00  0.00    +0.000 C 
ATOM      3  N   UNL     1       8.049   9.925  17.664  0.00  0.00    +0.000 N 
ATOM      4  N   UNL     1       6.914   8.039  17.054  0.00  0.00    +0.000 N 
ATOM      5  H   UNL     1       7.348  10.372  17.094  0.00  0.00    +0.000 HD
ATOM      6  H   UNL     1       6.593   8.614  16.292  0.00  0.00    +0.000 HD
ENDROOT
BRANCH   3   7
ATOM      7  C   UNL     1       8.991  10.778  18.283  0.00  0.00    +0.000 A 
ATOM      8  C   UNL     1      10.063  10.299  19.047  0.00  0.00    +0.000 A 
ATOM      9  C   UNL     1      11.007  11.169  19.620  0.00  0.00    +0.000 A 
ATOM     10  C   UNL     1      10.911  12.545  19.433  0.00  0.00    +0.000 A 
ATOM     11  C   UNL     1       9.849  13.027  18.691  0.00  0.00    +0.000 A 
ATOM     12  C   UNL     1       8.889  12.163  18.128  0.00  0.00    +0.000 A 
ATOM     13  C   UNL     1       7.848  12.973  17.410  0.00  0.00    +0.000 C 
ATOM     14  C   UNL     1       8.075  14.384  17.991  0.00  0.00    +0.000 C 
ATOM     15  C   UNL     1       9.562  14.460  18.364  0.00  0.00    +0.000 C 
BRANCH  14  16
ATOM     16  O   UNL     1       7.707  15.402  17.069  0.00  0.00    +0.000 OA
ATOM     17  H   UNL     1       7.613  16.238  17.558  0.00  0.00    +0.000 HD
ENDBRANCH  14  16
ENDBRANCH   3   7
BRANCH   4  18
ATOM     18  C   UNL     1       6.363   6.697  17.142  0.00  0.00    +0.000 C 
ATOM     19  C   UNL     1       7.181   5.627  16.426  0.00  0.00    +0.000 C 
ATOM     20  C   UNL     1       6.229   4.441  16.225  0.00  0.00    +0.000 C 
ATOM     21  C   UNL     1       4.812   4.944  16.560  0.00  0.00    +0.000 C 
ATOM     22  C   UNL     1       4.948   6.482  16.604  0.00  0.00    +0.000 C 
BRANCH  21  23
ATOM     23  C   UNL     1       4.184   4.396  17.833  0.00  0.00    +0.000 A 
ATOM     24  C   UNL     1       4.947   3.534  18.643  0.00  0.00    +0.000 A 
ATOM     25  C   UNL     1       4.405   2.953  19.796  0.00  0.00    +0.000 A 
ATOM     26  C   UNL     1       3.088   3.222  20.161  0.00  0.00    +0.000 A 
ATOM     27  C   UNL     1       2.320   4.079  19.379  0.00  0.00    +0.000 A 
ATOM     28  C   UNL     1       2.866   4.655  18.233  0.00  0.00    +0.000 A 
ATOM     29  F   UNL     1       2.076   5.458  17.506  0.00  0.00    +0.000 F 
ENDBRANCH  21  23
ENDBRANCH   4  18
TORSDOF 4
ENDMDL
MODEL 4
REMARK VINA RESULT:      -8.4      1.475      1.596
REMARK  Name = 
REMARK  4 active torsions:
REMARK  status: ('A' for Active; 'I' for Inactive)
REMARK    1  A    between atoms: N_3  and  C_4
REMARK    2  A    between atoms: C_11  and  O_12
REMARK    3  A    between atoms: N_14  and  C_15
REMARK    4  A    between atoms: C_18  and  C_19
REMARK                            x       y       z     vdW  Elec       q    Type
REMARK                         _______ _______ _______ _____ _____    ______ ____
ROOT
ATOM      1  O   UNL     1       1.613   7.713  17.710  0.00  0.00    +0.000 OA
ATOM      2  C   UNL     1       1.956   7.969  18.859  0.00  0.00    +0.000 C 
ATOM      3  N   UNL     1       2.758   7.186  19.673  0.00  0.00    +0.000 N 
ATOM      4  N   UNL     1       1.531   9.106  19.517  0.00  0.00    +0.000 N 
ATOM      5  H   UNL     1       2.751   7.416  20.654  0.00  0.00    +0.000 HD
ATOM      6  H   UNL     1       1.957   9.317  20.406  0.00  0.00    +0.000 HD
ENDROOT
BRANCH   3   7
ATOM      7  C   UNL     1       3.430   5.995  19.313  0.00  0.00    +0.000 A 
ATOM      8  C   UNL     1       4.437   5.955  18.341  0.00  0.00    +0.000 A 
ATOM      9  C   UNL     1       5.115   4.763  18.031  0.00  0.00    +0.000 A 
ATOM     10  C   UNL     1       4.811   3.578  18.695  0.00  0.00    +0.000 A 
ATOM     11  C   UNL     1       3.809   3.607  19.648  0.00  0.00    +0.000 A 
ATOM     12  C   UNL     1       3.113   4.793  19.952  0.00  0.00    +0.000 A 
ATOM     13  C   UNL     1       2.071   4.507  20.995  0.00  0.00    +0.000 C 
ATOM     14  C   UNL     1       1.956   2.970  20.927  0.00  0.00    +0.000 C 
ATOM     15  C   UNL     1       3.331   2.456  20.479  0.00  0.00    +0.000 C 
BRANCH  14  16
ATOM     16  O   UNL     1       1.563   2.413  22.175  0.00  0.00    +0.000 OA
ATOM     17  H   UNL     1       0.711   2.805  22.431  0.00  0.00    +0.000 HD
ENDBRANCH  14  16
ENDBRANCH   3   7
BRANCH   4  18
ATOM     18  C   UNL     1       0.549  10.054  19.019  0.00  0.00    +0.000 C 
ATOM     19  C   UNL     1       1.033  11.500  18.965  0.00  0.00    +0.000 C 
ATOM     20  C   UNL     1      -0.234  12.360  18.888  0.00  0.00    +0.000 C 
ATOM     21  C   UNL     1      -1.424  11.430  19.191  0.00  0.00    +0.000 C 
ATOM     22  C   UNL     1      -0.779  10.152  19.771  0.00  0.00    +0.000 C 
BRANCH  21  23
ATOM     23  C   UNL     1      -2.351  11.116  18.026  0.00  0.00    +0.000 A 
ATOM     24  C   UNL     1      -1.842  10.377  16.941  0.00  0.00    +0.000 A 
ATOM     25  C   UNL     1      -2.629  10.105  15.816  0.00  0.00    +0.000 A 
ATOM     26  C   UNL     1      -3.940  10.569  15.752  0.00  0.00    +0.000 A 
ATOM     27  C   UNL     1      -4.466  11.293  16.817  0.00  0.00    +0.000 A 
ATOM     28  C   UNL     1      -3.677  11.559  17.936  0.00  0.00    +0.000 A 
ATOM     29  F   UNL     1      -4.227  12.277  18.925  0.00  0.00    +0.000 F 
ENDBRANCH  21  23
ENDBRANCH   4  18
TORSDOF 4
ENDMDL
MODEL 5
REMARK VINA RESULT:      -8.3      3.247      8.672
REMARK  Name = 
REMARK  4 active torsions:
REMARK  status: ('A' for Active; 'I' for Inactive)
REMARK    1  A    between atoms: N_3  and  C_4
REMARK    2  A    between atoms: C_11  and  O_12
REMARK    3  A    between atoms: N_14  and  C_15
REMARK    4  A    between atoms: C_18  and  C_19
REMARK                            x       y       z     vdW  Elec       q    Type
REMARK                         _______ _______ _______ _____ _____    ______ ____
ROOT
ATOM      1  O   UNL     1       1.450   8.505  19.708  0.00  0.00    +0.000 OA
ATOM      2  C   UNL     1       1.894   8.883  18.629  0.00  0.00    +0.000 C 
ATOM      3  N   UNL     1       1.617  10.085  18.001  0.00  0.00    +0.000 N 
ATOM      4  N   UNL     1       2.735   8.098  17.865  0.00  0.00    +0.000 N 
ATOM      5  H   UNL     1       1.867  10.142  17.026  0.00  0.00    +0.000 HD
ATOM      6  H   UNL     1       3.165   8.523  17.059  0.00  0.00    +0.000 HD
ENDROOT
BRANCH   3   7
ATOM      7  C   UNL     1       0.858  11.161  18.517  0.00  0.00    +0.000 A 
ATOM      8  C   UNL     1       1.439  12.254  19.172  0.00  0.00    +0.000 A 
ATOM      9  C   UNL     1       0.664  13.328  19.642  0.00  0.00    +0.000 A 
ATOM     10  C   UNL     1      -0.716  13.345  19.457  0.00  0.00    +0.000 A 
ATOM     11  C   UNL     1      -1.298  12.264  18.821  0.00  0.00    +0.000 A 
ATOM     12  C   UNL     1      -0.530  11.175  18.363  0.00  0.00    +0.000 A 
ATOM     13  C   UNL     1      -1.438  10.149  17.747  0.00  0.00    +0.000 C 
ATOM     14  C   UNL     1      -2.819  10.565  18.293  0.00  0.00    +0.000 C 
ATOM     15  C   UNL     1      -2.753  12.083  18.515  0.00  0.00    +0.000 C 
BRANCH  14  16
ATOM     16  O   UNL     1      -3.870  10.204  17.406  0.00  0.00    +0.000 OA
ATOM     17  H   UNL     1      -3.699  10.620  16.544  0.00  0.00    +0.000 HD
ENDBRANCH  14  16
ENDBRANCH   3   7
BRANCH   4  18
ATOM     18  C   UNL     1       3.091   6.718  18.147  0.00  0.00    +0.000 C 
ATOM     19  C   UNL     1       4.451   6.290  17.605  0.00  0.00    +0.000 C 
ATOM     20  C   UNL     1       4.423   4.757  17.575  0.00  0.00    +0.000 C 
ATOM     21  C   UNL     1       2.962   4.332  17.820  0.00  0.00    +0.000 C 
ATOM     22  C   UNL     1       2.146   5.630  17.635  0.00  0.00    +0.000 C 
BRANCH  21  23
ATOM     23  C   UNL     1       2.667   3.663  19.154  0.00  0.00    +0.000 A 
ATOM     24  C   UNL     1       1.380   3.803  19.707  0.00  0.00    +0.000 A 
ATOM     25  C   UNL     1       1.065   3.258  20.957  0.00  0.00    +0.000 A 
ATOM     26  C   UNL     1       2.031   2.565  21.681  0.00  0.00    +0.000 A 
ATOM     27  C   UNL     1       3.307   2.407  21.149  0.00  0.00    +0.000 A 
ATOM     28  C   UNL     1       3.614   2.951  19.902  0.00  0.00    +0.000 A 
ATOM     29  F   UNL     1       4.863   2.786  19.445  0.00  0.00    +0.000 F 
ENDBRANCH  21  23
ENDBRANCH   4  18
TORSDOF 4
ENDMDL
MODEL 6
REMARK VINA RESULT:      -8.2      3.249      8.993
REMARK  Name = 
REMARK  4 active torsions:
REMARK  status: ('A' for Active; 'I' for Inactive)
REMARK    1  A    between atoms: N_3  and  C_4
REMARK    2  A    between atoms: C_11  and  O_12
REMARK    3  A    between atoms: N_14  and  C_15
REMARK    4  A    between atoms: C_18  and  C_19
REMARK                            x       y       z     vdW  Elec       q    Type
REMARK                         _______ _______ _______ _____ _____    ______ ____
ROOT
ATOM      1  O   UNL     1       1.966   8.624  17.350  0.00  0.00    +0.000 OA
ATOM      2  C   UNL     1       1.833   8.496  18.562  0.00  0.00    +0.000 C 
ATOM      3  N   UNL     1       1.371   9.457  19.446  0.00  0.00    +0.000 N 
ATOM      4  N   UNL     1       2.182   7.334  19.221  0.00  0.00    +0.000 N 
ATOM      5  H   UNL     1       1.545   9.280  20.422  0.00  0.00    +0.000 HD
ATOM      6  H   UNL     1       1.923   7.252  20.191  0.00  0.00    +0.000 HD
ENDROOT
BRANCH   3   7
ATOM      7  C   UNL     1       0.857  10.734  19.123  0.00  0.00    +0.000 A 
ATOM      8  C   UNL     1       1.604  11.911  19.263  0.00  0.00    +0.000 A 
ATOM      9  C   UNL     1       1.081  13.164  18.898  0.00  0.00    +0.000 A 
ATOM     10  C   UNL     1      -0.202  13.272  18.370  0.00  0.00    +0.000 A 
ATOM     11  C   UNL     1      -0.951  12.116  18.240  0.00  0.00    +0.000 A 
ATOM     12  C   UNL     1      -0.440  10.860  18.620  0.00  0.00    +0.000 A 
ATOM     13  C   UNL     1      -1.486   9.806  18.392  0.00  0.00    +0.000 C 
ATOM     14  C   UNL     1      -2.773  10.648  18.261  0.00  0.00    +0.000 C 
ATOM     15  C   UNL     1      -2.340  12.007  17.693  0.00  0.00    +0.000 C 
BRANCH  14  16
ATOM     16  O   UNL     1      -3.740  10.012  17.435  0.00  0.00    +0.000 OA
ATOM     17  H   UNL     1      -3.303   9.291  16.951  0.00  0.00    +0.000 HD
ENDBRANCH  14  16
ENDBRANCH   3   7
BRANCH   4  18
ATOM     18  C   UNL     1       2.855   6.193  18.624  0.00  0.00    +0.000 C 
ATOM     19  C   UNL     1       2.002   4.932  18.527  0.00  0.00    +0.000 C 
ATOM     20  C   UNL     1       2.991   3.775  18.339  0.00  0.00    +0.000 C 
ATOM     21  C   UNL     1       4.397   4.338  18.620  0.00  0.00    +0.000 C 
ATOM     22  C   UNL     1       4.139   5.703  19.296  0.00  0.00    +0.000 C 
BRANCH  21  23
ATOM     23  C   UNL     1       5.326   4.467  17.422  0.00  0.00    +0.000 A 
ATOM     24  C   UNL     1       4.798   4.251  16.135  0.00  0.00    +0.000 A 
ATOM     25  C   UNL     1       5.614   4.301  14.999  0.00  0.00    +0.000 A 
ATOM     26  C   UNL     1       6.975   4.565  15.127  0.00  0.00    +0.000 A 
ATOM     27  C   UNL     1       7.515   4.791  16.389  0.00  0.00    +0.000 A 
ATOM     28  C   UNL     1       6.696   4.742  17.517  0.00  0.00    +0.000 A 
ATOM     29  F   UNL     1       7.271   4.949  18.709  0.00  0.00    +0.000 F 
ENDBRANCH  21  23
ENDBRANCH   4  18
TORSDOF 4
ENDMDL
MODEL 7
REMARK VINA RESULT:      -8.2      6.601      9.837
REMARK  Name = 
REMARK  4 active torsions:
REMARK  status: ('A' for Active; 'I' for Inactive)
REMARK    1  A    between atoms: N_3  and  C_4
REMARK    2  A    between atoms: C_11  and  O_12
REMARK    3  A    between atoms: N_14  and  C_15
REMARK    4  A    between atoms: C_18  and  C_19
REMARK                            x       y       z     vdW  Elec       q    Type
REMARK                         _______ _______ _______ _____ _____    ______ ____
ROOT
ATOM      1  O   UNL     1       8.473   8.120  18.864  0.00  0.00    +0.000 OA
ATOM      2  C   UNL     1       7.974   8.736  17.929  0.00  0.00    +0.000 C 
ATOM      3  N   UNL     1       8.205  10.061  17.600  0.00  0.00    +0.000 N 
ATOM      4  N   UNL     1       7.052   8.160  17.077  0.00  0.00    +0.000 N 
ATOM      5  H   UNL     1       7.548  10.478  16.959  0.00  0.00    +0.000 HD
ATOM      6  H   UNL     1       6.787   8.680  16.256  0.00  0.00    +0.000 HD
ENDROOT
BRANCH   3   7
ATOM      7  C   UNL     1       9.137  10.938  18.201  0.00  0.00    +0.000 A 
ATOM      8  C   UNL     1      10.264  10.486  18.898  0.00  0.00    +0.000 A 
ATOM      9  C   UNL     1      11.195  11.381  19.454  0.00  0.00    +0.000 A 
ATOM     10  C   UNL     1      11.029  12.756  19.316  0.00  0.00    +0.000 A 
ATOM     11  C   UNL     1       9.912  13.211  18.639  0.00  0.00    +0.000 A 
ATOM     12  C   UNL     1       8.966  12.320  18.095  0.00  0.00    +0.000 A 
ATOM     13  C   UNL     1       7.856  13.103  17.452  0.00  0.00    +0.000 C 
ATOM     14  C   UNL     1       8.048  14.505  18.066  0.00  0.00    +0.000 C 
ATOM     15  C   UNL     1       9.547  14.638  18.372  0.00  0.00    +0.000 C 
BRANCH  14  16
ATOM     16  O   UNL     1       7.591  15.532  17.195  0.00  0.00    +0.000 OA
ATOM     17  H   UNL     1       6.720  15.833  17.506  0.00  0.00    +0.000 HD
ENDBRANCH  14  16
ENDBRANCH   3   7
BRANCH   4  18
ATOM     18  C   UNL     1       6.460   6.842  17.239  0.00  0.00    +0.000 C 
ATOM     19  C   UNL     1       7.342   5.688  16.772  0.00  0.00    +0.000 C 
ATOM     20  C   UNL     1       6.397   4.496  16.576  0.00  0.00    +0.000 C 
ATOM     21  C   UNL     1       4.961   5.048  16.647  0.00  0.00    +0.000 C 
ATOM     22  C   UNL     1       5.128   6.579  16.534  0.00  0.00    +0.000 C 
BRANCH  21  23
ATOM     23  C   UNL     1       4.147   4.658  17.872  0.00  0.00    +0.000 A 
ATOM     24  C   UNL     1       3.779   5.665  18.785  0.00  0.00    +0.000 A 
ATOM     25  C   UNL     1       3.079   5.360  19.958  0.00  0.00    +0.000 A 
ATOM     26  C   UNL     1       2.734   4.041  20.243  0.00  0.00    +0.000 A 
ATOM     27  C   UNL     1       3.079   3.032  19.350  0.00  0.00    +0.000 A 
ATOM     28  C   UNL     1       3.775   3.343  18.182  0.00  0.00    +0.000 A 
ATOM     29  F   UNL     1       4.100   2.330  17.366  0.00  0.00    +0.000 F 
ENDBRANCH  21  23
ENDBRANCH   4  18
TORSDOF 4
ENDMDL
MODEL 8
REMARK VINA RESULT:      -8.2      3.559      9.332
REMARK  Name = 
REMARK  4 active torsions:
REMARK  status: ('A' for Active; 'I' for Inactive)
REMARK    1  A    between atoms: N_3  and  C_4
REMARK    2  A    between atoms: C_11  and  O_12
REMARK    3  A    between atoms: N_14  and  C_15
REMARK    4  A    between atoms: C_18  and  C_19
REMARK                            x       y       z     vdW  Elec       q    Type
REMARK                         _______ _______ _______ _____ _____    ______ ____
ROOT
ATOM      1  O   UNL     1       1.827   6.918  20.460  0.00  0.00    +0.000 OA
ATOM      2  C   UNL     1       1.839   7.838  19.649  0.00  0.00    +0.000 C 
ATOM      3  N   UNL     1       1.206   9.062  19.782  0.00  0.00    +0.000 N 
ATOM      4  N   UNL     1       2.489   7.738  18.434  0.00  0.00    +0.000 N 
ATOM      5  H   UNL     1       1.116   9.607  18.940  0.00  0.00    +0.000 HD
ATOM      6  H   UNL     1       2.570   8.574  17.879  0.00  0.00    +0.000 HD
ENDROOT
BRANCH   3   7
ATOM      7  C   UNL     1       0.511   9.542  20.917  0.00  0.00    +0.000 A 
ATOM      8  C   UNL     1       0.661   8.982  22.192  0.00  0.00    +0.000 A 
ATOM      9  C   UNL     1      -0.013   9.505  23.309  0.00  0.00    +0.000 A 
ATOM     10  C   UNL     1      -0.848  10.612  23.183  0.00  0.00    +0.000 A 
ATOM     11  C   UNL     1      -1.010  11.163  21.925  0.00  0.00    +0.000 A 
ATOM     12  C   UNL     1      -0.352  10.634  20.798  0.00  0.00    +0.000 A 
ATOM     13  C   UNL     1      -0.745  11.417  19.577  0.00  0.00    +0.000 C 
ATOM     14  C   UNL     1      -2.015  12.151  20.057  0.00  0.00    +0.000 C 
ATOM     15  C   UNL     1      -1.849  12.351  21.570  0.00  0.00    +0.000 C 
BRANCH  14  16
ATOM     16  O   UNL     1      -2.202  13.385  19.376  0.00  0.00    +0.000 OA
ATOM     17  H   UNL     1      -3.089  13.384  18.978  0.00  0.00    +0.000 HD
ENDBRANCH  14  16
ENDBRANCH   3   7
BRANCH   4  18
ATOM     18  C   UNL     1       3.108   6.535  17.904  0.00  0.00    +0.000 C 
ATOM     19  C   UNL     1       2.245   5.281  17.999  0.00  0.00    +0.000 C 
ATOM     20  C   UNL     1       3.210   4.099  17.852  0.00  0.00    +0.000 C 
ATOM     21  C   UNL     1       4.637   4.670  17.967  0.00  0.00    +0.000 C 
ATOM     22  C   UNL     1       4.438   6.098  18.521  0.00  0.00    +0.000 C 
BRANCH  21  23
ATOM     23  C   UNL     1       5.470   4.668  16.694  0.00  0.00    +0.000 A 
ATOM     24  C   UNL     1       4.853   4.289  15.486  0.00  0.00    +0.000 A 
ATOM     25  C   UNL     1       5.581   4.214  14.293  0.00  0.00    +0.000 A 
ATOM     26  C   UNL     1       6.941   4.515  14.283  0.00  0.00    +0.000 A 
ATOM     27  C   UNL     1       7.567   4.902  15.464  0.00  0.00    +0.000 A 
ATOM     28  C   UNL     1       6.836   4.976  16.649  0.00  0.00    +0.000 A 
ATOM     29  F   UNL     1       7.493   5.335  17.761  0.00  0.00    +0.000 F 
ENDBRANCH  21  23
ENDBRANCH   4  18
TORSDOF 4
ENDMDL
MODEL 9
REMARK VINA RESULT:      -8.2      6.784      9.756
REMARK  Name = 
REMARK  4 active torsions:
REMARK  status: ('A' for Active; 'I' for Inactive)
REMARK    1  A    between atoms: N_3  and  C_4
REMARK    2  A    between atoms: C_11  and  O_12
REMARK    3  A    between atoms: N_14  and  C_15
REMARK    4  A    between atoms: C_18  and  C_19
REMARK                            x       y       z     vdW  Elec       q    Type
REMARK                         _______ _______ _______ _____ _____    ______ ____
ROOT
ATOM      1  O   UNL     1       8.411   7.878  18.715  0.00  0.00    +0.000 OA
ATOM      2  C   UNL     1       7.868   8.534  17.832  0.00  0.00    +0.000 C 
ATOM      3  N   UNL     1       8.046   9.884  17.583  0.00  0.00    +0.000 N 
ATOM      4  N   UNL     1       6.944   7.980  16.968  0.00  0.00    +0.000 N 
ATOM      5  H   UNL     1       7.359  10.317  16.986  0.00  0.00    +0.000 HD
ATOM      6  H   UNL     1       6.641   8.540  16.188  0.00  0.00    +0.000 HD
ENDROOT
BRANCH   3   7
ATOM      7  C   UNL     1       8.963  10.754  18.216  0.00  0.00    +0.000 A 
ATOM      8  C   UNL     1      10.045  10.293  18.977  0.00  0.00    +0.000 A 
ATOM      9  C   UNL     1      10.964  11.180  19.564  0.00  0.00    +0.000 A 
ATOM     10  C   UNL     1      10.831  12.556  19.396  0.00  0.00    +0.000 A 
ATOM     11  C   UNL     1       9.758  13.019  18.656  0.00  0.00    +0.000 A 
ATOM     12  C   UNL     1       8.824  12.137  18.079  0.00  0.00    +0.000 A 
ATOM     13  C   UNL     1       7.763  12.929  17.368  0.00  0.00    +0.000 C 
ATOM     14  C   UNL     1       7.950  14.337  17.969  0.00  0.00    +0.000 C 
ATOM     15  C   UNL     1       9.434  14.448  18.348  0.00  0.00    +0.000 C 
BRANCH  14  16
ATOM     16  O   UNL     1       7.558  15.357  17.060  0.00  0.00    +0.000 OA
ATOM     17  H   UNL     1       6.724  15.087  16.638  0.00  0.00    +0.000 HD
ENDBRANCH  14  16
ENDBRANCH   3   7
BRANCH   4  18
ATOM     18  C   UNL     1       6.402   6.635  17.060  0.00  0.00    +0.000 C 
ATOM     19  C   UNL     1       7.377   5.528  16.670  0.00  0.00    +0.000 C 
ATOM     20  C   UNL     1       6.512   4.298  16.372  0.00  0.00    +0.000 C 
ATOM     21  C   UNL     1       5.051   4.782  16.311  0.00  0.00    +0.000 C 
ATOM     22  C   UNL     1       5.157   6.321  16.227  0.00  0.00    +0.000 C 
BRANCH  21  23
ATOM     23  C   UNL     1       4.142   4.339  17.448  0.00  0.00    +0.000 A 
ATOM     24  C   UNL     1       2.781   4.108  17.171  0.00  0.00    +0.000 A 
ATOM     25  C   UNL     1       1.885   3.753  18.186  0.00  0.00    +0.000 A 
ATOM     26  C   UNL     1       2.332   3.623  19.499  0.00  0.00    +0.000 A 
ATOM     27  C   UNL     1       3.675   3.837  19.792  0.00  0.00    +0.000 A 
ATOM     28  C   UNL     1       4.563   4.189  18.776  0.00  0.00    +0.000 A 
ATOM     29  F   UNL     1       5.841   4.402  19.117  0.00  0.00    +0.000 F 
ENDBRANCH  21  23
ENDBRANCH   4  18
TORSDOF 4
ENDMDL
