MODEL 1
REMARK VINA RESULT:      -9.7      0.000      0.000
REMARK  Name = 
REMARK  4 active torsions:
REMARK  status: ('A' for Active; 'I' for Inactive)
REMARK    1  A    between atoms: C_1  and  C_2
REMARK    2  A    between atoms: C_7  and  C_8
REMARK    3  A    between atoms: C_11  and  N_12
REMARK    4  A    between atoms: C_14  and  C_15
REMARK                            x       y       z     vdW  Elec       q    Type
REMARK                         _______ _______ _______ _____ _____    ______ ____
ROOT
ATOM      1  N   UNL     1       0.952  11.243  19.961  0.00  0.00    +0.000 N 
ATOM      2  N   UNL     1       1.904  12.210  20.215  0.00  0.00    +0.000 NA
ATOM      3  C   UNL     1       1.254  13.206  20.835  0.00  0.00    +0.000 A 
ATOM      4  C   UNL     1      -0.115  12.883  20.968  0.00  0.00    +0.000 A 
ATOM      5  C   UNL     1      -0.334  11.736  20.206  0.00  0.00    +0.000 A 
ATOM      6  C   UNL     1      -1.670  11.417  19.618  0.00  0.00    +0.000 A 
ATOM      7  C   UNL     1      -1.870  10.720  18.421  0.00  0.00    +0.000 A 
ATOM      8  C   UNL     1      -3.082  10.843  17.710  0.00  0.00    +0.000 A 
ATOM      9  C   UNL     1      -4.091  11.698  18.151  0.00  0.00    +0.000 A 
ATOM     10  C   UNL     1      -3.963  12.320  19.383  0.00  0.00    +0.000 A 
ATOM     11  C   UNL     1      -2.795  12.113  20.126  0.00  0.00    +0.000 A 
ATOM     12  S   UNL     1      -2.677  12.821  21.749  0.00  0.00    +0.000 S 
ATOM     13  O   UNL     1      -2.498  11.731  22.686  0.00  0.00    +0.000 OA
ATOM     14  O   UNL     1      -3.763  13.777  21.907  0.00  0.00    +0.000 OA
ATOM     15  C   UNL     1      -1.159  13.736  21.592  0.00  0.00    +0.000 C 
ENDROOT
BRANCH   3  16
ATOM     16  C   UNL     1       1.786  14.553  21.148  0.00  0.00    +0.000 C 
ATOM     17  O   UNL     1       2.160  14.784  22.304  0.00  0.00    +0.000 OA
ATOM     18  N   UNL     1       1.921  15.541  20.174  0.00  0.00    +0.000 N 
ATOM     19  C   UNL     1       1.748  15.375  18.733  0.00  0.00    +0.000 C 
ATOM     20  C   UNL     1       2.977  15.912  17.977  0.00  0.00    +0.000 C 
ATOM     21  O   UNL     1       3.301  17.258  18.363  0.00  0.00    +0.000 OA
ATOM     22  C   UNL     1       3.576  17.333  19.769  0.00  0.00    +0.000 C 
ATOM     23  C   UNL     1       2.353  16.888  20.573  0.00  0.00    +0.000 C 
ENDBRANCH   3  16
BRANCH   1  27
ATOM     24  C   UNL     1       2.245   7.346  18.656  0.00  0.00    +0.000 A 
ATOM     25  C   UNL     1       1.931   7.604  20.001  0.00  0.00    +0.000 A 
ATOM     26  C   UNL     1       1.532   8.882  20.453  0.00  0.00    +0.000 A 
ATOM     27  C   UNL     1       1.381   9.939  19.550  0.00  0.00    +0.000 A 
ATOM     28  C   UNL     1       1.709   9.712  18.209  0.00  0.00    +0.000 A 
ATOM     29  C   UNL     1       2.130   8.443  17.779  0.00  0.00    +0.000 A 
BRANCH  24  36
ATOM     30  C   UNL     1       5.034   6.684  17.417  0.00  0.00    +0.000 C 
ATOM     31  C   UNL     1       3.911   5.691  17.558  0.00  0.00    +0.000 A 
ATOM     32  C   UNL     1       4.155   4.394  17.046  0.00  0.00    +0.000 A 
ATOM     33  C   UNL     1       3.179   3.403  17.071  0.00  0.00    +0.000 A 
ATOM     34  C   UNL     1       1.946   3.682  17.634  0.00  0.00    +0.000 A 
ATOM     35  C   UNL     1       1.696   4.952  18.167  0.00  0.00    +0.000 A 
ATOM     36  C   UNL     1       2.651   6.001  18.134  0.00  0.00    +0.000 A 
ENDBRANCH  24  36
ENDBRANCH   1  27
TORSDOF 3
ENDMDL
MODEL 2
REMARK VINA RESULT:      -9.6      1.325      1.748
REMARK  Name = 
REMARK  4 active torsions:
REMARK  status: ('A' for Active; 'I' for Inactive)
REMARK    1  A    between atoms: C_1  and  C_2
REMARK    2  A    between atoms: C_7  and  C_8
REMARK    3  A    between atoms: C_11  and  N_12
REMARK    4  A    between atoms: C_14  and  C_15
REMARK                            x       y       z     vdW  Elec       q    Type
REMARK                         _______ _______ _______ _____ _____    ______ ____
ROOT
ATOM      1  N   UNL     1       1.154  10.871  18.966  0.00  0.00    +0.000 N 
ATOM      2  N   UNL     1       2.105  11.866  18.859  0.00  0.00    +0.000 NA
ATOM      3  C   UNL     1       1.495  12.996  19.246  0.00  0.00    +0.000 A 
ATOM      4  C   UNL     1       0.151  12.727  19.589  0.00  0.00    +0.000 A 
ATOM      5  C   UNL     1      -0.114  11.419  19.189  0.00  0.00    +0.000 A 
ATOM      6  C   UNL     1      -1.491  10.959  18.837  0.00  0.00    +0.000 A 
ATOM      7  C   UNL     1      -1.785   9.965  17.896  0.00  0.00    +0.000 A 
ATOM      8  C   UNL     1      -3.059   9.897  17.296  0.00  0.00    +0.000 A 
ATOM      9  C   UNL     1      -4.042  10.844  17.582  0.00  0.00    +0.000 A 
ATOM     10  C   UNL     1      -3.814  11.776  18.583  0.00  0.00    +0.000 A 
ATOM     11  C   UNL     1      -2.579  11.772  19.241  0.00  0.00    +0.000 A 
ATOM     12  S   UNL     1      -2.328  12.892  20.595  0.00  0.00    +0.000 S 
ATOM     13  O   UNL     1      -2.041  12.095  21.770  0.00  0.00    +0.000 OA
ATOM     14  O   UNL     1      -3.414  13.860  20.590  0.00  0.00    +0.000 OA
ATOM     15  C   UNL     1      -0.849  13.723  20.055  0.00  0.00    +0.000 C 
ENDROOT
BRANCH   3  16
ATOM     16  C   UNL     1       2.025  14.375  19.132  0.00  0.00    +0.000 C 
ATOM     17  O   UNL     1       1.508  15.138  18.306  0.00  0.00    +0.000 OA
ATOM     18  N   UNL     1       3.044  14.848  19.956  0.00  0.00    +0.000 N 
ATOM     19  C   UNL     1       3.606  14.172  21.123  0.00  0.00    +0.000 C 
ATOM     20  C   UNL     1       3.590  15.106  22.346  0.00  0.00    +0.000 C 
ATOM     21  O   UNL     1       4.208  16.374  22.066  0.00  0.00    +0.000 OA
ATOM     22  C   UNL     1       3.536  17.041  20.988  0.00  0.00    +0.000 C 
ATOM     23  C   UNL     1       3.595  16.189  19.718  0.00  0.00    +0.000 C 
ENDBRANCH   3  16
BRANCH   1  27
ATOM     24  C   UNL     1       2.421   6.766  18.649  0.00  0.00    +0.000 A 
ATOM     25  C   UNL     1       1.917   7.289  19.851  0.00  0.00    +0.000 A 
ATOM     26  C   UNL     1       1.523   8.639  19.983  0.00  0.00    +0.000 A 
ATOM     27  C   UNL     1       1.570   9.503  18.884  0.00  0.00    +0.000 A 
ATOM     28  C   UNL     1       2.090   9.011  17.681  0.00  0.00    +0.000 A 
ATOM     29  C   UNL     1       2.504   7.673  17.573  0.00  0.00    +0.000 A 
BRANCH  24  36
ATOM     30  C   UNL     1       5.271   5.636  19.247  0.00  0.00    +0.000 C 
ATOM     31  C   UNL     1       4.125   4.813  18.720  0.00  0.00    +0.000 A 
ATOM     32  C   UNL     1       4.405   3.452  18.449  0.00  0.00    +0.000 A 
ATOM     33  C   UNL     1       3.444   2.601  17.912  0.00  0.00    +0.000 A 
ATOM     34  C   UNL     1       2.174   3.089  17.660  0.00  0.00    +0.000 A 
ATOM     35  C   UNL     1       1.873   4.426  17.945  0.00  0.00    +0.000 A 
ATOM     36  C   UNL     1       2.830   5.336  18.463  0.00  0.00    +0.000 A 
ENDBRANCH  24  36
ENDBRANCH   1  27
TORSDOF 3
ENDMDL
MODEL 3
REMARK VINA RESULT:      -9.4      1.398      2.029
REMARK  Name = 
REMARK  4 active torsions:
REMARK  status: ('A' for Active; 'I' for Inactive)
REMARK    1  A    between atoms: C_1  and  C_2
REMARK    2  A    between atoms: C_7  and  C_8
REMARK    3  A    between atoms: C_11  and  N_12
REMARK    4  A    between atoms: C_14  and  C_15
REMARK                            x       y       z     vdW  Elec       q    Type
REMARK                         _______ _______ _______ _____ _____    ______ ____
ROOT
ATOM      1  N   UNL     1       1.238  10.702  18.943  0.00  0.00    +0.000 N 
ATOM      2  N   UNL     1       2.226  11.654  18.800  0.00  0.00    +0.000 NA
ATOM      3  C   UNL     1       1.660  12.820  19.143  0.00  0.00    +0.000 A 
ATOM      4  C   UNL     1       0.307  12.617  19.494  0.00  0.00    +0.000 A 
ATOM      5  C   UNL     1      -0.008  11.306  19.143  0.00  0.00    +0.000 A 
ATOM      6  C   UNL     1      -1.402  10.887  18.807  0.00  0.00    +0.000 A 
ATOM      7  C   UNL     1      -1.735   9.870  17.904  0.00  0.00    +0.000 A 
ATOM      8  C   UNL     1      -3.011   9.829  17.305  0.00  0.00    +0.000 A 
ATOM      9  C   UNL     1      -3.956  10.823  17.554  0.00  0.00    +0.000 A 
ATOM     10  C   UNL     1      -3.692  11.782  18.519  0.00  0.00    +0.000 A 
ATOM     11  C   UNL     1      -2.458  11.755  19.179  0.00  0.00    +0.000 A 
ATOM     12  S   UNL     1      -2.163  12.915  20.490  0.00  0.00    +0.000 S 
ATOM     13  O   UNL     1      -1.907  12.153  21.694  0.00  0.00    +0.000 OA
ATOM     14  O   UNL     1      -3.211  13.924  20.447  0.00  0.00    +0.000 OA
ATOM     15  C   UNL     1      -0.654  13.667  19.921  0.00  0.00    +0.000 C 
ENDROOT
BRANCH   3  16
ATOM     16  C   UNL     1       2.243  14.173  18.978  0.00  0.00    +0.000 C 
ATOM     17  O   UNL     1       2.244  14.680  17.849  0.00  0.00    +0.000 OA
ATOM     18  N   UNL     1       2.738  14.903  20.057  0.00  0.00    +0.000 N 
ATOM     19  C   UNL     1       2.612  14.563  21.471  0.00  0.00    +0.000 C 
ATOM     20  C   UNL     1       2.035  15.751  22.261  0.00  0.00    +0.000 C 
ATOM     21  O   UNL     1       2.771  16.963  22.028  0.00  0.00    +0.000 OA
ATOM     22  C   UNL     1       2.758  17.307  20.635  0.00  0.00    +0.000 C 
ATOM     23  C   UNL     1       3.400  16.191  19.807  0.00  0.00    +0.000 C 
ENDBRANCH   3  16
BRANCH   1  27
ATOM     24  C   UNL     1       2.315   6.531  18.926  0.00  0.00    +0.000 A 
ATOM     25  C   UNL     1       2.380   7.311  17.759  0.00  0.00    +0.000 A 
ATOM     26  C   UNL     1       2.005   8.673  17.739  0.00  0.00    +0.000 A 
ATOM     27  C   UNL     1       1.601   9.316  18.913  0.00  0.00    +0.000 A 
ATOM     28  C   UNL     1       1.506   8.554  20.083  0.00  0.00    +0.000 A 
ATOM     29  C   UNL     1       1.858   7.193  20.082  0.00  0.00    +0.000 A 
BRANCH  24  36
ATOM     30  C   UNL     1       5.258   5.527  19.223  0.00  0.00    +0.000 C 
ATOM     31  C   UNL     1       4.059   4.621  19.117  0.00  0.00    +0.000 A 
ATOM     32  C   UNL     1       4.324   3.230  19.111  0.00  0.00    +0.000 A 
ATOM     33  C   UNL     1       3.305   2.293  18.967  0.00  0.00    +0.000 A 
ATOM     34  C   UNL     1       1.997   2.729  18.853  0.00  0.00    +0.000 A 
ATOM     35  C   UNL     1       1.715   4.099  18.881  0.00  0.00    +0.000 A 
ATOM     36  C   UNL     1       2.724   5.090  18.993  0.00  0.00    +0.000 A 
ENDBRANCH  24  36
ENDBRANCH   1  27
TORSDOF 3
ENDMDL
MODEL 4
REMARK VINA RESULT:      -9.3      1.238      2.096
REMARK  Name = 
REMARK  4 active torsions:
REMARK  status: ('A' for Active; 'I' for Inactive)
REMARK    1  A    between atoms: C_1  and  C_2
REMARK    2  A    between atoms: C_7  and  C_8
REMARK    3  A    between atoms: C_11  and  N_12
REMARK    4  A    between atoms: C_14  and  C_15
REMARK                            x       y       z     vdW  Elec       q    Type
REMARK                         _______ _______ _______ _____ _____    ______ ____
ROOT
ATOM      1  N   UNL     1       0.885  11.138  19.111  0.00  0.00    +0.000 N 
ATOM      2  N   UNL     1       1.794  12.176  19.063  0.00  0.00    +0.000 NA
ATOM      3  C   UNL     1       1.113  13.272  19.426  0.00  0.00    +0.000 A 
ATOM      4  C   UNL     1      -0.234  12.940  19.694  0.00  0.00    +0.000 A 
ATOM      5  C   UNL     1      -0.417  11.625  19.270  0.00  0.00    +0.000 A 
ATOM      6  C   UNL     1      -1.751  11.108  18.841  0.00  0.00    +0.000 A 
ATOM      7  C   UNL     1      -1.949  10.111  17.878  0.00  0.00    +0.000 A 
ATOM      8  C   UNL     1      -3.185   9.992  17.210  0.00  0.00    +0.000 A 
ATOM      9  C   UNL     1      -4.224  10.890  17.452  0.00  0.00    +0.000 A 
ATOM     10  C   UNL     1      -4.092  11.821  18.470  0.00  0.00    +0.000 A 
ATOM     11  C   UNL     1      -2.895  11.866  19.193  0.00  0.00    +0.000 A 
ATOM     12  S   UNL     1      -2.767  12.982  20.568  0.00  0.00    +0.000 S 
ATOM     13  O   UNL     1      -2.507  12.187  21.750  0.00  0.00    +0.000 OA
ATOM     14  O   UNL     1      -3.895  13.900  20.512  0.00  0.00    +0.000 OA
ATOM     15  C   UNL     1      -1.302  13.884  20.115  0.00  0.00    +0.000 C 
ENDROOT
BRANCH   3  16
ATOM     16  C   UNL     1       1.584  14.676  19.352  0.00  0.00    +0.000 C 
ATOM     17  O   UNL     1       1.624  15.226  18.244  0.00  0.00    +0.000 OA
ATOM     18  N   UNL     1       1.932  15.401  20.489  0.00  0.00    +0.000 N 
ATOM     19  C   UNL     1       1.732  14.996  21.878  0.00  0.00    +0.000 C 
ATOM     20  C   UNL     1       0.995  16.098  22.660  0.00  0.00    +0.000 C 
ATOM     21  O   UNL     1       1.636  17.377  22.525  0.00  0.00    +0.000 OA
ATOM     22  C   UNL     1       1.696  17.774  21.147  0.00  0.00    +0.000 C 
ATOM     23  C   UNL     1       2.494  16.751  20.335  0.00  0.00    +0.000 C 
ENDBRANCH   3  16
BRANCH   1  27
ATOM     24  C   UNL     1       2.345   7.095  18.827  0.00  0.00    +0.000 A 
ATOM     25  C   UNL     1       1.886   7.627  20.043  0.00  0.00    +0.000 A 
ATOM     26  C   UNL     1       1.429   8.958  20.162  0.00  0.00    +0.000 A 
ATOM     27  C   UNL     1       1.367   9.790  19.041  0.00  0.00    +0.000 A 
ATOM     28  C   UNL     1       1.841   9.291  17.822  0.00  0.00    +0.000 A 
ATOM     29  C   UNL     1       2.317   7.973  17.724  0.00  0.00    +0.000 A 
BRANCH  24  36
ATOM     30  C   UNL     1       1.242   4.643  20.415  0.00  0.00    +0.000 C 
ATOM     31  C   UNL     1       2.332   4.562  19.378  0.00  0.00    +0.000 A 
ATOM     32  C   UNL     1       2.901   3.283  19.167  0.00  0.00    +0.000 A 
ATOM     33  C   UNL     1       3.949   3.088  18.273  0.00  0.00    +0.000 A 
ATOM     34  C   UNL     1       4.432   4.166  17.552  0.00  0.00    +0.000 A 
ATOM     35  C   UNL     1       3.865   5.433  17.731  0.00  0.00    +0.000 A 
ATOM     36  C   UNL     1       2.817   5.683  18.654  0.00  0.00    +0.000 A 
ENDBRANCH  24  36
ENDBRANCH   1  27
TORSDOF 3
ENDMDL
MODEL 5
REMARK VINA RESULT:      -9.2      0.525      1.223
REMARK  Name = 
REMARK  4 active torsions:
REMARK  status: ('A' for Active; 'I' for Inactive)
REMARK    1  A    between atoms: C_1  and  C_2
REMARK    2  A    between atoms: C_7  and  C_8
REMARK    3  A    between atoms: C_11  and  N_12
REMARK    4  A    between atoms: C_14  and  C_15
REMARK                            x       y       z     vdW  Elec       q    Type
REMARK                         _______ _______ _______ _____ _____    ______ ____
ROOT
ATOM      1  N   UNL     1       0.905  11.105  20.013  0.00  0.00    +0.000 N 
ATOM      2  N   UNL     1       1.860  12.064  20.283  0.00  0.00    +0.000 NA
ATOM      3  C   UNL     1       1.194  13.100  20.815  0.00  0.00    +0.000 A 
ATOM      4  C   UNL     1      -0.187  12.809  20.874  0.00  0.00    +0.000 A 
ATOM      5  C   UNL     1      -0.383  11.633  20.153  0.00  0.00    +0.000 A 
ATOM      6  C   UNL     1      -1.685  11.312  19.495  0.00  0.00    +0.000 A 
ATOM      7  C   UNL     1      -1.824  10.563  18.320  0.00  0.00    +0.000 A 
ATOM      8  C   UNL     1      -2.986  10.676  17.529  0.00  0.00    +0.000 A 
ATOM      9  C   UNL     1      -4.002  11.569  17.865  0.00  0.00    +0.000 A 
ATOM     10  C   UNL     1      -3.938  12.245  19.073  0.00  0.00    +0.000 A 
ATOM     11  C   UNL     1      -2.825  12.051  19.898  0.00  0.00    +0.000 A 
ATOM     12  S   UNL     1      -2.795  12.831  21.492  0.00  0.00    +0.000 S 
ATOM     13  O   UNL     1      -2.699  11.783  22.487  0.00  0.00    +0.000 OA
ATOM     14  O   UNL     1      -3.868  13.814  21.536  0.00  0.00    +0.000 OA
ATOM     15  C   UNL     1      -1.250  13.709  21.392  0.00  0.00    +0.000 C 
ENDROOT
BRANCH   3  16
ATOM     16  C   UNL     1       1.734  14.451  21.100  0.00  0.00    +0.000 C 
ATOM     17  O   UNL     1       2.079  14.714  22.259  0.00  0.00    +0.000 OA
ATOM     18  N   UNL     1       1.909  15.405  20.100  0.00  0.00    +0.000 N 
ATOM     19  C   UNL     1       1.774  15.195  18.661  0.00  0.00    +0.000 C 
ATOM     20  C   UNL     1       3.030  15.693  17.924  0.00  0.00    +0.000 C 
ATOM     21  O   UNL     1       3.361  17.047  18.275  0.00  0.00    +0.000 OA
ATOM     22  C   UNL     1       3.598  17.164  19.686  0.00  0.00    +0.000 C 
ATOM     23  C   UNL     1       2.347  16.758  20.469  0.00  0.00    +0.000 C 
ENDBRANCH   3  16
BRANCH   1  27
ATOM     24  C   UNL     1       2.192   7.128  18.971  0.00  0.00    +0.000 A 
ATOM     25  C   UNL     1       1.828   7.462  20.286  0.00  0.00    +0.000 A 
ATOM     26  C   UNL     1       1.431   8.767  20.653  0.00  0.00    +0.000 A 
ATOM     27  C   UNL     1       1.331   9.775  19.689  0.00  0.00    +0.000 A 
ATOM     28  C   UNL     1       1.709   9.473  18.377  0.00  0.00    +0.000 A 
ATOM     29  C   UNL     1       2.129   8.177  18.032  0.00  0.00    +0.000 A 
BRANCH  24  36
ATOM     30  C   UNL     1       1.038   4.476  20.149  0.00  0.00    +0.000 C 
ATOM     31  C   UNL     1       2.090   4.539  19.073  0.00  0.00    +0.000 A 
ATOM     32  C   UNL     1       2.598   3.297  18.621  0.00  0.00    +0.000 A 
ATOM     33  C   UNL     1       3.608   3.225  17.667  0.00  0.00    +0.000 A 
ATOM     34  C   UNL     1       4.113   4.395  17.127  0.00  0.00    +0.000 A 
ATOM     35  C   UNL     1       3.606   5.630  17.545  0.00  0.00    +0.000 A 
ATOM     36  C   UNL     1       2.599   5.752  18.538  0.00  0.00    +0.000 A 
ENDBRANCH  24  36
ENDBRANCH   1  27
TORSDOF 3
ENDMDL
MODEL 6
REMARK VINA RESULT:      -9.2      1.411      2.250
REMARK  Name = 
REMARK  4 active torsions:
REMARK  status: ('A' for Active; 'I' for Inactive)
REMARK    1  A    between atoms: C_1  and  C_2
REMARK    2  A    between atoms: C_7  and  C_8
REMARK    3  A    between atoms: C_11  and  N_12
REMARK    4  A    between atoms: C_14  and  C_15
REMARK                            x       y       z     vdW  Elec       q    Type
REMARK                         _______ _______ _______ _____ _____    ______ ____
ROOT
ATOM      1  N   UNL     1       0.942  11.131  19.093  0.00  0.00    +0.000 N 
ATOM      2  N   UNL     1       1.828  12.186  19.004  0.00  0.00    +0.000 NA
ATOM      3  C   UNL     1       1.128  13.278  19.342  0.00  0.00    +0.000 A 
ATOM      4  C   UNL     1      -0.208  12.926  19.637  0.00  0.00    +0.000 A 
ATOM      5  C   UNL     1      -0.368  11.595  19.254  0.00  0.00    +0.000 A 
ATOM      6  C   UNL     1      -1.696  11.037  18.858  0.00  0.00    +0.000 A 
ATOM      7  C   UNL     1      -1.884  10.008  17.927  0.00  0.00    +0.000 A 
ATOM      8  C   UNL     1      -3.125   9.843  17.278  0.00  0.00    +0.000 A 
ATOM      9  C   UNL     1      -4.180  10.727  17.506  0.00  0.00    +0.000 A 
ATOM     10  C   UNL     1      -4.056  11.689  18.496  0.00  0.00    +0.000 A 
ATOM     11  C   UNL     1      -2.851  11.781  19.202  0.00  0.00    +0.000 A 
ATOM     12  S   UNL     1      -2.731  12.940  20.542  0.00  0.00    +0.000 S 
ATOM     13  O   UNL     1      -2.440  12.185  21.743  0.00  0.00    +0.000 OA
ATOM     14  O   UNL     1      -3.879  13.832  20.474  0.00  0.00    +0.000 OA
ATOM     15  C   UNL     1      -1.291  13.859  20.043  0.00  0.00    +0.000 C 
ENDROOT
BRANCH   3  16
ATOM     16  C   UNL     1       1.568  14.688  19.221  0.00  0.00    +0.000 C 
ATOM     17  O   UNL     1       0.963  15.428  18.435  0.00  0.00    +0.000 OA
ATOM     18  N   UNL     1       2.600  15.212  19.998  0.00  0.00    +0.000 N 
ATOM     19  C   UNL     1       3.263  14.558  21.123  0.00  0.00    +0.000 C 
ATOM     20  C   UNL     1       3.256  15.475  22.359  0.00  0.00    +0.000 C 
ATOM     21  O   UNL     1       3.781  16.780  22.066  0.00  0.00    +0.000 OA
ATOM     22  C   UNL     1       3.015  17.418  21.034  0.00  0.00    +0.000 C 
ATOM     23  C   UNL     1       3.057  16.587  19.751  0.00  0.00    +0.000 C 
ENDBRANCH   3  16
BRANCH   1  27
ATOM     24  C   UNL     1       2.458   7.099  19.053  0.00  0.00    +0.000 A 
ATOM     25  C   UNL     1       2.506   7.914  17.909  0.00  0.00    +0.000 A 
ATOM     26  C   UNL     1       1.989   9.228  17.895  0.00  0.00    +0.000 A 
ATOM     27  C   UNL     1       1.452   9.793  19.056  0.00  0.00    +0.000 A 
ATOM     28  C   UNL     1       1.373   8.994  20.202  0.00  0.00    +0.000 A 
ATOM     29  C   UNL     1       1.867   7.678  20.194  0.00  0.00    +0.000 A 
BRANCH  24  36
ATOM     30  C   UNL     1       1.033   4.669  20.401  0.00  0.00    +0.000 C 
ATOM     31  C   UNL     1       2.382   4.599  19.735  0.00  0.00    +0.000 A 
ATOM     32  C   UNL     1       3.036   3.344  19.779  0.00  0.00    +0.000 A 
ATOM     33  C   UNL     1       4.308   3.165  19.243  0.00  0.00    +0.000 A 
ATOM     34  C   UNL     1       4.939   4.232  18.628  0.00  0.00    +0.000 A 
ATOM     35  C   UNL     1       4.296   5.472  18.555  0.00  0.00    +0.000 A 
ATOM     36  C   UNL     1       3.014   5.709  19.115  0.00  0.00    +0.000 A 
ENDBRANCH  24  36
ENDBRANCH   1  27
TORSDOF 3
ENDMDL
MODEL 7
REMARK VINA RESULT:      -9.2      1.325      1.999
REMARK  Name = 
REMARK  4 active torsions:
REMARK  status: ('A' for Active; 'I' for Inactive)
REMARK    1  A    between atoms: C_1  and  C_2
REMARK    2  A    between atoms: C_7  and  C_8
REMARK    3  A    between atoms: C_11  and  N_12
REMARK    4  A    between atoms: C_14  and  C_15
REMARK                            x       y       z     vdW  Elec       q    Type
REMARK                         _______ _______ _______ _____ _____    ______ ____
ROOT
ATOM      1  N   UNL     1       1.072  11.056  19.022  0.00  0.00    +0.000 N 
ATOM      2  N   UNL     1       1.960  12.110  18.937  0.00  0.00    +0.000 NA
ATOM      3  C   UNL     1       1.262  13.201  19.282  0.00  0.00    +0.000 A 
ATOM      4  C   UNL     1      -0.074  12.849  19.578  0.00  0.00    +0.000 A 
ATOM      5  C   UNL     1      -0.237  11.521  19.189  0.00  0.00    +0.000 A 
ATOM      6  C   UNL     1      -1.566  10.967  18.792  0.00  0.00    +0.000 A 
ATOM      7  C   UNL     1      -1.758   9.943  17.856  0.00  0.00    +0.000 A 
ATOM      8  C   UNL     1      -3.000   9.784  17.209  0.00  0.00    +0.000 A 
ATOM      9  C   UNL     1      -4.053  10.668  17.444  0.00  0.00    +0.000 A 
ATOM     10  C   UNL     1      -3.926  11.625  18.438  0.00  0.00    +0.000 A 
ATOM     11  C   UNL     1      -2.720  11.711  19.142  0.00  0.00    +0.000 A 
ATOM     12  S   UNL     1      -2.595  12.862  20.487  0.00  0.00    +0.000 S 
ATOM     13  O   UNL     1      -2.302  12.101  21.684  0.00  0.00    +0.000 OA
ATOM     14  O   UNL     1      -3.741  13.757  20.426  0.00  0.00    +0.000 OA
ATOM     15  C   UNL     1      -1.155  13.782  19.991  0.00  0.00    +0.000 C 
ENDROOT
BRANCH   3  16
ATOM     16  C   UNL     1       1.704  14.611  19.168  0.00  0.00    +0.000 C 
ATOM     17  O   UNL     1       1.115  15.350  18.369  0.00  0.00    +0.000 OA
ATOM     18  N   UNL     1       2.720  15.136  19.964  0.00  0.00    +0.000 N 
ATOM     19  C   UNL     1       3.361  14.484  21.103  0.00  0.00    +0.000 C 
ATOM     20  C   UNL     1       3.330  15.403  22.337  0.00  0.00    +0.000 C 
ATOM     21  O   UNL     1       3.861  16.708  22.053  0.00  0.00    +0.000 OA
ATOM     22  C   UNL     1       3.115  17.344  21.005  0.00  0.00    +0.000 C 
ATOM     23  C   UNL     1       3.182  16.510  19.724  0.00  0.00    +0.000 C 
ENDBRANCH   3  16
BRANCH   1  27
ATOM     24  C   UNL     1       2.621   7.041  18.817  0.00  0.00    +0.000 A 
ATOM     25  C   UNL     1       1.976   7.522  19.969  0.00  0.00    +0.000 A 
ATOM     26  C   UNL     1       1.486   8.843  20.065  0.00  0.00    +0.000 A 
ATOM     27  C   UNL     1       1.580   9.717  18.977  0.00  0.00    +0.000 A 
ATOM     28  C   UNL     1       2.238   9.268  17.827  0.00  0.00    +0.000 A 
ATOM     29  C   UNL     1       2.744   7.959  17.755  0.00  0.00    +0.000 A 
BRANCH  24  36
ATOM     30  C   UNL     1       1.061   4.708  17.446  0.00  0.00    +0.000 C 
ATOM     31  C   UNL     1       2.431   4.569  18.057  0.00  0.00    +0.000 A 
ATOM     32  C   UNL     1       3.001   3.273  18.029  0.00  0.00    +0.000 A 
ATOM     33  C   UNL     1       4.238   3.007  18.606  0.00  0.00    +0.000 A 
ATOM     34  C   UNL     1       4.944   4.039  19.199  0.00  0.00    +0.000 A 
ATOM     35  C   UNL     1       4.406   5.330  19.215  0.00  0.00    +0.000 A 
ATOM     36  C   UNL     1       3.135   5.641  18.667  0.00  0.00    +0.000 A 
ENDBRANCH  24  36
ENDBRANCH   1  27
TORSDOF 3
ENDMDL
MODEL 8
REMARK VINA RESULT:      -9.2      1.269      1.579
REMARK  Name = 
REMARK  4 active torsions:
REMARK  status: ('A' for Active; 'I' for Inactive)
REMARK    1  A    between atoms: C_1  and  C_2
REMARK    2  A    between atoms: C_7  and  C_8
REMARK    3  A    between atoms: C_11  and  N_12
REMARK    4  A    between atoms: C_14  and  C_15
REMARK                            x       y       z     vdW  Elec       q    Type
REMARK                         _______ _______ _______ _____ _____    ______ ____
ROOT
ATOM      1  N   UNL     1       0.731  10.934  20.324  0.00  0.00    +0.000 N 
ATOM      2  N   UNL     1       1.708  11.864  20.619  0.00  0.00    +0.000 NA
ATOM      3  C   UNL     1       1.054  12.997  20.911  0.00  0.00    +0.000 A 
ATOM      4  C   UNL     1      -0.340  12.798  20.792  0.00  0.00    +0.000 A 
ATOM      5  C   UNL     1      -0.519  11.550  20.199  0.00  0.00    +0.000 A 
ATOM      6  C   UNL     1      -1.733  11.221  19.393  0.00  0.00    +0.000 A 
ATOM      7  C   UNL     1      -1.757  10.332  18.311  0.00  0.00    +0.000 A 
ATOM      8  C   UNL     1      -2.779  10.406  17.342  0.00  0.00    +0.000 A 
ATOM      9  C   UNL     1      -3.762  11.393  17.406  0.00  0.00    +0.000 A 
ATOM     10  C   UNL     1      -3.822  12.218  18.518  0.00  0.00    +0.000 A 
ATOM     11  C   UNL     1      -2.858  12.071  19.522  0.00  0.00    +0.000 A 
ATOM     12  S   UNL     1      -3.000  13.053  20.994  0.00  0.00    +0.000 S 
ATOM     13  O   UNL     1      -3.131  12.142  22.112  0.00  0.00    +0.000 OA
ATOM     14  O   UNL     1      -3.988  14.093  20.752  0.00  0.00    +0.000 OA
ATOM     15  C   UNL     1      -1.394  13.819  21.025  0.00  0.00    +0.000 C 
ENDROOT
BRANCH   3  16
ATOM     16  C   UNL     1       1.649  14.340  21.108  0.00  0.00    +0.000 C 
ATOM     17  O   UNL     1       1.939  14.693  22.259  0.00  0.00    +0.000 OA
ATOM     18  N   UNL     1       1.935  15.188  20.040  0.00  0.00    +0.000 N 
ATOM     19  C   UNL     1       1.874  14.853  18.620  0.00  0.00    +0.000 C 
ATOM     20  C   UNL     1       3.197  15.219  17.923  0.00  0.00    +0.000 C 
ATOM     21  O   UNL     1       3.581  16.581  18.173  0.00  0.00    +0.000 OA
ATOM     22  C   UNL     1       3.740  16.816  19.579  0.00  0.00    +0.000 C 
ATOM     23  C   UNL     1       2.424  16.547  20.314  0.00  0.00    +0.000 C 
ENDBRANCH   3  16
BRANCH   1  27
ATOM     24  C   UNL     1       1.802   6.766  20.128  0.00  0.00    +0.000 A 
ATOM     25  C   UNL     1       2.025   7.634  19.046  0.00  0.00    +0.000 A 
ATOM     26  C   UNL     1       1.655   8.997  19.081  0.00  0.00    +0.000 A 
ATOM     27  C   UNL     1       1.095   9.551  20.236  0.00  0.00    +0.000 A 
ATOM     28  C   UNL     1       0.843   8.702  21.319  0.00  0.00    +0.000 A 
ATOM     29  C   UNL     1       1.192   7.342  21.260  0.00  0.00    +0.000 A 
BRANCH  24  36
ATOM     30  C   UNL     1       4.591   5.677  19.237  0.00  0.00    +0.000 C 
ATOM     31  C   UNL     1       3.458   4.812  19.724  0.00  0.00    +0.000 A 
ATOM     32  C   UNL     1       3.693   3.416  19.725  0.00  0.00    +0.000 A 
ATOM     33  C   UNL     1       2.708   2.510  20.105  0.00  0.00    +0.000 A 
ATOM     34  C   UNL     1       1.475   2.984  20.518  0.00  0.00    +0.000 A 
ATOM     35  C   UNL     1       1.235   4.362  20.547  0.00  0.00    +0.000 A 
ATOM     36  C   UNL     1       2.198   5.320  20.138  0.00  0.00    +0.000 A 
ENDBRANCH  24  36
ENDBRANCH   1  27
TORSDOF 3
ENDMDL
MODEL 9
REMARK VINA RESULT:      -9.1      1.282      1.858
REMARK  Name = 
REMARK  4 active torsions:
REMARK  status: ('A' for Active; 'I' for Inactive)
REMARK    1  A    between atoms: C_1  and  C_2
REMARK    2  A    between atoms: C_7  and  C_8
REMARK    3  A    between atoms: C_11  and  N_12
REMARK    4  A    between atoms: C_14  and  C_15
REMARK                            x       y       z     vdW  Elec       q    Type
REMARK                         _______ _______ _______ _____ _____    ______ ____
ROOT
ATOM      1  N   UNL     1       0.944  11.071  19.167  0.00  0.00    +0.000 N 
ATOM      2  N   UNL     1       1.800  12.137  19.355  0.00  0.00    +0.000 NA
ATOM      3  C   UNL     1       1.026  13.162  19.738  0.00  0.00    +0.000 A 
ATOM      4  C   UNL     1      -0.327  12.757  19.784  0.00  0.00    +0.000 A 
ATOM      5  C   UNL     1      -0.390  11.493  19.200  0.00  0.00    +0.000 A 
ATOM      6  C   UNL     1      -1.630  10.983  18.542  0.00  0.00    +0.000 A 
ATOM      7  C   UNL     1      -1.652  10.096  17.459  0.00  0.00    +0.000 A 
ATOM      8  C   UNL     1      -2.783  10.012  16.621  0.00  0.00    +0.000 A 
ATOM      9  C   UNL     1      -3.886  10.842  16.815  0.00  0.00    +0.000 A 
ATOM     10  C   UNL     1      -3.933  11.655  17.937  0.00  0.00    +0.000 A 
ATOM     11  C   UNL     1      -2.845  11.658  18.815  0.00  0.00    +0.000 A 
ATOM     12  S   UNL     1      -2.952  12.614  20.307  0.00  0.00    +0.000 S 
ATOM     13  O   UNL     1      -2.810  11.699  21.421  0.00  0.00    +0.000 OA
ATOM     14  O   UNL     1      -4.105  13.495  20.199  0.00  0.00    +0.000 OA
ATOM     15  C   UNL     1      -1.485  13.611  20.156  0.00  0.00    +0.000 C 
ENDROOT
BRANCH   3  16
ATOM     16  C   UNL     1       1.435  14.579  19.880  0.00  0.00    +0.000 C 
ATOM     17  O   UNL     1       1.005  15.222  20.847  0.00  0.00    +0.000 OA
ATOM     18  N   UNL     1       2.321  15.187  18.994  0.00  0.00    +0.000 N 
ATOM     19  C   UNL     1       3.095  14.529  17.945  0.00  0.00    +0.000 C 
ATOM     20  C   UNL     1       4.586  14.891  18.068  0.00  0.00    +0.000 C 
ATOM     21  O   UNL     1       4.794  16.312  18.124  0.00  0.00    +0.000 OA
ATOM     22  C   UNL     1       4.103  16.884  19.245  0.00  0.00    +0.000 C 
ATOM     23  C   UNL     1       2.599  16.624  19.130  0.00  0.00    +0.000 C 
ENDBRANCH   3  16
BRANCH   1  27
ATOM     24  C   UNL     1       2.583   7.105  18.787  0.00  0.00    +0.000 A 
ATOM     25  C   UNL     1       2.639   8.028  17.729  0.00  0.00    +0.000 A 
ATOM     26  C   UNL     1       2.083   9.323  17.825  0.00  0.00    +0.000 A 
ATOM     27  C   UNL     1       1.496   9.756  19.017  0.00  0.00    +0.000 A 
ATOM     28  C   UNL     1       1.408   8.848  20.078  0.00  0.00    +0.000 A 
ATOM     29  C   UNL     1       1.942   7.553  19.958  0.00  0.00    +0.000 A 
BRANCH  24  36
ATOM     30  C   UNL     1       1.160   4.592  17.597  0.00  0.00    +0.000 C 
ATOM     31  C   UNL     1       2.538   4.579  18.205  0.00  0.00    +0.000 A 
ATOM     32  C   UNL     1       3.184   3.320  18.263  0.00  0.00    +0.000 A 
ATOM     33  C   UNL     1       4.438   3.169  18.846  0.00  0.00    +0.000 A 
ATOM     34  C   UNL     1       5.083   4.280  19.360  0.00  0.00    +0.000 A 
ATOM     35  C   UNL     1       4.470   5.535  19.289  0.00  0.00    +0.000 A 
ATOM     36  C   UNL     1       3.179   5.731  18.732  0.00  0.00    +0.000 A 
ENDBRANCH  24  36
ENDBRANCH   1  27
TORSDOF 3
ENDMDL
