MODEL 1
REMARK VINA RESULT:      -7.0      0.000      0.000
REMARK  Name = 
REMARK  11 active torsions:
REMARK  status: ('A' for Active; 'I' for Inactive)
REMARK    1  A    between atoms: C_1  and  O_2
REMARK    2  A    between atoms: O_2  and  C_3
REMARK    3  A    between atoms: C_5  and  O_6
REMARK    4  A    between atoms: O_6  and  C_7
REMARK    5  A    between atoms: C_8  and  N_9
REMARK    6  A    between atoms: C_10  and  C_12
REMARK    7  A    between atoms: N_17  and  C_18
REMARK    8  A    between atoms: C_26  and  O_27
REMARK    9  A    between atoms: O_27  and  C_28
REMARK   10  A    between atoms: C_29  and  O_30
REMARK   11  A    between atoms: O_30  and  C_31
REMARK                            x       y       z     vdW  Elec       q    Type
REMARK                         _______ _______ _______ _____ _____    ______ ____
ROOT
ATOM      1  C   UNL     1      -1.125  10.315  21.948  0.00  0.00    +0.000 C 
ATOM      2  C   UNL     1      -0.211   9.333  22.682  0.00  0.00    +0.000 C 
ATOM      3  C   UNL     1       0.537   8.587  21.587  0.00  0.00    +0.000 C 
ATOM      4  C   UNL     1       0.550   9.571  20.450  0.00  0.00    +0.000 C 
ATOM      5  O   UNL     1       1.296   9.520  19.489  0.00  0.00    +0.000 OA
ATOM      6  N   UNL     1      -0.486  10.463  20.642  0.00  0.00    +0.000 N 
ENDROOT
BRANCH   6   7
ATOM      7  C   UNL     1      -0.806  11.493  19.671  0.00  0.00    +0.000 C 
ATOM      8  O   UNL     1      -1.677  12.465  20.241  0.00  0.00    +0.000 OA
ATOM      9  C   UNL     1      -2.887  12.525  19.624  0.00  0.00    +0.000 C 
ATOM     10  O   UNL     1      -3.809  13.177  20.068  0.00  0.00    +0.000 OA
ATOM     11  C   UNL     1      -2.844  11.634  18.454  0.00  0.00    +0.000 A 
ATOM     12  C   UNL     1      -1.599  11.004  18.514  0.00  0.00    +0.000 A 
ATOM     13  C   UNL     1      -1.206  10.085  17.558  0.00  0.00    +0.000 A 
ATOM     14  C   UNL     1      -2.092   9.790  16.534  0.00  0.00    +0.000 A 
ATOM     15  C   UNL     1      -3.355  10.409  16.454  0.00  0.00    +0.000 A 
ATOM     16  C   UNL     1      -3.760  11.358  17.428  0.00  0.00    +0.000 A 
BRANCH  15  17
ATOM     17  O   UNL     1      -4.040   9.956  15.353  0.00  0.00    +0.000 OA
ATOM     18  C   UNL     1      -3.476  10.084  14.059  0.00  0.00    +0.000 C 
ENDBRANCH  15  17
BRANCH  16  19
ATOM     19  O   UNL     1      -5.000  11.879  17.234  0.00  0.00    +0.000 OA
ATOM     20  C   UNL     1      -6.142  11.446  17.944  0.00  0.00    +0.000 C 
ENDBRANCH  16  19
ENDBRANCH   6   7
BRANCH   1  22
ATOM     21  N   UNL     1      -2.479  12.101  22.934  0.00  0.00    +0.000 N 
ATOM     22  C   UNL     1      -1.183  11.646  22.746  0.00  0.00    +0.000 C 
ATOM     23  O   UNL     1      -0.136  12.213  23.056  0.00  0.00    +0.000 OA
ATOM     24  H   UNL     1      -3.190  11.639  22.381  0.00  0.00    +0.000 HD
BRANCH  21  28
ATOM     25  C   UNL     1      -3.399  15.841  24.759  0.00  0.00    +0.000 A 
ATOM     26  C   UNL     1      -4.442  15.037  24.285  0.00  0.00    +0.000 A 
ATOM     27  C   UNL     1      -4.211  13.800  23.657  0.00  0.00    +0.000 A 
ATOM     28  C   UNL     1      -2.895  13.342  23.502  0.00  0.00    +0.000 A 
ATOM     29  C   UNL     1      -1.848  14.164  23.960  0.00  0.00    +0.000 A 
ATOM     30  C   UNL     1      -2.090  15.394  24.596  0.00  0.00    +0.000 A 
ATOM     31 CL   UNL     1      -0.702  16.227  25.197  0.00  0.00    +0.000 Cl
BRANCH  25  33
ATOM     32  C   UNL     1      -5.121  17.461  25.060  0.00  0.00    +0.000 C 
ATOM     33  O   UNL     1      -3.840  16.959  25.414  0.00  0.00    +0.000 OA
ENDBRANCH  25  33
BRANCH  27  34
ATOM     34  O   UNL     1      -5.250  13.120  23.080  0.00  0.00    +0.000 OA
ATOM     35  C   UNL     1      -6.306  12.765  23.972  0.00  0.00    +0.000 C 
ENDBRANCH  27  34
ENDBRANCH  21  28
ENDBRANCH   1  22
TORSDOF 7
ENDMDL
MODEL 2
REMARK VINA RESULT:      -7.0      5.128      9.522
REMARK  Name = 
REMARK  11 active torsions:
REMARK  status: ('A' for Active; 'I' for Inactive)
REMARK    1  A    between atoms: C_1  and  O_2
REMARK    2  A    between atoms: O_2  and  C_3
REMARK    3  A    between atoms: C_5  and  O_6
REMARK    4  A    between atoms: O_6  and  C_7
REMARK    5  A    between atoms: C_8  and  N_9
REMARK    6  A    between atoms: C_10  and  C_12
REMARK    7  A    between atoms: N_17  and  C_18
REMARK    8  A    between atoms: C_26  and  O_27
REMARK    9  A    between atoms: O_27  and  C_28
REMARK   10  A    between atoms: C_29  and  O_30
REMARK   11  A    between atoms: O_30  and  C_31
REMARK                            x       y       z     vdW  Elec       q    Type
REMARK                         _______ _______ _______ _____ _____    ______ ____
ROOT
ATOM      1  C   UNL     1       0.012  10.038  18.838  0.00  0.00    +0.000 C 
ATOM      2  C   UNL     1      -1.007  10.142  17.701  0.00  0.00    +0.000 C 
ATOM      3  C   UNL     1      -1.660  11.505  17.874  0.00  0.00    +0.000 C 
ATOM      4  C   UNL     1      -0.597  12.309  18.569  0.00  0.00    +0.000 C 
ATOM      5  O   UNL     1      -0.567  13.526  18.630  0.00  0.00    +0.000 OA
ATOM      6  N   UNL     1       0.264  11.431  19.198  0.00  0.00    +0.000 N 
ENDROOT
BRANCH   6   7
ATOM      7  C   UNL     1       1.356  11.891  20.035  0.00  0.00    +0.000 C 
ATOM      8  O   UNL     1       0.864  12.353  21.289  0.00  0.00    +0.000 OA
ATOM      9  C   UNL     1       1.103  13.674  21.503  0.00  0.00    +0.000 C 
ATOM     10  O   UNL     1       0.621  14.277  22.439  0.00  0.00    +0.000 OA
ATOM     11  C   UNL     1       1.934  14.169  20.393  0.00  0.00    +0.000 A 
ATOM     12  C   UNL     1       2.052  13.094  19.511  0.00  0.00    +0.000 A 
ATOM     13  C   UNL     1       2.778  13.197  18.338  0.00  0.00    +0.000 A 
ATOM     14  C   UNL     1       3.381  14.410  18.048  0.00  0.00    +0.000 A 
ATOM     15  C   UNL     1       3.273  15.511  18.921  0.00  0.00    +0.000 A 
ATOM     16  C   UNL     1       2.535  15.409  20.129  0.00  0.00    +0.000 A 
BRANCH  15  17
ATOM     17  O   UNL     1       3.957  16.589  18.416  0.00  0.00    +0.000 OA
ATOM     18  C   UNL     1       5.314  16.801  18.768  0.00  0.00    +0.000 C 
ENDBRANCH  15  17
BRANCH  16  19
ATOM     19  O   UNL     1       2.511  16.542  20.879  0.00  0.00    +0.000 OA
ATOM     20  C   UNL     1       3.326  16.735  22.016  0.00  0.00    +0.000 C 
ENDBRANCH  16  19
ENDBRANCH   6   7
BRANCH   1  22
ATOM     21  N   UNL     1       1.427   8.039  18.847  0.00  0.00    +0.000 N 
ATOM     22  C   UNL     1       1.281   9.311  18.314  0.00  0.00    +0.000 C 
ATOM     23  O   UNL     1       2.065   9.912  17.581  0.00  0.00    +0.000 OA
ATOM     24  H   UNL     1       0.827   7.822  19.633  0.00  0.00    +0.000 HD
BRANCH  21  28
ATOM     25  C   UNL     1       4.753   5.494  18.056  0.00  0.00    +0.000 A 
ATOM     26  C   UNL     1       3.989   5.282  19.210  0.00  0.00    +0.000 A 
ATOM     27  C   UNL     1       2.890   6.093  19.542  0.00  0.00    +0.000 A 
ATOM     28  C   UNL     1       2.532   7.150  18.693  0.00  0.00    +0.000 A 
ATOM     29  C   UNL     1       3.316   7.373  17.545  0.00  0.00    +0.000 A 
ATOM     30  C   UNL     1       4.407   6.549  17.216  0.00  0.00    +0.000 A 
ATOM     31 CL   UNL     1       5.195   6.892  15.718  0.00  0.00    +0.000 Cl
BRANCH  25  33
ATOM     32  C   UNL     1       7.072   4.943  18.047  0.00  0.00    +0.000 C 
ATOM     33  O   UNL     1       5.720   4.543  17.872  0.00  0.00    +0.000 OA
ENDBRANCH  25  33
BRANCH  27  34
ATOM     34  O   UNL     1       2.266   5.940  20.751  0.00  0.00    +0.000 OA
ATOM     35  C   UNL     1       2.096   4.586  21.174  0.00  0.00    +0.000 C 
ENDBRANCH  27  34
ENDBRANCH  21  28
ENDBRANCH   1  22
TORSDOF 7
ENDMDL
MODEL 3
REMARK VINA RESULT:      -6.9      3.483      6.409
REMARK  Name = 
REMARK  11 active torsions:
REMARK  status: ('A' for Active; 'I' for Inactive)
REMARK    1  A    between atoms: C_1  and  O_2
REMARK    2  A    between atoms: O_2  and  C_3
REMARK    3  A    between atoms: C_5  and  O_6
REMARK    4  A    between atoms: O_6  and  C_7
REMARK    5  A    between atoms: C_8  and  N_9
REMARK    6  A    between atoms: C_10  and  C_12
REMARK    7  A    between atoms: N_17  and  C_18
REMARK    8  A    between atoms: C_26  and  O_27
REMARK    9  A    between atoms: O_27  and  C_28
REMARK   10  A    between atoms: C_29  and  O_30
REMARK   11  A    between atoms: O_30  and  C_31
REMARK                            x       y       z     vdW  Elec       q    Type
REMARK                         _______ _______ _______ _____ _____    ______ ____
ROOT
ATOM      1  C   UNL     1       0.583  11.265  19.338  0.00  0.00    +0.000 C 
ATOM      2  C   UNL     1       0.400   9.752  19.210  0.00  0.00    +0.000 C 
ATOM      3  C   UNL     1       0.954   9.172  20.502  0.00  0.00    +0.000 C 
ATOM      4  C   UNL     1       0.771  10.293  21.487  0.00  0.00    +0.000 C 
ATOM      5  O   UNL     1       0.792  10.171  22.699  0.00  0.00    +0.000 OA
ATOM      6  N   UNL     1       0.681  11.476  20.780  0.00  0.00    +0.000 N 
ENDROOT
BRANCH   6   7
ATOM      7  C   UNL     1       0.589  12.763  21.442  0.00  0.00    +0.000 C 
ATOM      8  O   UNL     1      -0.762  13.215  21.470  0.00  0.00    +0.000 OA
ATOM      9  C   UNL     1      -0.953  14.371  20.778  0.00  0.00    +0.000 C 
ATOM     10  O   UNL     1      -2.058  14.819  20.558  0.00  0.00    +0.000 OA
ATOM     11  C   UNL     1       0.364  14.854  20.332  0.00  0.00    +0.000 A 
ATOM     12  C   UNL     1       1.271  13.864  20.716  0.00  0.00    +0.000 A 
ATOM     13  C   UNL     1       2.625  13.984  20.456  0.00  0.00    +0.000 A 
ATOM     14  C   UNL     1       3.063  15.116  19.787  0.00  0.00    +0.000 A 
ATOM     15  C   UNL     1       2.167  16.126  19.386  0.00  0.00    +0.000 A 
ATOM     16  C   UNL     1       0.778  16.011  19.656  0.00  0.00    +0.000 A 
BRANCH  15  17
ATOM     17  O   UNL     1       2.842  17.139  18.750  0.00  0.00    +0.000 OA
ATOM     18  C   UNL     1       3.092  17.064  17.357  0.00  0.00    +0.000 C 
ENDBRANCH  15  17
BRANCH  16  19
ATOM     19  O   UNL     1       0.025  17.054  19.217  0.00  0.00    +0.000 OA
ATOM     20  C   UNL     1      -0.624  17.066  17.963  0.00  0.00    +0.000 C 
ENDBRANCH  16  19
ENDBRANCH   6   7
BRANCH   1  22
ATOM     21  N   UNL     1      -1.846  11.377  19.047  0.00  0.00    +0.000 N 
ATOM     22  C   UNL     1      -0.643  11.978  18.706  0.00  0.00    +0.000 C 
ATOM     23  O   UNL     1      -0.467  12.911  17.925  0.00  0.00    +0.000 OA
ATOM     24  H   UNL     1      -1.771  10.466  19.482  0.00  0.00    +0.000 HD
BRANCH  21  28
ATOM     25  C   UNL     1      -5.834  12.328  17.885  0.00  0.00    +0.000 A 
ATOM     26  C   UNL     1      -4.963  11.770  16.943  0.00  0.00    +0.000 A 
ATOM     27  C   UNL     1      -3.629  11.448  17.252  0.00  0.00    +0.000 A 
ATOM     28  C   UNL     1      -3.147  11.681  18.547  0.00  0.00    +0.000 A 
ATOM     29  C   UNL     1      -4.021  12.263  19.486  0.00  0.00    +0.000 A 
ATOM     30  C   UNL     1      -5.355  12.572  19.170  0.00  0.00    +0.000 A 
ATOM     31 CL   UNL     1      -6.324  13.177  20.465  0.00  0.00    +0.000 Cl
BRANCH  25  33
ATOM     32  C   UNL     1      -7.489  13.781  16.974  0.00  0.00    +0.000 C 
ATOM     33  O   UNL     1      -7.108  12.484  17.410  0.00  0.00    +0.000 OA
ENDBRANCH  25  33
BRANCH  27  34
ATOM     34  O   UNL     1      -2.775  11.043  16.261  0.00  0.00    +0.000 OA
ATOM     35  C   UNL     1      -3.409  10.651  15.043  0.00  0.00    +0.000 C 
ENDBRANCH  27  34
ENDBRANCH  21  28
ENDBRANCH   1  22
TORSDOF 7
ENDMDL
MODEL 4
REMARK VINA RESULT:      -6.6      1.162      1.198
REMARK  Name = 
REMARK  11 active torsions:
REMARK  status: ('A' for Active; 'I' for Inactive)
REMARK    1  A    between atoms: C_1  and  O_2
REMARK    2  A    between atoms: O_2  and  C_3
REMARK    3  A    between atoms: C_5  and  O_6
REMARK    4  A    between atoms: O_6  and  C_7
REMARK    5  A    between atoms: C_8  and  N_9
REMARK    6  A    between atoms: C_10  and  C_12
REMARK    7  A    between atoms: N_17  and  C_18
REMARK    8  A    between atoms: C_26  and  O_27
REMARK    9  A    between atoms: O_27  and  C_28
REMARK   10  A    between atoms: C_29  and  O_30
REMARK   11  A    between atoms: O_30  and  C_31
REMARK                            x       y       z     vdW  Elec       q    Type
REMARK                         _______ _______ _______ _____ _____    ______ ____
ROOT
ATOM      1  C   UNL     1      -1.430  10.810  22.278  0.00  0.00    +0.000 C 
ATOM      2  C   UNL     1      -0.401  10.103  23.163  0.00  0.00    +0.000 C 
ATOM      3  C   UNL     1       0.604   9.493  22.199  0.00  0.00    +0.000 C 
ATOM      4  C   UNL     1       0.516  10.392  20.997  0.00  0.00    +0.000 C 
ATOM      5  O   UNL     1       1.352  10.463  20.113  0.00  0.00    +0.000 OA
ATOM      6  N   UNL     1      -0.707  11.032  21.028  0.00  0.00    +0.000 N 
ENDROOT
BRANCH   6   7
ATOM      7  C   UNL     1      -1.145  11.908  19.957  0.00  0.00    +0.000 C 
ATOM      8  O   UNL     1      -2.250  12.701  20.380  0.00  0.00    +0.000 OA
ATOM      9  C   UNL     1      -3.383  12.461  19.668  0.00  0.00    +0.000 C 
ATOM     10  O   UNL     1      -4.459  12.922  19.987  0.00  0.00    +0.000 OA
ATOM     11  C   UNL     1      -3.045  11.532  18.578  0.00  0.00    +0.000 A 
ATOM     12  C   UNL     1      -1.706  11.192  18.784  0.00  0.00    +0.000 A 
ATOM     13  C   UNL     1      -1.042  10.325  17.935  0.00  0.00    +0.000 A 
ATOM     14  C   UNL     1      -1.746   9.784  16.872  0.00  0.00    +0.000 A 
ATOM     15  C   UNL     1      -3.098  10.110  16.645  0.00  0.00    +0.000 A 
ATOM     16  C   UNL     1      -3.783  11.004  17.508  0.00  0.00    +0.000 A 
BRANCH  15  17
ATOM     17  O   UNL     1      -3.568   9.454  15.533  0.00  0.00    +0.000 OA
ATOM     18  C   UNL     1      -3.312   9.972  14.239  0.00  0.00    +0.000 C 
ENDBRANCH  15  17
BRANCH  16  19
ATOM     19  O   UNL     1      -5.081  11.232  17.178  0.00  0.00    +0.000 OA
ATOM     20  C   UNL     1      -5.567  12.497  16.779  0.00  0.00    +0.000 C 
ENDBRANCH  16  19
ENDBRANCH   6   7
BRANCH   1  22
ATOM     21  N   UNL     1      -3.231  12.358  22.873  0.00  0.00    +0.000 N 
ATOM     22  C   UNL     1      -1.866  12.132  22.966  0.00  0.00    +0.000 C 
ATOM     23  O   UNL     1      -1.012  12.883  23.434  0.00  0.00    +0.000 OA
ATOM     24  H   UNL     1      -3.730  11.763  22.224  0.00  0.00    +0.000 HD
BRANCH  21  28
ATOM     25  C   UNL     1      -5.090  16.018  24.018  0.00  0.00    +0.000 A 
ATOM     26  C   UNL     1      -5.744  14.808  24.281  0.00  0.00    +0.000 A 
ATOM     27  C   UNL     1      -5.197  13.565  23.915  0.00  0.00    +0.000 A 
ATOM     28  C   UNL     1      -3.952  13.523  23.272  0.00  0.00    +0.000 A 
ATOM     29  C   UNL     1      -3.309  14.743  22.990  0.00  0.00    +0.000 A 
ATOM     30  C   UNL     1      -3.858  15.980  23.370  0.00  0.00    +0.000 A 
ATOM     31 CL   UNL     1      -2.891  17.374  23.048  0.00  0.00    +0.000 Cl
BRANCH  25  33
ATOM     32  C   UNL     1      -5.054  17.896  25.486  0.00  0.00    +0.000 C 
ATOM     33  O   UNL     1      -5.747  17.103  24.532  0.00  0.00    +0.000 OA
ENDBRANCH  25  33
BRANCH  27  34
ATOM     34  O   UNL     1      -5.938  12.423  24.059  0.00  0.00    +0.000 OA
ATOM     35  C   UNL     1      -7.297  12.529  23.636  0.00  0.00    +0.000 C 
ENDBRANCH  27  34
ENDBRANCH  21  28
ENDBRANCH   1  22
TORSDOF 7
ENDMDL
MODEL 5
REMARK VINA RESULT:      -6.5      1.502      1.901
REMARK  Name = 
REMARK  11 active torsions:
REMARK  status: ('A' for Active; 'I' for Inactive)
REMARK    1  A    between atoms: C_1  and  O_2
REMARK    2  A    between atoms: O_2  and  C_3
REMARK    3  A    between atoms: C_5  and  O_6
REMARK    4  A    between atoms: O_6  and  C_7
REMARK    5  A    between atoms: C_8  and  N_9
REMARK    6  A    between atoms: C_10  and  C_12
REMARK    7  A    between atoms: N_17  and  C_18
REMARK    8  A    between atoms: C_26  and  O_27
REMARK    9  A    between atoms: O_27  and  C_28
REMARK   10  A    between atoms: C_29  and  O_30
REMARK   11  A    between atoms: O_30  and  C_31
REMARK                            x       y       z     vdW  Elec       q    Type
REMARK                         _______ _______ _______ _____ _____    ______ ____
ROOT
ATOM      1  C   UNL     1      -0.243   9.951  21.110  0.00  0.00    +0.000 C 
ATOM      2  C   UNL     1       0.871   9.063  21.668  0.00  0.00    +0.000 C 
ATOM      3  C   UNL     1       1.448   8.340  20.461  0.00  0.00    +0.000 C 
ATOM      4  C   UNL     1       1.162   9.285  19.327  0.00  0.00    +0.000 C 
ATOM      5  O   UNL     1       1.710   9.259  18.238  0.00  0.00    +0.000 OA
ATOM      6  N   UNL     1       0.116  10.104  19.702  0.00  0.00    +0.000 N 
ENDROOT
BRANCH   6   7
ATOM      7  C   UNL     1      -0.465  11.075  18.795  0.00  0.00    +0.000 C 
ATOM      8  O   UNL     1      -0.448  12.376  19.377  0.00  0.00    +0.000 OA
ATOM      9  C   UNL     1      -1.691  12.891  19.571  0.00  0.00    +0.000 C 
ATOM     10  O   UNL     1      -1.879  13.913  20.197  0.00  0.00    +0.000 OA
ATOM     11  C   UNL     1      -2.664  11.962  18.974  0.00  0.00    +0.000 A 
ATOM     12  C   UNL     1      -1.914  10.868  18.539  0.00  0.00    +0.000 A 
ATOM     13  C   UNL     1      -2.507   9.785  17.917  0.00  0.00    +0.000 A 
ATOM     14  C   UNL     1      -3.882   9.803  17.746  0.00  0.00    +0.000 A 
ATOM     15  C   UNL     1      -4.662  10.894  18.180  0.00  0.00    +0.000 A 
ATOM     16  C   UNL     1      -4.057  12.011  18.812  0.00  0.00    +0.000 A 
BRANCH  15  17
ATOM     17  O   UNL     1      -5.988  10.677  17.894  0.00  0.00    +0.000 OA
ATOM     18  C   UNL     1      -6.861  10.179  18.893  0.00  0.00    +0.000 C 
ENDBRANCH  15  17
BRANCH  16  19
ATOM     19  O   UNL     1      -4.921  12.993  19.181  0.00  0.00    +0.000 OA
ATOM     20  C   UNL     1      -5.320  13.210  20.519  0.00  0.00    +0.000 C 
ENDBRANCH  16  19
ENDBRANCH   6   7
BRANCH   1  22
ATOM     21  N   UNL     1      -1.470  11.563  22.486  0.00  0.00    +0.000 N 
ATOM     22  C   UNL     1      -0.250  11.299  21.881  0.00  0.00    +0.000 C 
ATOM     23  O   UNL     1       0.736  12.033  21.828  0.00  0.00    +0.000 OA
ATOM     24  H   UNL     1      -2.238  10.971  22.198  0.00  0.00    +0.000 HD
BRANCH  21  28
ATOM     25  C   UNL     1      -2.335  15.233  24.473  0.00  0.00    +0.000 A 
ATOM     26  C   UNL     1      -3.284  14.204  24.494  0.00  0.00    +0.000 A 
ATOM     27  C   UNL     1      -3.073  12.975  23.845  0.00  0.00    +0.000 A 
ATOM     28  C   UNL     1      -1.871  12.757  23.158  0.00  0.00    +0.000 A 
ATOM     29  C   UNL     1      -0.928  13.802  23.121  0.00  0.00    +0.000 A 
ATOM     30  C   UNL     1      -1.144  15.024  23.782  0.00  0.00    +0.000 A 
ATOM     31 CL   UNL     1       0.156  16.158  23.731  0.00  0.00    +0.000 Cl
BRANCH  25  33
ATOM     32  C   UNL     1      -4.016  16.811  25.077  0.00  0.00    +0.000 C 
ATOM     33  O   UNL     1      -2.697  16.310  25.237  0.00  0.00    +0.000 OA
ENDBRANCH  25  33
BRANCH  27  34
ATOM     34  O   UNL     1      -4.086  12.058  23.768  0.00  0.00    +0.000 OA
ATOM     35  C   UNL     1      -5.190  12.305  24.640  0.00  0.00    +0.000 C 
ENDBRANCH  27  34
ENDBRANCH  21  28
ENDBRANCH   1  22
TORSDOF 7
ENDMDL
MODEL 6
REMARK VINA RESULT:      -6.5      3.509      7.940
REMARK  Name = 
REMARK  11 active torsions:
REMARK  status: ('A' for Active; 'I' for Inactive)
REMARK    1  A    between atoms: C_1  and  O_2
REMARK    2  A    between atoms: O_2  and  C_3
REMARK    3  A    between atoms: C_5  and  O_6
REMARK    4  A    between atoms: O_6  and  C_7
REMARK    5  A    between atoms: C_8  and  N_9
REMARK    6  A    between atoms: C_10  and  C_12
REMARK    7  A    between atoms: N_17  and  C_18
REMARK    8  A    between atoms: C_26  and  O_27
REMARK    9  A    between atoms: O_27  and  C_28
REMARK   10  A    between atoms: C_29  and  O_30
REMARK   11  A    between atoms: O_30  and  C_31
REMARK                            x       y       z     vdW  Elec       q    Type
REMARK                         _______ _______ _______ _____ _____    ______ ____
ROOT
ATOM      1  C   UNL     1       0.348  12.740  18.542  0.00  0.00    +0.000 C 
ATOM      2  C   UNL     1       1.177  14.024  18.501  0.00  0.00    +0.000 C 
ATOM      3  C   UNL     1       0.185  15.148  18.763  0.00  0.00    +0.000 C 
ATOM      4  C   UNL     1      -0.890  14.475  19.569  0.00  0.00    +0.000 C 
ATOM      5  O   UNL     1      -1.720  15.053  20.249  0.00  0.00    +0.000 OA
ATOM      6  N   UNL     1      -0.830  13.119  19.319  0.00  0.00    +0.000 N 
ENDROOT
BRANCH   6   7
ATOM      7  C   UNL     1      -1.794  12.190  19.877  0.00  0.00    +0.000 C 
ATOM      8  O   UNL     1      -3.032  12.274  19.178  0.00  0.00    +0.000 OA
ATOM      9  C   UNL     1      -4.063  12.687  19.964  0.00  0.00    +0.000 C 
ATOM     10  O   UNL     1      -5.151  12.969  19.510  0.00  0.00    +0.000 OA
ATOM     11  C   UNL     1      -3.567  12.783  21.346  0.00  0.00    +0.000 A 
ATOM     12  C   UNL     1      -2.201  12.507  21.270  0.00  0.00    +0.000 A 
ATOM     13  C   UNL     1      -1.399  12.505  22.397  0.00  0.00    +0.000 A 
ATOM     14  C   UNL     1      -1.987  12.801  23.617  0.00  0.00    +0.000 A 
ATOM     15  C   UNL     1      -3.363  13.086  23.719  0.00  0.00    +0.000 A 
ATOM     16  C   UNL     1      -4.191  13.082  22.567  0.00  0.00    +0.000 A 
BRANCH  15  17
ATOM     17  O   UNL     1      -3.703  13.340  25.025  0.00  0.00    +0.000 OA
ATOM     18  C   UNL     1      -3.283  14.541  25.651  0.00  0.00    +0.000 C 
ENDBRANCH  15  17
BRANCH  16  19
ATOM     19  O   UNL     1      -5.498  13.372  22.804  0.00  0.00    +0.000 OA
ATOM     20  C   UNL     1      -6.044  14.665  22.645  0.00  0.00    +0.000 C 
ENDBRANCH  16  19
ENDBRANCH   6   7
BRANCH   1  22
ATOM     21  N   UNL     1       0.972  10.374  18.648  0.00  0.00    +0.000 N 
ATOM     22  C   UNL     1       1.183  11.620  19.220  0.00  0.00    +0.000 C 
ATOM     23  O   UNL     1       1.861  11.884  20.212  0.00  0.00    +0.000 OA
ATOM     24  H   UNL     1       0.182  10.310  18.017  0.00  0.00    +0.000 HD
BRANCH  21  28
ATOM     25  C   UNL     1       2.560   6.551  19.660  0.00  0.00    +0.000 A 
ATOM     26  C   UNL     1       1.692   7.189  20.554  0.00  0.00    +0.000 A 
ATOM     27  C   UNL     1       1.145   8.458  20.293  0.00  0.00    +0.000 A 
ATOM     28  C   UNL     1       1.466   9.113  19.096  0.00  0.00    +0.000 A 
ATOM     29  C   UNL     1       2.356   8.477  18.209  0.00  0.00    +0.000 A 
ATOM     30  C   UNL     1       2.889   7.203  18.474  0.00  0.00    +0.000 A 
ATOM     31 CL   UNL     1       3.877   6.518  17.235  0.00  0.00    +0.000 Cl
BRANCH  25  33
ATOM     32  C   UNL     1       1.960   4.252  19.851  0.00  0.00    +0.000 C 
ATOM     33  O   UNL     1       2.908   5.289  20.060  0.00  0.00    +0.000 OA
ENDBRANCH  25  33
BRANCH  27  34
ATOM     34  O   UNL     1       0.422   9.104  21.259  0.00  0.00    +0.000 OA
ATOM     35  C   UNL     1       1.093   9.259  22.510  0.00  0.00    +0.000 C 
ENDBRANCH  27  34
ENDBRANCH  21  28
ENDBRANCH   1  22
TORSDOF 7
ENDMDL
MODEL 7
REMARK VINA RESULT:      -6.4      4.267      9.039
REMARK  Name = 
REMARK  11 active torsions:
REMARK  status: ('A' for Active; 'I' for Inactive)
REMARK    1  A    between atoms: C_1  and  O_2
REMARK    2  A    between atoms: O_2  and  C_3
REMARK    3  A    between atoms: C_5  and  O_6
REMARK    4  A    between atoms: O_6  and  C_7
REMARK    5  A    between atoms: C_8  and  N_9
REMARK    6  A    between atoms: C_10  and  C_12
REMARK    7  A    between atoms: N_17  and  C_18
REMARK    8  A    between atoms: C_26  and  O_27
REMARK    9  A    between atoms: O_27  and  C_28
REMARK   10  A    between atoms: C_29  and  O_30
REMARK   11  A    between atoms: O_30  and  C_31
REMARK                            x       y       z     vdW  Elec       q    Type
REMARK                         _______ _______ _______ _____ _____    ______ ____
ROOT
ATOM      1  C   UNL     1       1.441  10.450  17.974  0.00  0.00    +0.000 C 
ATOM      2  C   UNL     1       2.631  11.412  17.976  0.00  0.00    +0.000 C 
ATOM      3  C   UNL     1       2.025  12.798  18.136  0.00  0.00    +0.000 C 
ATOM      4  C   UNL     1       0.738  12.527  18.864  0.00  0.00    +0.000 C 
ATOM      5  O   UNL     1       0.084  13.362  19.465  0.00  0.00    +0.000 OA
ATOM      6  N   UNL     1       0.389  11.209  18.646  0.00  0.00    +0.000 N 
ENDROOT
BRANCH   6   7
ATOM      7  C   UNL     1      -0.854  10.649  19.142  0.00  0.00    +0.000 C 
ATOM      8  O   UNL     1      -1.909  10.871  18.210  0.00  0.00    +0.000 OA
ATOM      9  C   UNL     1      -2.905  11.652  18.706  0.00  0.00    +0.000 C 
ATOM     10  O   UNL     1      -3.803  12.077  18.010  0.00  0.00    +0.000 OA
ATOM     11  C   UNL     1      -2.617  11.904  20.127  0.00  0.00    +0.000 A 
ATOM     12  C   UNL     1      -1.372  11.319  20.362  0.00  0.00    +0.000 A 
ATOM     13  C   UNL     1      -0.778  11.359  21.611  0.00  0.00    +0.000 A 
ATOM     14  C   UNL     1      -1.448  12.014  22.632  0.00  0.00    +0.000 A 
ATOM     15  C   UNL     1      -2.704  12.616  22.418  0.00  0.00    +0.000 A 
ATOM     16  C   UNL     1      -3.321  12.571  21.141  0.00  0.00    +0.000 A 
BRANCH  15  17
ATOM     17  O   UNL     1      -3.161  13.192  23.578  0.00  0.00    +0.000 OA
ATOM     18  C   UNL     1      -4.016  12.467  24.446  0.00  0.00    +0.000 C 
ENDBRANCH  15  17
BRANCH  16  19
ATOM     19  O   UNL     1      -4.529  13.189  21.071  0.00  0.00    +0.000 OA
ATOM     20  C   UNL     1      -5.758  12.500  21.172  0.00  0.00    +0.000 C 
ENDBRANCH  16  19
ENDBRANCH   6   7
BRANCH   1  22
ATOM     21  N   UNL     1       2.526   8.255  17.943  0.00  0.00    +0.000 N 
ATOM     22  C   UNL     1       1.834   9.157  18.738  0.00  0.00    +0.000 C 
ATOM     23  O   UNL     1       1.450   8.995  19.896  0.00  0.00    +0.000 OA
ATOM     24  H   UNL     1       2.516   8.450  16.950  0.00  0.00    +0.000 HD
BRANCH  21  28
ATOM     25  C   UNL     1       3.447   4.276  19.161  0.00  0.00    +0.000 A 
ATOM     26  C   UNL     1       4.378   4.990  18.397  0.00  0.00    +0.000 A 
ATOM     27  C   UNL     1       4.133   6.299  17.947  0.00  0.00    +0.000 A 
ATOM     28  C   UNL     1       2.922   6.925  18.274  0.00  0.00    +0.000 A 
ATOM     29  C   UNL     1       1.979   6.195  19.024  0.00  0.00    +0.000 A 
ATOM     30  C   UNL     1       2.238   4.890  19.479  0.00  0.00    +0.000 A 
ATOM     31 CL   UNL     1       1.024   4.178  20.478  0.00  0.00    +0.000 Cl
BRANCH  25  33
ATOM     32  C   UNL     1       3.500   1.916  18.833  0.00  0.00    +0.000 C 
ATOM     33  O   UNL     1       3.914   3.057  19.571  0.00  0.00    +0.000 OA
ENDBRANCH  25  33
BRANCH  27  34
ATOM     34  O   UNL     1       5.007   6.900  17.081  0.00  0.00    +0.000 OA
ATOM     35  C   UNL     1       6.388   6.687  17.376  0.00  0.00    +0.000 C 
ENDBRANCH  27  34
ENDBRANCH  21  28
ENDBRANCH   1  22
TORSDOF 7
ENDMDL
MODEL 8
REMARK VINA RESULT:      -6.4      3.939      6.887
REMARK  Name = 
REMARK  11 active torsions:
REMARK  status: ('A' for Active; 'I' for Inactive)
REMARK    1  A    between atoms: C_1  and  O_2
REMARK    2  A    between atoms: O_2  and  C_3
REMARK    3  A    between atoms: C_5  and  O_6
REMARK    4  A    between atoms: O_6  and  C_7
REMARK    5  A    between atoms: C_8  and  N_9
REMARK    6  A    between atoms: C_10  and  C_12
REMARK    7  A    between atoms: N_17  and  C_18
REMARK    8  A    between atoms: C_26  and  O_27
REMARK    9  A    between atoms: O_27  and  C_28
REMARK   10  A    between atoms: C_29  and  O_30
REMARK   11  A    between atoms: O_30  and  C_31
REMARK                            x       y       z     vdW  Elec       q    Type
REMARK                         _______ _______ _______ _____ _____    ______ ____
ROOT
ATOM      1  C   UNL     1       0.398  10.319  19.220  0.00  0.00    +0.000 C 
ATOM      2  C   UNL     1       0.034   9.913  20.649  0.00  0.00    +0.000 C 
ATOM      3  C   UNL     1       0.986  10.694  21.542  0.00  0.00    +0.000 C 
ATOM      4  C   UNL     1       1.309  11.909  20.718  0.00  0.00    +0.000 C 
ATOM      5  O   UNL     1       1.786  12.943  21.152  0.00  0.00    +0.000 OA
ATOM      6  N   UNL     1       1.067  11.607  19.392  0.00  0.00    +0.000 N 
ENDROOT
BRANCH   6   7
ATOM      7  C   UNL     1       1.363  12.541  18.323  0.00  0.00    +0.000 C 
ATOM      8  O   UNL     1       2.771  12.667  18.145  0.00  0.00    +0.000 OA
ATOM      9  C   UNL     1       3.230  13.923  18.390  0.00  0.00    +0.000 C 
ATOM     10  O   UNL     1       4.415  14.181  18.444  0.00  0.00    +0.000 OA
ATOM     11  C   UNL     1       2.067  14.791  18.634  0.00  0.00    +0.000 A 
ATOM     12  C   UNL     1       0.961  13.940  18.616  0.00  0.00    +0.000 A 
ATOM     13  C   UNL     1      -0.323  14.418  18.812  0.00  0.00    +0.000 A 
ATOM     14  C   UNL     1      -0.486  15.775  19.042  0.00  0.00    +0.000 A 
ATOM     15  C   UNL     1       0.616  16.653  19.068  0.00  0.00    +0.000 A 
ATOM     16  C   UNL     1       1.934  16.169  18.861  0.00  0.00    +0.000 A 
BRANCH  15  17
ATOM     17  O   UNL     1       0.197  17.939  19.308  0.00  0.00    +0.000 OA
ATOM     18  C   UNL     1      -0.926  18.463  18.619  0.00  0.00    +0.000 C 
ENDBRANCH  15  17
BRANCH  16  19
ATOM     19  O   UNL     1       2.904  17.119  18.912  0.00  0.00    +0.000 OA
ATOM     20  C   UNL     1       3.733  17.320  20.038  0.00  0.00    +0.000 C 
ENDBRANCH  16  19
ENDBRANCH   6   7
BRANCH   1  22
ATOM     21  N   UNL     1      -1.780  11.380  18.864  0.00  0.00    +0.000 N 
ATOM     22  C   UNL     1      -0.902  10.423  18.377  0.00  0.00    +0.000 C 
ATOM     23  O   UNL     1      -1.089   9.637  17.450  0.00  0.00    +0.000 OA
ATOM     24  H   UNL     1      -1.568  11.739  19.786  0.00  0.00    +0.000 HD
BRANCH  21  28
ATOM     25  C   UNL     1      -5.849  12.180  17.880  0.00  0.00    +0.000 A 
ATOM     26  C   UNL     1      -4.961  11.803  16.864  0.00  0.00    +0.000 A 
ATOM     27  C   UNL     1      -3.603  11.542  17.114  0.00  0.00    +0.000 A 
ATOM     28  C   UNL     1      -3.110  11.650  18.422  0.00  0.00    +0.000 A 
ATOM     29  C   UNL     1      -4.001  12.050  19.437  0.00  0.00    +0.000 A 
ATOM     30  C   UNL     1      -5.360  12.299  19.178  0.00  0.00    +0.000 A 
ATOM     31 CL   UNL     1      -6.340  12.672  20.550  0.00  0.00    +0.000 Cl
BRANCH  25  33
ATOM     32  C   UNL     1      -7.601  13.605  17.118  0.00  0.00    +0.000 C 
ATOM     33  O   UNL     1      -7.141  12.301  17.443  0.00  0.00    +0.000 OA
ENDBRANCH  25  33
BRANCH  27  34
ATOM     34  O   UNL     1      -2.744  11.322  16.071  0.00  0.00    +0.000 OA
ATOM     35  C   UNL     1      -3.289  10.558  14.994  0.00  0.00    +0.000 C 
ENDBRANCH  27  34
ENDBRANCH  21  28
ENDBRANCH   1  22
TORSDOF 7
ENDMDL
MODEL 9
REMARK VINA RESULT:      -6.4      3.189      6.534
REMARK  Name = 
REMARK  11 active torsions:
REMARK  status: ('A' for Active; 'I' for Inactive)
REMARK    1  A    between atoms: C_1  and  O_2
REMARK    2  A    between atoms: O_2  and  C_3
REMARK    3  A    between atoms: C_5  and  O_6
REMARK    4  A    between atoms: O_6  and  C_7
REMARK    5  A    between atoms: C_8  and  N_9
REMARK    6  A    between atoms: C_10  and  C_12
REMARK    7  A    between atoms: N_17  and  C_18
REMARK    8  A    between atoms: C_26  and  O_27
REMARK    9  A    between atoms: O_27  and  C_28
REMARK   10  A    between atoms: C_29  and  O_30
REMARK   11  A    between atoms: O_30  and  C_31
REMARK                            x       y       z     vdW  Elec       q    Type
REMARK                         _______ _______ _______ _____ _____    ______ ____
ROOT
ATOM      1  C   UNL     1       0.903  11.044  18.739  0.00  0.00    +0.000 C 
ATOM      2  C   UNL     1       0.885   9.743  17.935  0.00  0.00    +0.000 C 
ATOM      3  C   UNL     1       1.521   8.702  18.844  0.00  0.00    +0.000 C 
ATOM      4  C   UNL     1       1.233   9.230  20.222  0.00  0.00    +0.000 C 
ATOM      5  O   UNL     1       1.288   8.574  21.248  0.00  0.00    +0.000 OA
ATOM      6  N   UNL     1       1.002  10.587  20.124  0.00  0.00    +0.000 N 
ENDROOT
BRANCH   6   7
ATOM      7  C   UNL     1       0.780  11.417  21.292  0.00  0.00    +0.000 C 
ATOM      8  O   UNL     1      -0.611  11.514  21.580  0.00  0.00    +0.000 OA
ATOM      9  C   UNL     1      -1.090  12.783  21.484  0.00  0.00    +0.000 C 
ATOM     10  O   UNL     1      -2.276  13.035  21.537  0.00  0.00    +0.000 OA
ATOM     11  C   UNL     1       0.051  13.680  21.239  0.00  0.00    +0.000 A 
ATOM     12  C   UNL     1       1.158  12.841  21.100  0.00  0.00    +0.000 A 
ATOM     13  C   UNL     1       2.423  13.347  20.859  0.00  0.00    +0.000 A 
ATOM     14  C   UNL     1       2.566  14.720  20.743  0.00  0.00    +0.000 A 
ATOM     15  C   UNL     1       1.463  15.587  20.875  0.00  0.00    +0.000 A 
ATOM     16  C   UNL     1       0.164  15.074  21.129  0.00  0.00    +0.000 A 
BRANCH  15  17
ATOM     17  O   UNL     1       1.861  16.893  20.725  0.00  0.00    +0.000 OA
ATOM     18  C   UNL     1       3.185  17.192  20.315  0.00  0.00    +0.000 C 
ENDBRANCH  15  17
BRANCH  16  19
ATOM     19  O   UNL     1      -0.809  16.016  21.235  0.00  0.00    +0.000 OA
ATOM     20  C   UNL     1      -1.626  16.410  20.152  0.00  0.00    +0.000 C 
ENDBRANCH  16  19
ENDBRANCH   6   7
BRANCH   1  22
ATOM     21  N   UNL     1      -1.525  11.016  18.427  0.00  0.00    +0.000 N 
ATOM     22  C   UNL     1      -0.404  11.832  18.456  0.00  0.00    +0.000 C 
ATOM     23  O   UNL     1      -0.346  13.035  18.203  0.00  0.00    +0.000 OA
ATOM     24  H   UNL     1      -1.341  10.021  18.395  0.00  0.00    +0.000 HD
BRANCH  21  28
ATOM     25  C   UNL     1      -5.586  12.084  17.696  0.00  0.00    +0.000 A 
ATOM     26  C   UNL     1      -4.783  11.674  16.625  0.00  0.00    +0.000 A 
ATOM     27  C   UNL     1      -3.432  11.325  16.790  0.00  0.00    +0.000 A 
ATOM     28  C   UNL     1      -2.858  11.376  18.069  0.00  0.00    +0.000 A 
ATOM     29  C   UNL     1      -3.663  11.810  19.140  0.00  0.00    +0.000 A 
ATOM     30  C   UNL     1      -5.017  12.147  18.966  0.00  0.00    +0.000 A 
ATOM     31 CL   UNL     1      -5.891  12.552  20.398  0.00  0.00    +0.000 Cl
BRANCH  25  33
ATOM     32  C   UNL     1      -7.344  13.638  17.280  0.00  0.00    +0.000 C 
ATOM     33  O   UNL     1      -6.890  12.293  17.338  0.00  0.00    +0.000 OA
ENDBRANCH  25  33
BRANCH  27  34
ATOM     34  O   UNL     1      -2.650  11.074  15.694  0.00  0.00    +0.000 OA
ATOM     35  C   UNL     1      -3.225  10.186  14.735  0.00  0.00    +0.000 C 
ENDBRANCH  27  34
ENDBRANCH  21  28
ENDBRANCH   1  22
TORSDOF 7
ENDMDL
