MODEL 1
REMARK VINA RESULT:      -9.0      0.000      0.000
REMARK  Name = 
REMARK  6 active torsions:
REMARK  status: ('A' for Active; 'I' for Inactive)
REMARK    1  A    between atoms: C_1  and  C_2
REMARK    2  A    between atoms: C_2  and  N_3
REMARK    3  A    between atoms: C_4  and  C_5
REMARK    4  A    between atoms: C_5  and  O_6
REMARK    5  A    between atoms: C_5  and  C_7
REMARK    6  A    between atoms: C_5  and  C_13
REMARK                            x       y       z     vdW  Elec       q    Type
REMARK                         _______ _______ _______ _____ _____    ______ ____
ROOT
ATOM      1  C   UNL     1       5.521   5.805  16.044  0.00  0.00    +0.000 C 
ENDROOT
BRANCH   1   3
ATOM      2  N   UNL     1       3.556   5.542  17.747  0.00  0.00    +0.000 N 
ATOM      3  C   UNL     1       4.415   5.026  16.786  0.00  0.00    +0.000 A 
ATOM      4  N   UNL     1       4.174   3.734  16.609  0.00  0.00    +0.000 NA
ATOM      5  C   UNL     1       3.173   3.399  17.475  0.00  0.00    +0.000 A 
ATOM      6  C   UNL     1       2.585   2.148  17.733  0.00  0.00    +0.000 A 
ATOM      7  C   UNL     1       1.566   2.062  18.692  0.00  0.00    +0.000 A 
ATOM      8  C   UNL     1       1.119   3.208  19.339  0.00  0.00    +0.000 A 
ATOM      9  F   UNL     1       0.138   3.106  20.246  0.00  0.00    +0.000 F 
ATOM     10  C   UNL     1       1.669   4.462  19.084  0.00  0.00    +0.000 A 
ATOM     11  C   UNL     1       2.725   4.521  18.165  0.00  0.00    +0.000 A 
BRANCH   2  13
ATOM     12  C   UNL     1       2.416   7.778  17.735  0.00  0.00    +0.000 C 
ATOM     13  C   UNL     1       3.526   6.889  18.290  0.00  0.00    +0.000 C 
ENDBRANCH   2  13
ENDBRANCH   1   3
BRANCH   1  14
ATOM     14  C   UNL     1       6.580   6.335  17.044  0.00  0.00    +0.000 A 
ATOM     15  C   UNL     1       7.123   5.555  18.085  0.00  0.00    +0.000 A 
ATOM     16  C   UNL     1       8.063   6.075  18.979  0.00  0.00    +0.000 A 
ATOM     17  C   UNL     1       8.468   7.400  18.869  0.00  0.00    +0.000 A 
ATOM     18  C   UNL     1       7.941   8.201  17.861  0.00  0.00    +0.000 A 
ATOM     19  C   UNL     1       7.015   7.675  16.955  0.00  0.00    +0.000 A 
ENDBRANCH   1  14
BRANCH   1  20
ATOM     20  C   UNL     1       6.074   5.056  14.811  0.00  0.00    +0.000 A 
ATOM     21  C   UNL     1       7.361   5.297  14.294  0.00  0.00    +0.000 A 
ATOM     22  C   UNL     1       7.749   4.808  13.044  0.00  0.00    +0.000 A 
ATOM     23  C   UNL     1       6.888   4.000  12.315  0.00  0.00    +0.000 A 
ATOM     24  C   UNL     1       5.670   3.619  12.870  0.00  0.00    +0.000 A 
ATOM     25  C   UNL     1       5.280   4.121  14.118  0.00  0.00    +0.000 A 
ENDBRANCH   1  20
BRANCH   1  26
ATOM     26  O   UNL     1       4.882   6.984  15.508  0.00  0.00    +0.000 OA
ATOM     27  H   UNL     1       4.883   7.632  16.238  0.00  0.00    +0.000 HD
ENDBRANCH   1  26
TORSDOF 5
ENDMDL
MODEL 2
REMARK VINA RESULT:      -8.5      1.570      4.048
REMARK  Name = 
REMARK  6 active torsions:
REMARK  status: ('A' for Active; 'I' for Inactive)
REMARK    1  A    between atoms: C_1  and  C_2
REMARK    2  A    between atoms: C_2  and  N_3
REMARK    3  A    between atoms: C_4  and  C_5
REMARK    4  A    between atoms: C_5  and  O_6
REMARK    5  A    between atoms: C_5  and  C_7
REMARK    6  A    between atoms: C_5  and  C_13
REMARK                            x       y       z     vdW  Elec       q    Type
REMARK                         _______ _______ _______ _____ _____    ______ ____
ROOT
ATOM      1  C   UNL     1       6.709   4.891  17.417  0.00  0.00    +0.000 C 
ENDROOT
BRANCH   1   3
ATOM      2  N   UNL     1       4.172   5.003  18.039  0.00  0.00    +0.000 N 
ATOM      3  C   UNL     1       5.434   4.435  18.157  0.00  0.00    +0.000 A 
ATOM      4  N   UNL     1       5.405   3.444  19.038  0.00  0.00    +0.000 NA
ATOM      5  C   UNL     1       4.128   3.381  19.516  0.00  0.00    +0.000 A 
ATOM      6  C   UNL     1       3.577   2.551  20.508  0.00  0.00    +0.000 A 
ATOM      7  C   UNL     1       2.220   2.689  20.831  0.00  0.00    +0.000 A 
ATOM      8  C   UNL     1       1.428   3.603  20.144  0.00  0.00    +0.000 A 
ATOM      9  F   UNL     1       0.132   3.715  20.462  0.00  0.00    +0.000 F 
ATOM     10  C   UNL     1       1.945   4.419  19.141  0.00  0.00    +0.000 A 
ATOM     11  C   UNL     1       3.316   4.308  18.870  0.00  0.00    +0.000 A 
BRANCH   2  13
ATOM     12  C   UNL     1       3.227   7.327  18.043  0.00  0.00    +0.000 C 
ATOM     13  C   UNL     1       3.779   6.152  17.241  0.00  0.00    +0.000 C 
ENDBRANCH   2  13
ENDBRANCH   1   3
BRANCH   1  14
ATOM     14  C   UNL     1       6.579   4.627  15.894  0.00  0.00    +0.000 A 
ATOM     15  C   UNL     1       5.547   3.852  15.327  0.00  0.00    +0.000 A 
ATOM     16  C   UNL     1       5.474   3.622  13.951  0.00  0.00    +0.000 A 
ATOM     17  C   UNL     1       6.449   4.140  13.106  0.00  0.00    +0.000 A 
ATOM     18  C   UNL     1       7.489   4.898  13.636  0.00  0.00    +0.000 A 
ATOM     19  C   UNL     1       7.550   5.145  15.011  0.00  0.00    +0.000 A 
ENDBRANCH   1  14
BRANCH   1  20
ATOM     20  C   UNL     1       7.175   6.309  17.818  0.00  0.00    +0.000 A 
ATOM     21  C   UNL     1       6.782   7.462  17.113  0.00  0.00    +0.000 A 
ATOM     22  C   UNL     1       7.405   8.694  17.323  0.00  0.00    +0.000 A 
ATOM     23  C   UNL     1       8.383   8.822  18.301  0.00  0.00    +0.000 A 
ATOM     24  C   UNL     1       8.681   7.736  19.118  0.00  0.00    +0.000 A 
ATOM     25  C   UNL     1       8.062   6.499  18.895  0.00  0.00    +0.000 A 
ENDBRANCH   1  20
BRANCH   1  26
ATOM     26  O   UNL     1       7.762   4.012  17.866  0.00  0.00    +0.000 OA
ATOM     27  H   UNL     1       8.488   4.600  18.147  0.00  0.00    +0.000 HD
ENDBRANCH   1  26
TORSDOF 5
ENDMDL
MODEL 3
REMARK VINA RESULT:      -8.3      2.957      4.773
REMARK  Name = 
REMARK  6 active torsions:
REMARK  status: ('A' for Active; 'I' for Inactive)
REMARK    1  A    between atoms: C_1  and  C_2
REMARK    2  A    between atoms: C_2  and  N_3
REMARK    3  A    between atoms: C_4  and  C_5
REMARK    4  A    between atoms: C_5  and  O_6
REMARK    5  A    between atoms: C_5  and  C_7
REMARK    6  A    between atoms: C_5  and  C_13
REMARK                            x       y       z     vdW  Elec       q    Type
REMARK                         _______ _______ _______ _____ _____    ______ ____
ROOT
ATOM      1  C   UNL     1       4.218   5.703  17.680  0.00  0.00    +0.000 C 
ENDROOT
BRANCH   1   3
ATOM      2  N   UNL     1       2.650   6.760  19.486  0.00  0.00    +0.000 N 
ATOM      3  C   UNL     1       3.261   6.777  18.238  0.00  0.00    +0.000 A 
ATOM      4  N   UNL     1       2.878   7.851  17.561  0.00  0.00    +0.000 NA
ATOM      5  C   UNL     1       1.995   8.523  18.356  0.00  0.00    +0.000 A 
ATOM      6  C   UNL     1       1.252   9.688  18.095  0.00  0.00    +0.000 A 
ATOM      7  C   UNL     1       0.392  10.181  19.086  0.00  0.00    +0.000 A 
ATOM      8  C   UNL     1       0.317   9.549  20.322  0.00  0.00    +0.000 A 
ATOM      9  F   UNL     1      -0.504  10.040  21.259  0.00  0.00    +0.000 F 
ATOM     10  C   UNL     1       1.061   8.407  20.614  0.00  0.00    +0.000 A 
ATOM     11  C   UNL     1       1.871   7.895  19.592  0.00  0.00    +0.000 A 
BRANCH   2  13
ATOM     12  C   UNL     1       1.472   4.900  20.689  0.00  0.00    +0.000 C 
ATOM     13  C   UNL     1       2.738   5.734  20.511  0.00  0.00    +0.000 C 
ENDBRANCH   2  13
ENDBRANCH   1   3
BRANCH   1  14
ATOM     14  C   UNL     1       5.678   5.996  18.111  0.00  0.00    +0.000 A 
ATOM     15  C   UNL     1       6.294   5.391  19.225  0.00  0.00    +0.000 A 
ATOM     16  C   UNL     1       7.607   5.694  19.592  0.00  0.00    +0.000 A 
ATOM     17  C   UNL     1       8.333   6.631  18.867  0.00  0.00    +0.000 A 
ATOM     18  C   UNL     1       7.750   7.257  17.769  0.00  0.00    +0.000 A 
ATOM     19  C   UNL     1       6.442   6.939  17.391  0.00  0.00    +0.000 A 
ENDBRANCH   1  14
BRANCH   1  20
ATOM     20  C   UNL     1       3.721   4.259  17.917  0.00  0.00    +0.000 A 
ATOM     21  C   UNL     1       2.502   3.784  17.398  0.00  0.00    +0.000 A 
ATOM     22  C   UNL     1       1.948   2.575  17.825  0.00  0.00    +0.000 A 
ATOM     23  C   UNL     1       2.638   1.773  18.725  0.00  0.00    +0.000 A 
ATOM     24  C   UNL     1       3.914   2.144  19.135  0.00  0.00    +0.000 A 
ATOM     25  C   UNL     1       4.461   3.363  18.713  0.00  0.00    +0.000 A 
ENDBRANCH   1  20
BRANCH   1  26
ATOM     26  O   UNL     1       4.205   5.871  16.246  0.00  0.00    +0.000 OA
ATOM     27  H   UNL     1       3.644   5.148  15.906  0.00  0.00    +0.000 HD
ENDBRANCH   1  26
TORSDOF 5
ENDMDL
MODEL 4
REMARK VINA RESULT:      -8.3      2.684      6.290
REMARK  Name = 
REMARK  6 active torsions:
REMARK  status: ('A' for Active; 'I' for Inactive)
REMARK    1  A    between atoms: C_1  and  C_2
REMARK    2  A    between atoms: C_2  and  N_3
REMARK    3  A    between atoms: C_4  and  C_5
REMARK    4  A    between atoms: C_5  and  O_6
REMARK    5  A    between atoms: C_5  and  C_7
REMARK    6  A    between atoms: C_5  and  C_13
REMARK                            x       y       z     vdW  Elec       q    Type
REMARK                         _______ _______ _______ _____ _____    ______ ____
ROOT
ATOM      1  C   UNL     1       3.675   5.493  18.947  0.00  0.00    +0.000 C 
ENDROOT
BRANCH   1   3
ATOM      2  N   UNL     1       5.663   5.803  17.278  0.00  0.00    +0.000 N 
ATOM      3  C   UNL     1       4.467   5.206  17.654  0.00  0.00    +0.000 A 
ATOM      4  N   UNL     1       4.069   4.358  16.716  0.00  0.00    +0.000 NA
ATOM      5  C   UNL     1       4.992   4.420  15.712  0.00  0.00    +0.000 A 
ATOM      6  C   UNL     1       5.014   3.770  14.466  0.00  0.00    +0.000 A 
ATOM      7  C   UNL     1       6.084   4.012  13.594  0.00  0.00    +0.000 A 
ATOM      8  C   UNL     1       7.126   4.847  13.982  0.00  0.00    +0.000 A 
ATOM      9  F   UNL     1       8.144   5.060  13.137  0.00  0.00    +0.000 F 
ATOM     10  C   UNL     1       7.139   5.484  15.221  0.00  0.00    +0.000 A 
ATOM     11  C   UNL     1       6.034   5.276  16.057  0.00  0.00    +0.000 A 
BRANCH   2  13
ATOM     12  C   UNL     1       7.727   6.375  18.586  0.00  0.00    +0.000 C 
ATOM     13  C   UNL     1       6.406   6.837  17.978  0.00  0.00    +0.000 C 
ENDBRANCH   2  13
ENDBRANCH   1   3
BRANCH   1  14
ATOM     14  C   UNL     1       2.898   6.829  18.826  0.00  0.00    +0.000 A 
ATOM     15  C   UNL     1       2.894   7.621  17.660  0.00  0.00    +0.000 A 
ATOM     16  C   UNL     1       2.196   8.829  17.595  0.00  0.00    +0.000 A 
ATOM     17  C   UNL     1       1.501   9.291  18.707  0.00  0.00    +0.000 A 
ATOM     18  C   UNL     1       1.496   8.540  19.878  0.00  0.00    +0.000 A 
ATOM     19  C   UNL     1       2.179   7.321  19.936  0.00  0.00    +0.000 A 
ENDBRANCH   1  14
BRANCH   1  20
ATOM     20  C   UNL     1       2.858   4.280  19.446  0.00  0.00    +0.000 A 
ATOM     21  C   UNL     1       1.661   3.870  18.830  0.00  0.00    +0.000 A 
ATOM     22  C   UNL     1       0.808   2.944  19.435  0.00  0.00    +0.000 A 
ATOM     23  C   UNL     1       1.169   2.346  20.635  0.00  0.00    +0.000 A 
ATOM     24  C   UNL     1       2.417   2.617  21.188  0.00  0.00    +0.000 A 
ATOM     25  C   UNL     1       3.264   3.555  20.583  0.00  0.00    +0.000 A 
ENDBRANCH   1  20
BRANCH   1  26
ATOM     26  O   UNL     1       4.665   5.722  19.973  0.00  0.00    +0.000 OA
ATOM     27  H   UNL     1       5.439   5.190  19.709  0.00  0.00    +0.000 HD
ENDBRANCH   1  26
TORSDOF 5
ENDMDL
MODEL 5
REMARK VINA RESULT:      -8.2      0.231      1.350
REMARK  Name = 
REMARK  6 active torsions:
REMARK  status: ('A' for Active; 'I' for Inactive)
REMARK    1  A    between atoms: C_1  and  C_2
REMARK    2  A    between atoms: C_2  and  N_3
REMARK    3  A    between atoms: C_4  and  C_5
REMARK    4  A    between atoms: C_5  and  O_6
REMARK    5  A    between atoms: C_5  and  C_7
REMARK    6  A    between atoms: C_5  and  C_13
REMARK                            x       y       z     vdW  Elec       q    Type
REMARK                         _______ _______ _______ _____ _____    ______ ____
ROOT
ATOM      1  C   UNL     1       5.358   5.948  16.148  0.00  0.00    +0.000 C 
ENDROOT
BRANCH   1   3
ATOM      2  N   UNL     1       3.429   5.573  17.872  0.00  0.00    +0.000 N 
ATOM      3  C   UNL     1       4.292   5.112  16.887  0.00  0.00    +0.000 A 
ATOM      4  N   UNL     1       4.094   3.817  16.681  0.00  0.00    +0.000 NA
ATOM      5  C   UNL     1       3.119   3.425  17.553  0.00  0.00    +0.000 A 
ATOM      6  C   UNL     1       2.581   2.147  17.787  0.00  0.00    +0.000 A 
ATOM      7  C   UNL     1       1.580   2.001  18.758  0.00  0.00    +0.000 A 
ATOM      8  C   UNL     1       1.102   3.114  19.440  0.00  0.00    +0.000 A 
ATOM      9  F   UNL     1       0.139   2.955  20.358  0.00  0.00    +0.000 F 
ATOM     10  C   UNL     1       1.602   4.394  19.208  0.00  0.00    +0.000 A 
ATOM     11  C   UNL     1       2.642   4.513  18.276  0.00  0.00    +0.000 A 
BRANCH   2  13
ATOM     12  C   UNL     1       2.216   7.769  17.924  0.00  0.00    +0.000 C 
ATOM     13  C   UNL     1       3.359   6.905  18.449  0.00  0.00    +0.000 C 
ENDBRANCH   2  13
ENDBRANCH   1   3
BRANCH   1  14
ATOM     14  C   UNL     1       6.455   6.426  17.134  0.00  0.00    +0.000 A 
ATOM     15  C   UNL     1       7.024   7.715  17.095  0.00  0.00    +0.000 A 
ATOM     16  C   UNL     1       8.024   8.103  17.990  0.00  0.00    +0.000 A 
ATOM     17  C   UNL     1       8.500   7.202  18.934  0.00  0.00    +0.000 A 
ATOM     18  C   UNL     1       7.970   5.917  18.991  0.00  0.00    +0.000 A 
ATOM     19  C   UNL     1       6.955   5.535  18.107  0.00  0.00    +0.000 A 
ENDBRANCH   1  14
BRANCH   1  20
ATOM     20  C   UNL     1       5.862   5.285  14.847  0.00  0.00    +0.000 A 
ATOM     21  C   UNL     1       5.071   4.397  14.095  0.00  0.00    +0.000 A 
ATOM     22  C   UNL     1       5.618   3.615  13.075  0.00  0.00    +0.000 A 
ATOM     23  C   UNL     1       6.955   3.759  12.729  0.00  0.00    +0.000 A 
ATOM     24  C   UNL     1       7.722   4.739  13.351  0.00  0.00    +0.000 A 
ATOM     25  C   UNL     1       7.172   5.512  14.382  0.00  0.00    +0.000 A 
ENDBRANCH   1  20
BRANCH   1  26
ATOM     26  O   UNL     1       4.686   7.151  15.717  0.00  0.00    +0.000 OA
ATOM     27  H   UNL     1       3.789   7.096  16.095  0.00  0.00    +0.000 HD
ENDBRANCH   1  26
TORSDOF 5
ENDMDL
MODEL 6
REMARK VINA RESULT:      -8.1      2.725      6.404
REMARK  Name = 
REMARK  6 active torsions:
REMARK  status: ('A' for Active; 'I' for Inactive)
REMARK    1  A    between atoms: C_1  and  C_2
REMARK    2  A    between atoms: C_2  and  N_3
REMARK    3  A    between atoms: C_4  and  C_5
REMARK    4  A    between atoms: C_5  and  O_6
REMARK    5  A    between atoms: C_5  and  C_7
REMARK    6  A    between atoms: C_5  and  C_13
REMARK                            x       y       z     vdW  Elec       q    Type
REMARK                         _______ _______ _______ _____ _____    ______ ____
ROOT
ATOM      1  C   UNL     1       3.518   5.717  19.241  0.00  0.00    +0.000 C 
ENDROOT
BRANCH   1   3
ATOM      2  N   UNL     1       3.887   4.492  16.962  0.00  0.00    +0.000 N 
ATOM      3  C   UNL     1       4.290   5.383  17.947  0.00  0.00    +0.000 A 
ATOM      4  N   UNL     1       5.471   5.899  17.636  0.00  0.00    +0.000 NA
ATOM      5  C   UNL     1       5.853   5.323  16.458  0.00  0.00    +0.000 A 
ATOM      6  C   UNL     1       7.044   5.474  15.726  0.00  0.00    +0.000 A 
ATOM      7  C   UNL     1       7.203   4.754  14.534  0.00  0.00    +0.000 A 
ATOM      8  C   UNL     1       6.176   3.942  14.067  0.00  0.00    +0.000 A 
ATOM      9  F   UNL     1       6.344   3.269  12.921  0.00  0.00    +0.000 F 
ATOM     10  C   UNL     1       4.977   3.795  14.762  0.00  0.00    +0.000 A 
ATOM     11  C   UNL     1       4.858   4.477  15.980  0.00  0.00    +0.000 A 
BRANCH   2  13
ATOM     12  C   UNL     1       2.932   2.196  17.304  0.00  0.00    +0.000 C 
ATOM     13  C   UNL     1       2.696   3.659  16.940  0.00  0.00    +0.000 C 
ENDBRANCH   2  13
ENDBRANCH   1   3
BRANCH   1  14
ATOM     14  C   UNL     1       2.678   7.008  19.057  0.00  0.00    +0.000 A 
ATOM     15  C   UNL     1       2.567   7.692  17.830  0.00  0.00    +0.000 A 
ATOM     16  C   UNL     1       1.814   8.863  17.709  0.00  0.00    +0.000 A 
ATOM     17  C   UNL     1       1.170   9.395  18.820  0.00  0.00    +0.000 A 
ATOM     18  C   UNL     1       1.271   8.751  20.049  0.00  0.00    +0.000 A 
ATOM     19  C   UNL     1       2.009   7.568  20.166  0.00  0.00    +0.000 A 
ENDBRANCH   1  14
BRANCH   1  20
ATOM     20  C   UNL     1       2.770   4.504  19.837  0.00  0.00    +0.000 A 
ATOM     21  C   UNL     1       1.374   4.354  19.739  0.00  0.00    +0.000 A 
ATOM     22  C   UNL     1       0.687   3.399  20.492  0.00  0.00    +0.000 A 
ATOM     23  C   UNL     1       1.388   2.517  21.304  0.00  0.00    +0.000 A 
ATOM     24  C   UNL     1       2.779   2.542  21.301  0.00  0.00    +0.000 A 
ATOM     25  C   UNL     1       3.463   3.509  20.553  0.00  0.00    +0.000 A 
ENDBRANCH   1  20
BRANCH   1  26
ATOM     26  O   UNL     1       4.521   6.055  20.223  0.00  0.00    +0.000 OA
ATOM     27  H   UNL     1       5.376   5.849  19.800  0.00  0.00    +0.000 HD
ENDBRANCH   1  26
TORSDOF 5
ENDMDL
MODEL 7
REMARK VINA RESULT:      -8.0      2.668      6.135
REMARK  Name = 
REMARK  6 active torsions:
REMARK  status: ('A' for Active; 'I' for Inactive)
REMARK    1  A    between atoms: C_1  and  C_2
REMARK    2  A    between atoms: C_2  and  N_3
REMARK    3  A    between atoms: C_4  and  C_5
REMARK    4  A    between atoms: C_5  and  O_6
REMARK    5  A    between atoms: C_5  and  C_7
REMARK    6  A    between atoms: C_5  and  C_13
REMARK                            x       y       z     vdW  Elec       q    Type
REMARK                         _______ _______ _______ _____ _____    ______ ____
ROOT
ATOM      1  C   UNL     1       3.660   5.407  18.790  0.00  0.00    +0.000 C 
ENDROOT
BRANCH   1   3
ATOM      2  N   UNL     1       5.710   5.805  17.218  0.00  0.00    +0.000 N 
ATOM      3  C   UNL     1       4.508   5.180  17.521  0.00  0.00    +0.000 A 
ATOM      4  N   UNL     1       4.160   4.364  16.535  0.00  0.00    +0.000 NA
ATOM      5  C   UNL     1       5.123   4.477  15.573  0.00  0.00    +0.000 A 
ATOM      6  C   UNL     1       5.205   3.875  14.305  0.00  0.00    +0.000 A 
ATOM      7  C   UNL     1       6.307   4.164  13.488  0.00  0.00    +0.000 A 
ATOM      8  C   UNL     1       7.320   4.996  13.951  0.00  0.00    +0.000 A 
ATOM      9  F   UNL     1       8.369   5.253  13.158  0.00  0.00    +0.000 F 
ATOM     10  C   UNL     1       7.274   5.584  15.213  0.00  0.00    +0.000 A 
ATOM     11  C   UNL     1       6.138   5.330  15.994  0.00  0.00    +0.000 A 
BRANCH   2  13
ATOM     12  C   UNL     1       7.716   6.352  18.623  0.00  0.00    +0.000 C 
ATOM     13  C   UNL     1       6.410   6.820  17.987  0.00  0.00    +0.000 C 
ENDBRANCH   2  13
ENDBRANCH   1   3
BRANCH   1  14
ATOM     14  C   UNL     1       2.931   6.773  18.721  0.00  0.00    +0.000 A 
ATOM     15  C   UNL     1       2.955   7.609  17.587  0.00  0.00    +0.000 A 
ATOM     16  C   UNL     1       2.300   8.843  17.570  0.00  0.00    +0.000 A 
ATOM     17  C   UNL     1       1.620   9.285  18.699  0.00  0.00    +0.000 A 
ATOM     18  C   UNL     1       1.588   8.490  19.840  0.00  0.00    +0.000 A 
ATOM     19  C   UNL     1       2.228   7.246  19.850  0.00  0.00    +0.000 A 
ENDBRANCH   1  14
BRANCH   1  20
ATOM     20  C   UNL     1       2.782   4.191  19.164  0.00  0.00    +0.000 A 
ATOM     21  C   UNL     1       3.206   3.204  20.073  0.00  0.00    +0.000 A 
ATOM     22  C   UNL     1       2.522   1.993  20.208  0.00  0.00    +0.000 A 
ATOM     23  C   UNL     1       1.352   1.772  19.495  0.00  0.00    +0.000 A 
ATOM     24  C   UNL     1       0.826   2.792  18.707  0.00  0.00    +0.000 A 
ATOM     25  C   UNL     1       1.522   4.000  18.566  0.00  0.00    +0.000 A 
ENDBRANCH   1  20
BRANCH   1  26
ATOM     26  O   UNL     1       4.603   5.534  19.876  0.00  0.00    +0.000 OA
ATOM     27  H   UNL     1       5.296   6.136  19.547  0.00  0.00    +0.000 HD
ENDBRANCH   1  26
TORSDOF 5
ENDMDL
MODEL 8
REMARK VINA RESULT:      -8.0      3.000      4.799
REMARK  Name = 
REMARK  6 active torsions:
REMARK  status: ('A' for Active; 'I' for Inactive)
REMARK    1  A    between atoms: C_1  and  C_2
REMARK    2  A    between atoms: C_2  and  N_3
REMARK    3  A    between atoms: C_4  and  C_5
REMARK    4  A    between atoms: C_5  and  O_6
REMARK    5  A    between atoms: C_5  and  C_7
REMARK    6  A    between atoms: C_5  and  C_13
REMARK                            x       y       z     vdW  Elec       q    Type
REMARK                         _______ _______ _______ _____ _____    ______ ____
ROOT
ATOM      1  C   UNL     1       4.187   5.706  17.811  0.00  0.00    +0.000 C 
ENDROOT
BRANCH   1   3
ATOM      2  N   UNL     1       2.565   6.767  19.565  0.00  0.00    +0.000 N 
ATOM      3  C   UNL     1       3.222   6.787  18.341  0.00  0.00    +0.000 A 
ATOM      4  N   UNL     1       2.876   7.869  17.658  0.00  0.00    +0.000 NA
ATOM      5  C   UNL     1       1.972   8.546  18.425  0.00  0.00    +0.000 A 
ATOM      6  C   UNL     1       1.252   9.721  18.144  0.00  0.00    +0.000 A 
ATOM      7  C   UNL     1       0.362  10.217  19.107  0.00  0.00    +0.000 A 
ATOM      8  C   UNL     1       0.233   9.577  20.334  0.00  0.00    +0.000 A 
ATOM      9  F   UNL     1      -0.617  10.071  21.244  0.00  0.00    +0.000 F 
ATOM     10  C   UNL     1       0.953   8.425  20.645  0.00  0.00    +0.000 A 
ATOM     11  C   UNL     1       1.796   7.911  19.650  0.00  0.00    +0.000 A 
BRANCH   2  13
ATOM     12  C   UNL     1       1.355   4.857  20.652  0.00  0.00    +0.000 C 
ATOM     13  C   UNL     1       2.603   5.733  20.584  0.00  0.00    +0.000 C 
ENDBRANCH   2  13
ENDBRANCH   1   3
BRANCH   1  14
ATOM     14  C   UNL     1       5.654   6.065  18.159  0.00  0.00    +0.000 A 
ATOM     15  C   UNL     1       6.427   6.977  17.412  0.00  0.00    +0.000 A 
ATOM     16  C   UNL     1       7.753   7.262  17.747  0.00  0.00    +0.000 A 
ATOM     17  C   UNL     1       8.350   6.623  18.827  0.00  0.00    +0.000 A 
ATOM     18  C   UNL     1       7.619   5.707  19.577  0.00  0.00    +0.000 A 
ATOM     19  C   UNL     1       6.286   5.437  19.253  0.00  0.00    +0.000 A 
ENDBRANCH   1  14
BRANCH   1  20
ATOM     20  C   UNL     1       3.744   4.267  18.159  0.00  0.00    +0.000 A 
ATOM     21  C   UNL     1       4.405   3.485  19.124  0.00  0.00    +0.000 A 
ATOM     22  C   UNL     1       4.161   2.115  19.247  0.00  0.00    +0.000 A 
ATOM     23  C   UNL     1       3.191   1.508  18.460  0.00  0.00    +0.000 A 
ATOM     24  C   UNL     1       2.415   2.286  17.608  0.00  0.00    +0.000 A 
ATOM     25  C   UNL     1       2.671   3.658  17.479  0.00  0.00    +0.000 A 
ENDBRANCH   1  20
BRANCH   1  26
ATOM     26  O   UNL     1       4.110   5.781  16.371  0.00  0.00    +0.000 OA
ATOM     27  H   UNL     1       5.004   5.554  16.052  0.00  0.00    +0.000 HD
ENDBRANCH   1  26
TORSDOF 5
ENDMDL
MODEL 9
REMARK VINA RESULT:      -7.9      2.407      5.186
REMARK  Name = 
REMARK  6 active torsions:
REMARK  status: ('A' for Active; 'I' for Inactive)
REMARK    1  A    between atoms: C_1  and  C_2
REMARK    2  A    between atoms: C_2  and  N_3
REMARK    3  A    between atoms: C_4  and  C_5
REMARK    4  A    between atoms: C_5  and  O_6
REMARK    5  A    between atoms: C_5  and  C_7
REMARK    6  A    between atoms: C_5  and  C_13
REMARK                            x       y       z     vdW  Elec       q    Type
REMARK                         _______ _______ _______ _____ _____    ______ ____
ROOT
ATOM      1  C   UNL     1       4.333   5.109  18.271  0.00  0.00    +0.000 C 
ENDROOT
BRANCH   1   3
ATOM      2  N   UNL     1       2.688   6.601  19.650  0.00  0.00    +0.000 N 
ATOM      3  C   UNL     1       3.470   6.363  18.528  0.00  0.00    +0.000 A 
ATOM      4  N   UNL     1       3.350   7.367  17.670  0.00  0.00    +0.000 NA
ATOM      5  C   UNL     1       2.467   8.250  18.220  0.00  0.00    +0.000 A 
ATOM      6  C   UNL     1       1.947   9.448  17.698  0.00  0.00    +0.000 A 
ATOM      7  C   UNL     1       1.032  10.181  18.466  0.00  0.00    +0.000 A 
ATOM      8  C   UNL     1       0.686   9.748  19.741  0.00  0.00    +0.000 A 
ATOM      9  F   UNL     1      -0.184  10.467  20.463  0.00  0.00    +0.000 F 
ATOM     10  C   UNL     1       1.206   8.578  20.290  0.00  0.00    +0.000 A 
ATOM     11  C   UNL     1       2.075   7.828  19.486  0.00  0.00    +0.000 A 
BRANCH   2  13
ATOM     12  C   UNL     1       1.197   4.899  20.734  0.00  0.00    +0.000 C 
ATOM     13  C   UNL     1       2.475   5.731  20.794  0.00  0.00    +0.000 C 
ENDBRANCH   2  13
ENDBRANCH   1   3
BRANCH   1  14
ATOM     14  C   UNL     1       3.479   3.822  18.407  0.00  0.00    +0.000 A 
ATOM     15  C   UNL     1       2.212   3.666  17.810  0.00  0.00    +0.000 A 
ATOM     16  C   UNL     1       1.464   2.497  17.970  0.00  0.00    +0.000 A 
ATOM     17  C   UNL     1       1.955   1.459  18.753  0.00  0.00    +0.000 A 
ATOM     18  C   UNL     1       3.197   1.587  19.367  0.00  0.00    +0.000 A 
ATOM     19  C   UNL     1       3.954   2.750  19.191  0.00  0.00    +0.000 A 
ENDBRANCH   1  14
BRANCH   1  20
ATOM     20  C   UNL     1       5.198   5.213  16.995  0.00  0.00    +0.000 A 
ATOM     21  C   UNL     1       4.785   4.690  15.756  0.00  0.00    +0.000 A 
ATOM     22  C   UNL     1       5.671   4.563  14.684  0.00  0.00    +0.000 A 
ATOM     23  C   UNL     1       6.974   5.031  14.799  0.00  0.00    +0.000 A 
ATOM     24  C   UNL     1       7.364   5.693  15.959  0.00  0.00    +0.000 A 
ATOM     25  C   UNL     1       6.475   5.807  17.036  0.00  0.00    +0.000 A 
ENDBRANCH   1  20
BRANCH   1  26
ATOM     26  O   UNL     1       5.280   5.052  19.360  0.00  0.00    +0.000 OA
ATOM     27  H   UNL     1       4.746   5.150  20.171  0.00  0.00    +0.000 HD
ENDBRANCH   1  26
TORSDOF 5
ENDMDL
