MODEL 1
REMARK VINA RESULT:      -7.9      0.000      0.000
REMARK  Name = 
REMARK  12 active torsions:
REMARK  status: ('A' for Active; 'I' for Inactive)
REMARK    1  A    between atoms: C_1  and  C_2
REMARK    2  A    between atoms: C_2  and  C_3
REMARK    3  A    between atoms: C_3  and  C_4
REMARK    4  A    between atoms: C_4  and  S_5
REMARK    5  A    between atoms: S_5  and  N_8
REMARK    6  A    between atoms: N_8  and  C_9
REMARK    7  A    between atoms: C_9  and  C_10
REMARK    8  A    between atoms: C_9  and  C_11
REMARK    9  A    between atoms: C_11  and  C_12
REMARK   10  A    between atoms: C_11  and  C_20
REMARK   11  A    between atoms: C_12  and  C_13
REMARK   12  A    between atoms: C_24  and  C_25
REMARK                            x       y       z     vdW  Elec       q    Type
REMARK                         _______ _______ _______ _____ _____    ______ ____
ROOT
ATOM      1  C   UNL     1       4.464   6.304  18.064  0.00  0.00    +0.000 C 
ENDROOT
BRANCH   1   2
ATOM      2  C   UNL     1       3.958   4.865  18.305  0.00  0.00    +0.000 A 
ATOM      3  C   UNL     1       2.940   4.283  17.544  0.00  0.00    +0.000 A 
ATOM      4  C   UNL     1       2.615   2.929  17.631  0.00  0.00    +0.000 A 
ATOM      5  C   UNL     1       3.252   2.130  18.565  0.00  0.00    +0.000 A 
ATOM      6  C   UNL     1       4.182   2.703  19.429  0.00  0.00    +0.000 A 
ATOM      7  C   UNL     1       4.527   4.059  19.305  0.00  0.00    +0.000 A 
BRANCH   6   8
ATOM      8  C   UNL     1       4.806   1.902  20.433  0.00  0.00    +0.000 C 
ATOM      9  N   UNL     1       5.329   1.252  21.244  0.00  0.00    +0.000 NA
ENDBRANCH   6   8
ENDBRANCH   1   2
BRANCH   1  10
ATOM     10  C   UNL     1       5.883   6.311  17.372  0.00  0.00    +0.000 C 
ATOM     11  C   UNL     1       6.533   7.694  17.391  0.00  0.00    +0.000 C 
BRANCH  10  12
ATOM     12  N   UNL     1       5.780   5.721  16.023  0.00  0.00    +0.000 NA
ATOM     13  H   UNL     1       4.904   5.866  15.512  0.00  0.00    +0.000 HD
BRANCH  12  14
ATOM     14  S   UNL     1       6.609   4.375  15.496  0.00  0.00    +0.000 S 
ATOM     15  O   UNL     1       5.766   3.214  15.662  0.00  0.00    +0.000 OA
ATOM     16  O   UNL     1       7.911   4.450  16.119  0.00  0.00    +0.000 OA
BRANCH  14  17
ATOM     17  C   UNL     1       6.808   4.744  13.761  0.00  0.00    +0.000 C 
BRANCH  17  18
ATOM     18  C   UNL     1       6.319   3.589  12.912  0.00  0.00    +0.000 C 
BRANCH  18  20
ATOM     19  C   UNL     1       4.563   2.814  11.322  0.00  0.00    +0.000 C 
ATOM     20  C   UNL     1       4.927   3.862  12.359  0.00  0.00    +0.000 C 
ENDBRANCH  18  20
ENDBRANCH  17  18
ENDBRANCH  14  17
ENDBRANCH  12  14
ENDBRANCH  10  12
ENDBRANCH   1  10
BRANCH   1  21
ATOM     21  C   UNL     1       3.425   7.320  17.442  0.00  0.00    +0.000 C 
BRANCH  21  22
ATOM     22  C   UNL     1       2.404   7.999  18.345  0.00  0.00    +0.000 A 
ATOM     23  C   UNL     1       1.663   9.106  17.898  0.00  0.00    +0.000 A 
ATOM     24  C   UNL     1       0.855   9.837  18.775  0.00  0.00    +0.000 A 
ATOM     25  C   UNL     1       0.737   9.439  20.102  0.00  0.00    +0.000 A 
ATOM     26 CL   UNL     1      -0.232  10.348  21.191  0.00  0.00    +0.000 Cl
ATOM     27  C   UNL     1       1.385   8.293  20.541  0.00  0.00    +0.000 A 
ATOM     28  C   UNL     1       2.175   7.559  19.652  0.00  0.00    +0.000 A 
ENDBRANCH  21  22
ENDBRANCH   1  21
TORSDOF 10
ENDMDL
MODEL 2
REMARK VINA RESULT:      -7.6      2.971      4.257
REMARK  Name = 
REMARK  12 active torsions:
REMARK  status: ('A' for Active; 'I' for Inactive)
REMARK    1  A    between atoms: C_1  and  C_2
REMARK    2  A    between atoms: C_2  and  C_3
REMARK    3  A    between atoms: C_3  and  C_4
REMARK    4  A    between atoms: C_4  and  S_5
REMARK    5  A    between atoms: S_5  and  N_8
REMARK    6  A    between atoms: N_8  and  C_9
REMARK    7  A    between atoms: C_9  and  C_10
REMARK    8  A    between atoms: C_9  and  C_11
REMARK    9  A    between atoms: C_11  and  C_12
REMARK   10  A    between atoms: C_11  and  C_20
REMARK   11  A    between atoms: C_12  and  C_13
REMARK   12  A    between atoms: C_24  and  C_25
REMARK                            x       y       z     vdW  Elec       q    Type
REMARK                         _______ _______ _______ _____ _____    ______ ____
ROOT
ATOM      1  C   UNL     1       3.564   6.426  18.535  0.00  0.00    +0.000 C 
ENDROOT
BRANCH   1   2
ATOM      2  C   UNL     1       2.638   5.200  18.683  0.00  0.00    +0.000 A 
ATOM      3  C   UNL     1       2.017   4.585  17.593  0.00  0.00    +0.000 A 
ATOM      4  C   UNL     1       1.338   3.370  17.700  0.00  0.00    +0.000 A 
ATOM      5  C   UNL     1       1.184   2.778  18.941  0.00  0.00    +0.000 A 
ATOM      6  C   UNL     1       1.680   3.426  20.070  0.00  0.00    +0.000 A 
ATOM      7  C   UNL     1       2.394   4.630  19.944  0.00  0.00    +0.000 A 
BRANCH   6   8
ATOM      8  C   UNL     1       1.480   2.854  21.363  0.00  0.00    +0.000 C 
ATOM      9  N   UNL     1       1.303   2.397  22.419  0.00  0.00    +0.000 NA
ENDBRANCH   6   8
ENDBRANCH   1   2
BRANCH   1  10
ATOM     10  C   UNL     1       4.975   6.020  17.953  0.00  0.00    +0.000 C 
ATOM     11  C   UNL     1       5.547   4.773  18.626  0.00  0.00    +0.000 C 
BRANCH  10  12
ATOM     12  N   UNL     1       5.881   7.184  17.989  0.00  0.00    +0.000 NA
ATOM     13  H   UNL     1       5.466   8.107  17.828  0.00  0.00    +0.000 HD
BRANCH  12  14
ATOM     14  S   UNL     1       7.508   7.148  17.639  0.00  0.00    +0.000 S 
ATOM     15  O   UNL     1       7.698   6.489  16.367  0.00  0.00    +0.000 OA
ATOM     16  O   UNL     1       8.154   6.662  18.837  0.00  0.00    +0.000 OA
BRANCH  14  17
ATOM     17  C   UNL     1       7.872   8.889  17.486  0.00  0.00    +0.000 C 
BRANCH  17  18
ATOM     18  C   UNL     1       8.787   9.341  18.606  0.00  0.00    +0.000 C 
BRANCH  18  20
ATOM     19  C   UNL     1      10.496  11.129  18.911  0.00  0.00    +0.000 C 
ATOM     20  C   UNL     1       9.056  10.838  18.528  0.00  0.00    +0.000 C 
ENDBRANCH  18  20
ENDBRANCH  17  18
ENDBRANCH  14  17
ENDBRANCH  12  14
ENDBRANCH  10  12
ENDBRANCH   1  10
BRANCH   1  21
ATOM     21  C   UNL     1       2.928   7.713  17.875  0.00  0.00    +0.000 C 
BRANCH  21  22
ATOM     22  C   UNL     1       1.889   8.518  18.646  0.00  0.00    +0.000 A 
ATOM     23  C   UNL     1       1.169   9.554  18.027  0.00  0.00    +0.000 A 
ATOM     24  C   UNL     1       0.345  10.406  18.769  0.00  0.00    +0.000 A 
ATOM     25  C   UNL     1       0.189  10.199  20.136  0.00  0.00    +0.000 A 
ATOM     26 CL   UNL     1      -0.801  11.257  21.059  0.00  0.00    +0.000 Cl
ATOM     27  C   UNL     1       0.816   9.125  20.750  0.00  0.00    +0.000 A 
ATOM     28  C   UNL     1       1.622   8.269  19.995  0.00  0.00    +0.000 A 
ENDBRANCH  21  22
ENDBRANCH   1  21
TORSDOF 10
ENDMDL
MODEL 3
REMARK VINA RESULT:      -7.5      2.026      2.472
REMARK  Name = 
REMARK  12 active torsions:
REMARK  status: ('A' for Active; 'I' for Inactive)
REMARK    1  A    between atoms: C_1  and  C_2
REMARK    2  A    between atoms: C_2  and  C_3
REMARK    3  A    between atoms: C_3  and  C_4
REMARK    4  A    between atoms: C_4  and  S_5
REMARK    5  A    between atoms: S_5  and  N_8
REMARK    6  A    between atoms: N_8  and  C_9
REMARK    7  A    between atoms: C_9  and  C_10
REMARK    8  A    between atoms: C_9  and  C_11
REMARK    9  A    between atoms: C_11  and  C_12
REMARK   10  A    between atoms: C_11  and  C_20
REMARK   11  A    between atoms: C_12  and  C_13
REMARK   12  A    between atoms: C_24  and  C_25
REMARK                            x       y       z     vdW  Elec       q    Type
REMARK                         _______ _______ _______ _____ _____    ______ ____
ROOT
ATOM      1  C   UNL     1       3.237   6.748  18.607  0.00  0.00    +0.000 C 
ENDROOT
BRANCH   1   2
ATOM      2  C   UNL     1       2.693   5.304  18.671  0.00  0.00    +0.000 A 
ATOM      3  C   UNL     1       2.559   4.496  17.539  0.00  0.00    +0.000 A 
ATOM      4  C   UNL     1       2.251   3.136  17.618  0.00  0.00    +0.000 A 
ATOM      5  C   UNL     1       1.975   2.566  18.847  0.00  0.00    +0.000 A 
ATOM      6  C   UNL     1       1.973   3.370  19.985  0.00  0.00    +0.000 A 
ATOM      7  C   UNL     1       2.322   4.728  19.897  0.00  0.00    +0.000 A 
BRANCH   6   8
ATOM      8  C   UNL     1       1.636   2.805  21.253  0.00  0.00    +0.000 C 
ATOM      9  N   UNL     1       1.357   2.331  22.278  0.00  0.00    +0.000 NA
ENDBRANCH   6   8
ENDBRANCH   1   2
BRANCH   1  10
ATOM     10  C   UNL     1       4.579   6.826  17.779  0.00  0.00    +0.000 C 
ATOM     11  C   UNL     1       4.335   7.118  16.300  0.00  0.00    +0.000 C 
BRANCH  10  12
ATOM     12  N   UNL     1       5.382   5.611  18.021  0.00  0.00    +0.000 NA
ATOM     13  H   UNL     1       5.018   4.935  18.698  0.00  0.00    +0.000 HD
BRANCH  12  14
ATOM     14  S   UNL     1       7.032   5.496  17.830  0.00  0.00    +0.000 S 
ATOM     15  O   UNL     1       7.559   4.612  18.845  0.00  0.00    +0.000 OA
ATOM     16  O   UNL     1       7.506   6.856  17.703  0.00  0.00    +0.000 OA
BRANCH  14  17
ATOM     17  C   UNL     1       7.146   4.722  16.226  0.00  0.00    +0.000 C 
BRANCH  17  18
ATOM     18  C   UNL     1       5.928   3.860  15.964  0.00  0.00    +0.000 C 
BRANCH  18  20
ATOM     19  C   UNL     1       6.597   4.266  13.598  0.00  0.00    +0.000 C 
ATOM     20  C   UNL     1       5.427   4.034  14.536  0.00  0.00    +0.000 C 
ENDBRANCH  18  20
ENDBRANCH  17  18
ENDBRANCH  14  17
ENDBRANCH  12  14
ENDBRANCH  10  12
ENDBRANCH   1  10
BRANCH   1  21
ATOM     21  C   UNL     1       2.189   7.881  18.266  0.00  0.00    +0.000 C 
BRANCH  21  22
ATOM     22  C   UNL     1       1.524   8.656  19.396  0.00  0.00    +0.000 A 
ATOM     23  C   UNL     1       1.587   8.200  20.724  0.00  0.00    +0.000 A 
ATOM     24  C   UNL     1       0.838   8.809  21.735  0.00  0.00    +0.000 A 
ATOM     25  C   UNL     1       0.053   9.919  21.440  0.00  0.00    +0.000 A 
ATOM     26 CL   UNL     1      -0.892  10.656  22.671  0.00  0.00    +0.000 Cl
ATOM     27  C   UNL     1       0.050  10.444  20.155  0.00  0.00    +0.000 A 
ATOM     28  C   UNL     1       0.817   9.838  19.158  0.00  0.00    +0.000 A 
ENDBRANCH  21  22
ENDBRANCH   1  21
TORSDOF 10
ENDMDL
MODEL 4
REMARK VINA RESULT:      -7.5      1.383      1.478
REMARK  Name = 
REMARK  12 active torsions:
REMARK  status: ('A' for Active; 'I' for Inactive)
REMARK    1  A    between atoms: C_1  and  C_2
REMARK    2  A    between atoms: C_2  and  C_3
REMARK    3  A    between atoms: C_3  and  C_4
REMARK    4  A    between atoms: C_4  and  S_5
REMARK    5  A    between atoms: S_5  and  N_8
REMARK    6  A    between atoms: N_8  and  C_9
REMARK    7  A    between atoms: C_9  and  C_10
REMARK    8  A    between atoms: C_9  and  C_11
REMARK    9  A    between atoms: C_11  and  C_12
REMARK   10  A    between atoms: C_11  and  C_20
REMARK   11  A    between atoms: C_12  and  C_13
REMARK   12  A    between atoms: C_24  and  C_25
REMARK                            x       y       z     vdW  Elec       q    Type
REMARK                         _______ _______ _______ _____ _____    ______ ____
ROOT
ATOM      1  C   UNL     1       4.308   5.868  18.249  0.00  0.00    +0.000 C 
ENDROOT
BRANCH   1   2
ATOM      2  C   UNL     1       3.421   4.617  18.425  0.00  0.00    +0.000 A 
ATOM      3  C   UNL     1       3.072   3.781  17.360  0.00  0.00    +0.000 A 
ATOM      4  C   UNL     1       2.436   2.552  17.546  0.00  0.00    +0.000 A 
ATOM      5  C   UNL     1       2.045   2.167  18.816  0.00  0.00    +0.000 A 
ATOM      6  C   UNL     1       2.261   3.033  19.885  0.00  0.00    +0.000 A 
ATOM      7  C   UNL     1       2.937   4.249  19.691  0.00  0.00    +0.000 A 
BRANCH   6   8
ATOM      8  C   UNL     1       1.812   2.672  21.193  0.00  0.00    +0.000 C 
ATOM      9  N   UNL     1       1.437   2.392  22.258  0.00  0.00    +0.000 NA
ENDBRANCH   6   8
ENDBRANCH   1   2
BRANCH   1  10
ATOM     10  C   UNL     1       5.732   5.494  17.679  0.00  0.00    +0.000 C 
ATOM     11  C   UNL     1       6.861   6.218  18.412  0.00  0.00    +0.000 C 
BRANCH  10  12
ATOM     12  N   UNL     1       5.749   5.692  16.217  0.00  0.00    +0.000 NA
ATOM     13  H   UNL     1       4.942   6.163  15.798  0.00  0.00    +0.000 HD
BRANCH  12  14
ATOM     14  S   UNL     1       6.565   4.734  15.126  0.00  0.00    +0.000 S 
ATOM     15  O   UNL     1       6.705   3.408  15.683  0.00  0.00    +0.000 OA
ATOM     16  O   UNL     1       7.721   5.501  14.721  0.00  0.00    +0.000 OA
BRANCH  14  17
ATOM     17  C   UNL     1       5.417   4.705  13.759  0.00  0.00    +0.000 C 
BRANCH  17  18
ATOM     18  C   UNL     1       5.601   3.445  12.937  0.00  0.00    +0.000 C 
BRANCH  18  20
ATOM     19  C   UNL     1       7.042   2.246  11.296  0.00  0.00    +0.000 C 
ATOM     20  C   UNL     1       6.792   3.570  11.998  0.00  0.00    +0.000 C 
ENDBRANCH  18  20
ENDBRANCH  17  18
ENDBRANCH  14  17
ENDBRANCH  12  14
ENDBRANCH  10  12
ENDBRANCH   1  10
BRANCH   1  21
ATOM     21  C   UNL     1       3.632   7.118  17.556  0.00  0.00    +0.000 C 
BRANCH  21  22
ATOM     22  C   UNL     1       2.557   7.900  18.301  0.00  0.00    +0.000 A 
ATOM     23  C   UNL     1       1.866   8.954  17.679  0.00  0.00    +0.000 A 
ATOM     24  C   UNL     1       1.007   9.784  18.407  0.00  0.00    +0.000 A 
ATOM     25  C   UNL     1       0.787   9.537  19.757  0.00  0.00    +0.000 A 
ATOM     26 CL   UNL     1      -0.246  10.569  20.664  0.00  0.00    +0.000 Cl
ATOM     27  C   UNL     1       1.386   8.445  20.369  0.00  0.00    +0.000 A 
ATOM     28  C   UNL     1       2.227   7.612  19.628  0.00  0.00    +0.000 A 
ENDBRANCH  21  22
ENDBRANCH   1  21
TORSDOF 10
ENDMDL
MODEL 5
REMARK VINA RESULT:      -7.3      2.401      3.635
REMARK  Name = 
REMARK  12 active torsions:
REMARK  status: ('A' for Active; 'I' for Inactive)
REMARK    1  A    between atoms: C_1  and  C_2
REMARK    2  A    between atoms: C_2  and  C_3
REMARK    3  A    between atoms: C_3  and  C_4
REMARK    4  A    between atoms: C_4  and  S_5
REMARK    5  A    between atoms: S_5  and  N_8
REMARK    6  A    between atoms: N_8  and  C_9
REMARK    7  A    between atoms: C_9  and  C_10
REMARK    8  A    between atoms: C_9  and  C_11
REMARK    9  A    between atoms: C_11  and  C_12
REMARK   10  A    between atoms: C_11  and  C_20
REMARK   11  A    between atoms: C_12  and  C_13
REMARK   12  A    between atoms: C_24  and  C_25
REMARK                            x       y       z     vdW  Elec       q    Type
REMARK                         _______ _______ _______ _____ _____    ______ ____
ROOT
ATOM      1  C   UNL     1       3.906   5.493  18.132  0.00  0.00    +0.000 C 
ENDROOT
BRANCH   1   2
ATOM      2  C   UNL     1       2.668   4.681  18.571  0.00  0.00    +0.000 A 
ATOM      3  C   UNL     1       1.586   4.433  17.721  0.00  0.00    +0.000 A 
ATOM      4  C   UNL     1       0.561   3.545  18.048  0.00  0.00    +0.000 A 
ATOM      5  C   UNL     1       0.546   2.943  19.294  0.00  0.00    +0.000 A 
ATOM      6  C   UNL     1       1.540   3.265  20.216  0.00  0.00    +0.000 A 
ATOM      7  C   UNL     1       2.587   4.131  19.860  0.00  0.00    +0.000 A 
BRANCH   6   8
ATOM      8  C   UNL     1       1.506   2.693  21.525  0.00  0.00    +0.000 C 
ATOM      9  N   UNL     1       1.462   2.230  22.591  0.00  0.00    +0.000 NA
ENDBRANCH   6   8
ENDBRANCH   1   2
BRANCH   1  10
ATOM     10  C   UNL     1       4.833   4.659  17.163  0.00  0.00    +0.000 C 
ATOM     11  C   UNL     1       4.135   3.413  16.619  0.00  0.00    +0.000 C 
BRANCH  10  12
ATOM     12  N   UNL     1       6.120   4.377  17.828  0.00  0.00    +0.000 NA
ATOM     13  H   UNL     1       6.088   4.093  18.812  0.00  0.00    +0.000 HD
BRANCH  12  14
ATOM     14  S   UNL     1       7.587   5.040  17.404  0.00  0.00    +0.000 S 
ATOM     15  O   UNL     1       7.525   5.469  16.025  0.00  0.00    +0.000 OA
ATOM     16  O   UNL     1       8.586   4.094  17.849  0.00  0.00    +0.000 OA
BRANCH  14  17
ATOM     17  C   UNL     1       7.655   6.459  18.484  0.00  0.00    +0.000 C 
BRANCH  17  18
ATOM     18  C   UNL     1       7.163   7.699  17.765  0.00  0.00    +0.000 C 
BRANCH  18  20
ATOM     19  C   UNL     1       8.726   9.329  18.817  0.00  0.00    +0.000 C 
ATOM     20  C   UNL     1       8.302   8.678  17.513  0.00  0.00    +0.000 C 
ENDBRANCH  18  20
ENDBRANCH  17  18
ENDBRANCH  14  17
ENDBRANCH  12  14
ENDBRANCH  10  12
ENDBRANCH   1  10
BRANCH   1  21
ATOM     21  C   UNL     1       3.645   6.981  17.670  0.00  0.00    +0.000 C 
BRANCH  21  22
ATOM     22  C   UNL     1       2.556   7.800  18.352  0.00  0.00    +0.000 A 
ATOM     23  C   UNL     1       1.875   8.818  17.663  0.00  0.00    +0.000 A 
ATOM     24  C   UNL     1       1.002   9.684  18.329  0.00  0.00    +0.000 A 
ATOM     25  C   UNL     1       0.758   9.509  19.687  0.00  0.00    +0.000 A 
ATOM     26 CL   UNL     1      -0.293  10.585  20.518  0.00  0.00    +0.000 Cl
ATOM     27  C   UNL     1       1.346   8.451  20.366  0.00  0.00    +0.000 A 
ATOM     28  C   UNL     1       2.202   7.581  19.686  0.00  0.00    +0.000 A 
ENDBRANCH  21  22
ENDBRANCH   1  21
TORSDOF 10
ENDMDL
MODEL 6
REMARK VINA RESULT:      -7.3      1.485      1.830
REMARK  Name = 
REMARK  12 active torsions:
REMARK  status: ('A' for Active; 'I' for Inactive)
REMARK    1  A    between atoms: C_1  and  C_2
REMARK    2  A    between atoms: C_2  and  C_3
REMARK    3  A    between atoms: C_3  and  C_4
REMARK    4  A    between atoms: C_4  and  S_5
REMARK    5  A    between atoms: S_5  and  N_8
REMARK    6  A    between atoms: N_8  and  C_9
REMARK    7  A    between atoms: C_9  and  C_10
REMARK    8  A    between atoms: C_9  and  C_11
REMARK    9  A    between atoms: C_11  and  C_12
REMARK   10  A    between atoms: C_11  and  C_20
REMARK   11  A    between atoms: C_12  and  C_13
REMARK   12  A    between atoms: C_24  and  C_25
REMARK                            x       y       z     vdW  Elec       q    Type
REMARK                         _______ _______ _______ _____ _____    ______ ____
ROOT
ATOM      1  C   UNL     1       4.286   5.685  18.422  0.00  0.00    +0.000 C 
ENDROOT
BRANCH   1   2
ATOM      2  C   UNL     1       3.384   4.444  18.599  0.00  0.00    +0.000 A 
ATOM      3  C   UNL     1       3.081   3.574  17.548  0.00  0.00    +0.000 A 
ATOM      4  C   UNL     1       2.428   2.355  17.746  0.00  0.00    +0.000 A 
ATOM      5  C   UNL     1       1.976   2.016  19.008  0.00  0.00    +0.000 A 
ATOM      6  C   UNL     1       2.147   2.918  20.056  0.00  0.00    +0.000 A 
ATOM      7  C   UNL     1       2.839   4.123  19.853  0.00  0.00    +0.000 A 
BRANCH   6   8
ATOM      8  C   UNL     1       1.636   2.604  21.353  0.00  0.00    +0.000 C 
ATOM      9  N   UNL     1       1.234   2.340  22.412  0.00  0.00    +0.000 NA
ENDBRANCH   6   8
ENDBRANCH   1   2
BRANCH   1  10
ATOM     10  C   UNL     1       5.745   5.282  17.971  0.00  0.00    +0.000 C 
ATOM     11  C   UNL     1       6.805   5.695  18.991  0.00  0.00    +0.000 C 
BRANCH  10  12
ATOM     12  N   UNL     1       6.001   5.788  16.609  0.00  0.00    +0.000 NA
ATOM     13  H   UNL     1       5.392   6.536  16.264  0.00  0.00    +0.000 HD
BRANCH  12  14
ATOM     14  S   UNL     1       6.701   4.917  15.375  0.00  0.00    +0.000 S 
ATOM     15  O   UNL     1       6.897   3.555  15.817  0.00  0.00    +0.000 OA
ATOM     16  O   UNL     1       7.810   5.720  14.911  0.00  0.00    +0.000 OA
BRANCH  14  17
ATOM     17  C   UNL     1       5.420   4.979  14.133  0.00  0.00    +0.000 C 
BRANCH  17  18
ATOM     18  C   UNL     1       5.134   3.592  13.594  0.00  0.00    +0.000 C 
BRANCH  18  20
ATOM     19  C   UNL     1       6.814   3.098  11.821  0.00  0.00    +0.000 C 
ATOM     20  C   UNL     1       5.382   3.522  12.093  0.00  0.00    +0.000 C 
ENDBRANCH  18  20
ENDBRANCH  17  18
ENDBRANCH  14  17
ENDBRANCH  12  14
ENDBRANCH  10  12
ENDBRANCH   1  10
BRANCH   1  21
ATOM     21  C   UNL     1       3.665   6.899  17.622  0.00  0.00    +0.000 C 
BRANCH  21  22
ATOM     22  C   UNL     1       2.725   7.864  18.333  0.00  0.00    +0.000 A 
ATOM     23  C   UNL     1       2.292   7.621  19.647  0.00  0.00    +0.000 A 
ATOM     24  C   UNL     1       1.298   8.407  20.239  0.00  0.00    +0.000 A 
ATOM     25  C   UNL     1       0.762   9.483  19.541  0.00  0.00    +0.000 A 
ATOM     26 CL   UNL     1      -0.478  10.438  20.252  0.00  0.00    +0.000 Cl
ATOM     27  C   UNL     1       1.242   9.800  18.279  0.00  0.00    +0.000 A 
ATOM     28  C   UNL     1       2.248   9.019  17.704  0.00  0.00    +0.000 A 
ENDBRANCH  21  22
ENDBRANCH   1  21
TORSDOF 10
ENDMDL
MODEL 7
REMARK VINA RESULT:      -7.3      2.188      2.734
REMARK  Name = 
REMARK  12 active torsions:
REMARK  status: ('A' for Active; 'I' for Inactive)
REMARK    1  A    between atoms: C_1  and  C_2
REMARK    2  A    between atoms: C_2  and  C_3
REMARK    3  A    between atoms: C_3  and  C_4
REMARK    4  A    between atoms: C_4  and  S_5
REMARK    5  A    between atoms: S_5  and  N_8
REMARK    6  A    between atoms: N_8  and  C_9
REMARK    7  A    between atoms: C_9  and  C_10
REMARK    8  A    between atoms: C_9  and  C_11
REMARK    9  A    between atoms: C_11  and  C_12
REMARK   10  A    between atoms: C_11  and  C_20
REMARK   11  A    between atoms: C_12  and  C_13
REMARK   12  A    between atoms: C_24  and  C_25
REMARK                            x       y       z     vdW  Elec       q    Type
REMARK                         _______ _______ _______ _____ _____    ______ ____
ROOT
ATOM      1  C   UNL     1       3.503   6.042  18.666  0.00  0.00    +0.000 C 
ENDROOT
BRANCH   1   2
ATOM      2  C   UNL     1       2.454   4.927  18.863  0.00  0.00    +0.000 A 
ATOM      3  C   UNL     1       1.698   4.403  17.810  0.00  0.00    +0.000 A 
ATOM      4  C   UNL     1       0.893   3.271  17.952  0.00  0.00    +0.000 A 
ATOM      5  C   UNL     1       0.753   2.681  19.195  0.00  0.00    +0.000 A 
ATOM      6  C   UNL     1       1.390   3.251  20.294  0.00  0.00    +0.000 A 
ATOM      7  C   UNL     1       2.228   4.368  20.132  0.00  0.00    +0.000 A 
BRANCH   6   8
ATOM      8  C   UNL     1       1.210   2.684  21.593  0.00  0.00    +0.000 C 
ATOM      9  N   UNL     1       1.052   2.210  22.644  0.00  0.00    +0.000 NA
ENDBRANCH   6   8
ENDBRANCH   1   2
BRANCH   1  10
ATOM     10  C   UNL     1       4.887   5.457  18.181  0.00  0.00    +0.000 C 
ATOM     11  C   UNL     1       5.455   4.424  19.153  0.00  0.00    +0.000 C 
BRANCH  10  12
ATOM     12  N   UNL     1       5.815   6.564  17.879  0.00  0.00    +0.000 NA
ATOM     13  H   UNL     1       5.435   7.370  17.373  0.00  0.00    +0.000 HD
BRANCH  12  14
ATOM     14  S   UNL     1       7.463   6.413  17.692  0.00  0.00    +0.000 S 
ATOM     15  O   UNL     1       8.088   6.468  18.993  0.00  0.00    +0.000 OA
ATOM     16  O   UNL     1       7.824   7.347  16.649  0.00  0.00    +0.000 OA
BRANCH  14  17
ATOM     17  C   UNL     1       7.590   4.764  17.020  0.00  0.00    +0.000 C 
BRANCH  17  18
ATOM     18  C   UNL     1       7.302   4.772  15.533  0.00  0.00    +0.000 C 
BRANCH  18  20
ATOM     19  C   UNL     1       5.260   4.370  14.161  0.00  0.00    +0.000 C 
ATOM     20  C   UNL     1       6.215   3.767  15.177  0.00  0.00    +0.000 C 
ENDBRANCH  18  20
ENDBRANCH  17  18
ENDBRANCH  14  17
ENDBRANCH  12  14
ENDBRANCH  10  12
ENDBRANCH   1  10
BRANCH   1  21
ATOM     21  C   UNL     1       3.023   7.328  17.881  0.00  0.00    +0.000 C 
BRANCH  21  22
ATOM     22  C   UNL     1       2.147   8.355  18.586  0.00  0.00    +0.000 A 
ATOM     23  C   UNL     1       1.785   8.197  19.934  0.00  0.00    +0.000 A 
ATOM     24  C   UNL     1       0.844   9.040  20.535  0.00  0.00    +0.000 A 
ATOM     25  C   UNL     1       0.291  10.088  19.807  0.00  0.00    +0.000 A 
ATOM     26 CL   UNL     1      -0.885  11.111  20.530  0.00  0.00    +0.000 Cl
ATOM     27  C   UNL     1       0.705  10.321  18.503  0.00  0.00    +0.000 A 
ATOM     28  C   UNL     1       1.659   9.483  17.920  0.00  0.00    +0.000 A 
ENDBRANCH  21  22
ENDBRANCH   1  21
TORSDOF 10
ENDMDL
MODEL 8
REMARK VINA RESULT:      -7.2      1.867      2.052
REMARK  Name = 
REMARK  12 active torsions:
REMARK  status: ('A' for Active; 'I' for Inactive)
REMARK    1  A    between atoms: C_1  and  C_2
REMARK    2  A    between atoms: C_2  and  C_3
REMARK    3  A    between atoms: C_3  and  C_4
REMARK    4  A    between atoms: C_4  and  S_5
REMARK    5  A    between atoms: S_5  and  N_8
REMARK    6  A    between atoms: N_8  and  C_9
REMARK    7  A    between atoms: C_9  and  C_10
REMARK    8  A    between atoms: C_9  and  C_11
REMARK    9  A    between atoms: C_11  and  C_12
REMARK   10  A    between atoms: C_11  and  C_20
REMARK   11  A    between atoms: C_12  and  C_13
REMARK   12  A    between atoms: C_24  and  C_25
REMARK                            x       y       z     vdW  Elec       q    Type
REMARK                         _______ _______ _______ _____ _____    ______ ____
ROOT
ATOM      1  C   UNL     1       3.920   5.819  18.734  0.00  0.00    +0.000 C 
ENDROOT
BRANCH   1   2
ATOM      2  C   UNL     1       2.757   4.820  18.915  0.00  0.00    +0.000 A 
ATOM      3  C   UNL     1       1.933   4.418  17.860  0.00  0.00    +0.000 A 
ATOM      4  C   UNL     1       1.010   3.378  17.981  0.00  0.00    +0.000 A 
ATOM      5  C   UNL     1       0.823   2.766  19.207  0.00  0.00    +0.000 A 
ATOM      6  C   UNL     1       1.534   3.227  20.313  0.00  0.00    +0.000 A 
ATOM      7  C   UNL     1       2.487   4.249  20.170  0.00  0.00    +0.000 A 
BRANCH   6   8
ATOM      8  C   UNL     1       1.309   2.642  21.596  0.00  0.00    +0.000 C 
ATOM      9  N   UNL     1       1.135   2.151  22.637  0.00  0.00    +0.000 NA
ENDBRANCH   6   8
ENDBRANCH   1   2
BRANCH   1  10
ATOM     10  C   UNL     1       5.222   5.102  18.203  0.00  0.00    +0.000 C 
ATOM     11  C   UNL     1       6.498   5.686  18.809  0.00  0.00    +0.000 C 
BRANCH  10  12
ATOM     12  N   UNL     1       5.217   5.091  16.727  0.00  0.00    +0.000 NA
ATOM     13  H   UNL     1       4.986   4.206  16.265  0.00  0.00    +0.000 HD
BRANCH  12  14
ATOM     14  S   UNL     1       6.113   6.103  15.754  0.00  0.00    +0.000 S 
ATOM     15  O   UNL     1       7.035   6.849  16.579  0.00  0.00    +0.000 OA
ATOM     16  O   UNL     1       5.156   6.775  14.904  0.00  0.00    +0.000 OA
BRANCH  14  17
ATOM     17  C   UNL     1       7.004   4.924  14.752  0.00  0.00    +0.000 C 
BRANCH  17  18
ATOM     18  C   UNL     1       6.056   3.896  14.170  0.00  0.00    +0.000 C 
BRANCH  18  20
ATOM     19  C   UNL     1       5.023   3.285  11.986  0.00  0.00    +0.000 C 
ATOM     20  C   UNL     1       6.309   3.694  12.682  0.00  0.00    +0.000 C 
ENDBRANCH  18  20
ENDBRANCH  17  18
ENDBRANCH  14  17
ENDBRANCH  12  14
ENDBRANCH  10  12
ENDBRANCH   1  10
BRANCH   1  21
ATOM     21  C   UNL     1       3.574   7.177  18.001  0.00  0.00    +0.000 C 
BRANCH  21  22
ATOM     22  C   UNL     1       2.423   8.034  18.512  0.00  0.00    +0.000 A 
ATOM     23  C   UNL     1       1.767   8.946  17.667  0.00  0.00    +0.000 A 
ATOM     24  C   UNL     1       0.831   9.854  18.170  0.00  0.00    +0.000 A 
ATOM     25  C   UNL     1       0.499   9.828  19.520  0.00  0.00    +0.000 A 
ATOM     26 CL   UNL     1      -0.631  10.958  20.151  0.00  0.00    +0.000 Cl
ATOM     27  C   UNL     1       1.063   8.873  20.354  0.00  0.00    +0.000 A 
ATOM     28  C   UNL     1       1.983   7.958  19.837  0.00  0.00    +0.000 A 
ENDBRANCH  21  22
ENDBRANCH   1  21
TORSDOF 10
ENDMDL
MODEL 9
REMARK VINA RESULT:      -7.2      1.647      2.278
REMARK  Name = 
REMARK  12 active torsions:
REMARK  status: ('A' for Active; 'I' for Inactive)
REMARK    1  A    between atoms: C_1  and  C_2
REMARK    2  A    between atoms: C_2  and  C_3
REMARK    3  A    between atoms: C_3  and  C_4
REMARK    4  A    between atoms: C_4  and  S_5
REMARK    5  A    between atoms: S_5  and  N_8
REMARK    6  A    between atoms: N_8  and  C_9
REMARK    7  A    between atoms: C_9  and  C_10
REMARK    8  A    between atoms: C_9  and  C_11
REMARK    9  A    between atoms: C_11  and  C_12
REMARK   10  A    between atoms: C_11  and  C_20
REMARK   11  A    between atoms: C_12  and  C_13
REMARK   12  A    between atoms: C_24  and  C_25
REMARK                            x       y       z     vdW  Elec       q    Type
REMARK                         _______ _______ _______ _____ _____    ______ ____
ROOT
ATOM      1  C   UNL     1       4.823   5.815  18.332  0.00  0.00    +0.000 C 
ENDROOT
BRANCH   1   2
ATOM      2  C   UNL     1       4.294   4.430  18.764  0.00  0.00    +0.000 A 
ATOM      3  C   UNL     1       5.055   3.531  19.516  0.00  0.00    +0.000 A 
ATOM      4  C   UNL     1       4.516   2.367  20.068  0.00  0.00    +0.000 A 
ATOM      5  C   UNL     1       3.203   2.025  19.799  0.00  0.00    +0.000 A 
ATOM      6  C   UNL     1       2.451   2.831  18.948  0.00  0.00    +0.000 A 
ATOM      7  C   UNL     1       2.993   4.019  18.430  0.00  0.00    +0.000 A 
BRANCH   6   8
ATOM      8  C   UNL     1       1.112   2.460  18.617  0.00  0.00    +0.000 C 
ATOM      9  N   UNL     1       0.021   2.147  18.361  0.00  0.00    +0.000 NA
ENDBRANCH   6   8
ENDBRANCH   1   2
BRANCH   1  10
ATOM     10  C   UNL     1       6.276   5.716  17.723  0.00  0.00    +0.000 C 
ATOM     11  C   UNL     1       6.873   7.089  17.414  0.00  0.00    +0.000 C 
BRANCH  10  12
ATOM     12  N   UNL     1       6.270   4.797  16.569  0.00  0.00    +0.000 NA
ATOM     13  H   UNL     1       6.591   3.837  16.732  0.00  0.00    +0.000 HD
BRANCH  12  14
ATOM     14  S   UNL     1       6.411   5.254  14.974  0.00  0.00    +0.000 S 
ATOM     15  O   UNL     1       7.811   5.419  14.658  0.00  0.00    +0.000 OA
ATOM     16  O   UNL     1       5.471   6.336  14.794  0.00  0.00    +0.000 OA
BRANCH  14  17
ATOM     17  C   UNL     1       5.761   3.816  14.139  0.00  0.00    +0.000 C 
BRANCH  17  18
ATOM     18  C   UNL     1       6.322   3.717  12.735  0.00  0.00    +0.000 C 
BRANCH  18  20
ATOM     19  C   UNL     1       5.927   1.665  11.377  0.00  0.00    +0.000 C 
ATOM     20  C   UNL     1       5.351   3.004  11.803  0.00  0.00    +0.000 C 
ENDBRANCH  18  20
ENDBRANCH  17  18
ENDBRANCH  14  17
ENDBRANCH  12  14
ENDBRANCH  10  12
ENDBRANCH   1  10
BRANCH   1  21
ATOM     21  C   UNL     1       3.826   6.722  17.506  0.00  0.00    +0.000 C 
BRANCH  21  22
ATOM     22  C   UNL     1       2.892   7.675  18.241  0.00  0.00    +0.000 A 
ATOM     23  C   UNL     1       2.497   7.425  19.566  0.00  0.00    +0.000 A 
ATOM     24  C   UNL     1       1.510   8.198  20.184  0.00  0.00    +0.000 A 
ATOM     25  C   UNL     1       0.940   9.267  19.501  0.00  0.00    +0.000 A 
ATOM     26 CL   UNL     1      -0.293  10.205  20.245  0.00  0.00    +0.000 Cl
ATOM     27  C   UNL     1       1.383   9.590  18.226  0.00  0.00    +0.000 A 
ATOM     28  C   UNL     1       2.383   8.822  17.625  0.00  0.00    +0.000 A 
ENDBRANCH  21  22
ENDBRANCH   1  21
TORSDOF 10
ENDMDL
