MODEL 1
REMARK VINA RESULT:      -7.8      0.000      0.000
REMARK  Name = 
REMARK  12 active torsions:
REMARK  status: ('A' for Active; 'I' for Inactive)
REMARK    1  A    between atoms: C_1  and  O_2
REMARK    2  A    between atoms: O_2  and  C_3
REMARK    3  A    between atoms: C_6  and  O_7
REMARK    4  A    between atoms: O_7  and  C_8
REMARK    5  A    between atoms: C_9  and  C_10
REMARK    6  A    between atoms: C_12  and  C_13
REMARK    7  A    between atoms: C_14  and  S_15
REMARK    8  A    between atoms: S_15  and  C_18
REMARK    9  A    between atoms: C_21  and  C_22
REMARK   10  A    between atoms: C_22  and  C_23
REMARK   11  A    between atoms: C_22  and  C_24
REMARK   12  A    between atoms: C_22  and  C_25
REMARK                            x       y       z     vdW  Elec       q    Type
REMARK                         _______ _______ _______ _____ _____    ______ ____
ROOT
ATOM      1  C   UNL     1      -1.499  11.042  18.970  0.00  0.00    +0.000 A 
ATOM      2  N   UNL     1      -0.665  12.004  19.334  0.00  0.00    +0.000 NA
ATOM      3  C   UNL     1       0.239  11.440  20.197  0.00  0.00    +0.000 A 
ATOM      4  C   UNL     1       1.422  12.221  20.629  0.00  0.00    +0.000 C 
ATOM      5  C   UNL     1      -0.098  10.131  20.471  0.00  0.00    +0.000 A 
ATOM      6  N   UNL     1      -1.219   9.906  19.692  0.00  0.00    +0.000 N 
ATOM      7  H   UNL     1      -1.692   9.017  19.584  0.00  0.00    +0.000 HD
ENDROOT
BRANCH   1  12
ATOM      8  C   UNL     1      -2.975  10.660  15.533  0.00  0.00    +0.000 A 
ATOM      9  C   UNL     1      -4.275  11.113  15.713  0.00  0.00    +0.000 A 
ATOM     10  C   UNL     1      -4.685  11.616  16.950  0.00  0.00    +0.000 A 
ATOM     11  C   UNL     1      -3.799  11.677  18.038  0.00  0.00    +0.000 A 
ATOM     12  C   UNL     1      -2.494  11.167  17.888  0.00  0.00    +0.000 A 
ATOM     13  C   UNL     1      -2.100  10.683  16.618  0.00  0.00    +0.000 A 
BRANCH   8  15
ATOM     14  C   UNL     1      -3.793   9.887  13.441  0.00  0.00    +0.000 C 
ATOM     15  O   UNL     1      -2.686  10.212  14.274  0.00  0.00    +0.000 OA
ENDBRANCH   8  15
BRANCH  11  16
ATOM     16  O   UNL     1      -4.167  12.184  19.263  0.00  0.00    +0.000 OA
ATOM     17  C   UNL     1      -5.487  12.731  19.328  0.00  0.00    +0.000 C 
ENDBRANCH  11  16
ENDBRANCH   1  12
BRANCH   5  18
ATOM     18  S   UNL     1       0.641   8.848  21.415  0.00  0.00    +0.000 S 
ATOM     19  O   UNL     1       1.615   9.531  22.244  0.00  0.00    +0.000 OA
ATOM     20  O   UNL     1      -0.482   8.129  21.987  0.00  0.00    +0.000 OA
BRANCH  18  21
ATOM     21  C   UNL     1       1.522   7.757  20.333  0.00  0.00    +0.000 A 
ATOM     22  C   UNL     1       2.007   8.241  19.120  0.00  0.00    +0.000 A 
ATOM     23  C   UNL     1       2.818   7.427  18.319  0.00  0.00    +0.000 A 
ATOM     24  C   UNL     1       3.173   6.119  18.708  0.00  0.00    +0.000 A 
ATOM     25  C   UNL     1       2.642   5.647  19.926  0.00  0.00    +0.000 A 
ATOM     26  C   UNL     1       1.826   6.455  20.736  0.00  0.00    +0.000 A 
BRANCH  24  27
ATOM     27  C   UNL     1       4.135   5.243  17.877  0.00  0.00    +0.000 C 
ATOM     28  C   UNL     1       4.766   5.992  16.681  0.00  0.00    +0.000 C 
ATOM     29  C   UNL     1       5.298   4.749  18.766  0.00  0.00    +0.000 C 
ATOM     30  C   UNL     1       3.396   4.015  17.305  0.00  0.00    +0.000 C 
ENDBRANCH  24  27
ENDBRANCH  18  21
ENDBRANCH   5  18
TORSDOF 6
ENDMDL
MODEL 2
REMARK VINA RESULT:      -7.8      0.544      1.046
REMARK  Name = 
REMARK  12 active torsions:
REMARK  status: ('A' for Active; 'I' for Inactive)
REMARK    1  A    between atoms: C_1  and  O_2
REMARK    2  A    between atoms: O_2  and  C_3
REMARK    3  A    between atoms: C_6  and  O_7
REMARK    4  A    between atoms: O_7  and  C_8
REMARK    5  A    between atoms: C_9  and  C_10
REMARK    6  A    between atoms: C_12  and  C_13
REMARK    7  A    between atoms: C_14  and  S_15
REMARK    8  A    between atoms: S_15  and  C_18
REMARK    9  A    between atoms: C_21  and  C_22
REMARK   10  A    between atoms: C_22  and  C_23
REMARK   11  A    between atoms: C_22  and  C_24
REMARK   12  A    between atoms: C_22  and  C_25
REMARK                            x       y       z     vdW  Elec       q    Type
REMARK                         _______ _______ _______ _____ _____    ______ ____
ROOT
ATOM      1  C   UNL     1      -1.434  11.077  18.808  0.00  0.00    +0.000 A 
ATOM      2  N   UNL     1      -0.506  12.000  19.004  0.00  0.00    +0.000 NA
ATOM      3  C   UNL     1       0.377  11.488  19.919  0.00  0.00    +0.000 A 
ATOM      4  C   UNL     1       1.640  12.209  20.201  0.00  0.00    +0.000 C 
ATOM      5  C   UNL     1      -0.064  10.270  20.394  0.00  0.00    +0.000 A 
ATOM      6  N   UNL     1      -1.229  10.038  19.684  0.00  0.00    +0.000 N 
ATOM      7  H   UNL     1      -1.783   9.191  19.722  0.00  0.00    +0.000 HD
ENDROOT
BRANCH   1  12
ATOM      8  C   UNL     1      -2.960  10.547  15.413  0.00  0.00    +0.000 A 
ATOM      9  C   UNL     1      -4.274  10.952  15.608  0.00  0.00    +0.000 A 
ATOM     10  C   UNL     1      -4.680  11.471  16.839  0.00  0.00    +0.000 A 
ATOM     11  C   UNL     1      -3.776  11.596  17.907  0.00  0.00    +0.000 A 
ATOM     12  C   UNL     1      -2.455  11.134  17.743  0.00  0.00    +0.000 A 
ATOM     13  C   UNL     1      -2.066  10.633  16.479  0.00  0.00    +0.000 A 
BRANCH   8  15
ATOM     14  C   UNL     1      -3.785   9.881  13.287  0.00  0.00    +0.000 C 
ATOM     15  O   UNL     1      -2.678  10.078  14.160  0.00  0.00    +0.000 OA
ENDBRANCH   8  15
BRANCH  11  16
ATOM     16  O   UNL     1      -4.140  12.120  19.127  0.00  0.00    +0.000 OA
ATOM     17  C   UNL     1      -5.540  12.079  19.417  0.00  0.00    +0.000 C 
ENDBRANCH  11  16
ENDBRANCH   1  12
BRANCH   5  18
ATOM     18  S   UNL     1       0.594   9.076  21.500  0.00  0.00    +0.000 S 
ATOM     19  O   UNL     1       1.542   9.820  22.306  0.00  0.00    +0.000 OA
ATOM     20  O   UNL     1      -0.575   8.443  22.084  0.00  0.00    +0.000 OA
BRANCH  18  21
ATOM     21  C   UNL     1       1.499   7.861  20.583  0.00  0.00    +0.000 A 
ATOM     22  C   UNL     1       1.576   6.557  21.066  0.00  0.00    +0.000 A 
ATOM     23  C   UNL     1       2.173   5.558  20.285  0.00  0.00    +0.000 A 
ATOM     24  C   UNL     1       2.698   5.830  19.005  0.00  0.00    +0.000 A 
ATOM     25  C   UNL     1       2.633   7.166  18.557  0.00  0.00    +0.000 A 
ATOM     26  C   UNL     1       2.037   8.175  19.333  0.00  0.00    +0.000 A 
BRANCH  24  27
ATOM     27  C   UNL     1       3.280   4.725  18.100  0.00  0.00    +0.000 C 
ATOM     28  C   UNL     1       4.212   5.268  16.992  0.00  0.00    +0.000 C 
ATOM     29  C   UNL     1       4.113   3.736  18.946  0.00  0.00    +0.000 C 
ATOM     30  C   UNL     1       2.149   3.943  17.400  0.00  0.00    +0.000 C 
ENDBRANCH  24  27
ENDBRANCH  18  21
ENDBRANCH   5  18
TORSDOF 6
ENDMDL
MODEL 3
REMARK VINA RESULT:      -7.8      2.586      8.299
REMARK  Name = 
REMARK  12 active torsions:
REMARK  status: ('A' for Active; 'I' for Inactive)
REMARK    1  A    between atoms: C_1  and  O_2
REMARK    2  A    between atoms: O_2  and  C_3
REMARK    3  A    between atoms: C_6  and  O_7
REMARK    4  A    between atoms: O_7  and  C_8
REMARK    5  A    between atoms: C_9  and  C_10
REMARK    6  A    between atoms: C_12  and  C_13
REMARK    7  A    between atoms: C_14  and  S_15
REMARK    8  A    between atoms: S_15  and  C_18
REMARK    9  A    between atoms: C_21  and  C_22
REMARK   10  A    between atoms: C_22  and  C_23
REMARK   11  A    between atoms: C_22  and  C_24
REMARK   12  A    between atoms: C_22  and  C_25
REMARK                            x       y       z     vdW  Elec       q    Type
REMARK                         _______ _______ _______ _____ _____    ______ ____
ROOT
ATOM      1  C   UNL     1       1.741   7.434  20.117  0.00  0.00    +0.000 A 
ATOM      2  N   UNL     1       1.068   7.543  21.251  0.00  0.00    +0.000 NA
ATOM      3  C   UNL     1       0.630   8.840  21.331  0.00  0.00    +0.000 A 
ATOM      4  C   UNL     1      -0.323   9.226  22.398  0.00  0.00    +0.000 C 
ATOM      5  C   UNL     1       1.132   9.589  20.287  0.00  0.00    +0.000 A 
ATOM      6  N   UNL     1       1.851   8.675  19.537  0.00  0.00    +0.000 N 
ATOM      7  H   UNL     1       2.296   8.864  18.647  0.00  0.00    +0.000 HD
ENDROOT
BRANCH   1  12
ATOM      8  C   UNL     1       2.060   3.710  19.711  0.00  0.00    +0.000 A 
ATOM      9  C   UNL     1       2.778   3.597  18.528  0.00  0.00    +0.000 A 
ATOM     10  C   UNL     1       3.233   4.739  17.864  0.00  0.00    +0.000 A 
ATOM     11  C   UNL     1       2.978   6.023  18.372  0.00  0.00    +0.000 A 
ATOM     12  C   UNL     1       2.201   6.156  19.540  0.00  0.00    +0.000 A 
ATOM     13  C   UNL     1       1.772   4.982  20.203  0.00  0.00    +0.000 A 
BRANCH   8  15
ATOM     14  C   UNL     1       1.497   2.520  21.689  0.00  0.00    +0.000 C 
ATOM     15  O   UNL     1       1.689   2.523  20.279  0.00  0.00    +0.000 OA
ENDBRANCH   8  15
BRANCH  11  16
ATOM     16  O   UNL     1       3.428   7.167  17.752  0.00  0.00    +0.000 OA
ATOM     17  C   UNL     1       4.623   7.015  16.981  0.00  0.00    +0.000 C 
ENDBRANCH  11  16
ENDBRANCH   1  12
BRANCH   5  18
ATOM     18  S   UNL     1       0.923  11.251  19.761  0.00  0.00    +0.000 S 
ATOM     19  O   UNL     1       1.186  12.037  20.950  0.00  0.00    +0.000 OA
ATOM     20  O   UNL     1       1.750  11.360  18.573  0.00  0.00    +0.000 OA
BRANCH  18  21
ATOM     21  C   UNL     1      -0.768  11.513  19.303  0.00  0.00    +0.000 A 
ATOM     22  C   UNL     1      -1.297  10.818  18.218  0.00  0.00    +0.000 A 
ATOM     23  C   UNL     1      -2.665  10.915  17.928  0.00  0.00    +0.000 A 
ATOM     24  C   UNL     1      -3.538  11.696  18.714  0.00  0.00    +0.000 A 
ATOM     25  C   UNL     1      -2.966  12.411  19.786  0.00  0.00    +0.000 A 
ATOM     26  C   UNL     1      -1.596  12.322  20.084  0.00  0.00    +0.000 A 
BRANCH  24  27
ATOM     27  C   UNL     1      -5.058  11.743  18.458  0.00  0.00    +0.000 C 
ATOM     28  C   UNL     1      -5.768  10.397  18.734  0.00  0.00    +0.000 C 
ATOM     29  C   UNL     1      -5.715  12.797  19.378  0.00  0.00    +0.000 C 
ATOM     30  C   UNL     1      -5.352  12.118  16.991  0.00  0.00    +0.000 C 
ENDBRANCH  24  27
ENDBRANCH  18  21
ENDBRANCH   5  18
TORSDOF 6
ENDMDL
MODEL 4
REMARK VINA RESULT:      -7.7      2.547      8.342
REMARK  Name = 
REMARK  12 active torsions:
REMARK  status: ('A' for Active; 'I' for Inactive)
REMARK    1  A    between atoms: C_1  and  O_2
REMARK    2  A    between atoms: O_2  and  C_3
REMARK    3  A    between atoms: C_6  and  O_7
REMARK    4  A    between atoms: O_7  and  C_8
REMARK    5  A    between atoms: C_9  and  C_10
REMARK    6  A    between atoms: C_12  and  C_13
REMARK    7  A    between atoms: C_14  and  S_15
REMARK    8  A    between atoms: S_15  and  C_18
REMARK    9  A    between atoms: C_21  and  C_22
REMARK   10  A    between atoms: C_22  and  C_23
REMARK   11  A    between atoms: C_22  and  C_24
REMARK   12  A    between atoms: C_22  and  C_25
REMARK                            x       y       z     vdW  Elec       q    Type
REMARK                         _______ _______ _______ _____ _____    ______ ____
ROOT
ATOM      1  C   UNL     1       1.817   7.454  20.123  0.00  0.00    +0.000 A 
ATOM      2  N   UNL     1       1.351   7.576  21.356  0.00  0.00    +0.000 NA
ATOM      3  C   UNL     1       0.852   8.848  21.469  0.00  0.00    +0.000 A 
ATOM      4  C   UNL     1       0.081   9.227  22.676  0.00  0.00    +0.000 C 
ATOM      5  C   UNL     1       1.111   9.577  20.326  0.00  0.00    +0.000 A 
ATOM      6  N   UNL     1       1.742   8.673  19.491  0.00  0.00    +0.000 N 
ATOM      7  H   UNL     1       2.007   8.846  18.529  0.00  0.00    +0.000 HD
ENDROOT
BRANCH   1  12
ATOM      8  C   UNL     1       2.121   3.733  19.684  0.00  0.00    +0.000 A 
ATOM      9  C   UNL     1       2.774   3.627  18.463  0.00  0.00    +0.000 A 
ATOM     10  C   UNL     1       3.189   4.772  17.780  0.00  0.00    +0.000 A 
ATOM     11  C   UNL     1       2.960   6.054  18.307  0.00  0.00    +0.000 A 
ATOM     12  C   UNL     1       2.247   6.180  19.516  0.00  0.00    +0.000 A 
ATOM     13  C   UNL     1       1.857   5.002  20.196  0.00  0.00    +0.000 A 
BRANCH   8  15
ATOM     14  C   UNL     1       1.521   2.566  21.665  0.00  0.00    +0.000 C 
ATOM     15  O   UNL     1       1.784   2.543  20.266  0.00  0.00    +0.000 OA
ENDBRANCH   8  15
BRANCH  11  16
ATOM     16  O   UNL     1       3.372   7.201  17.668  0.00  0.00    +0.000 OA
ATOM     17  C   UNL     1       4.662   7.129  17.054  0.00  0.00    +0.000 C 
ENDBRANCH  11  16
ENDBRANCH   1  12
BRANCH   5  18
ATOM     18  S   UNL     1       0.705  11.199  19.791  0.00  0.00    +0.000 S 
ATOM     19  O   UNL     1       0.989  12.036  20.940  0.00  0.00    +0.000 OA
ATOM     20  O   UNL     1       1.420  11.353  18.537  0.00  0.00    +0.000 OA
BRANCH  18  21
ATOM     21  C   UNL     1      -1.034  11.293  19.468  0.00  0.00    +0.000 A 
ATOM     22  C   UNL     1      -1.816  12.188  20.194  0.00  0.00    +0.000 A 
ATOM     23  C   UNL     1      -3.165  12.368  19.857  0.00  0.00    +0.000 A 
ATOM     24  C   UNL     1      -3.763  11.670  18.787  0.00  0.00    +0.000 A 
ATOM     25  C   UNL     1      -2.952  10.748  18.092  0.00  0.00    +0.000 A 
ATOM     26  C   UNL     1      -1.600  10.560  18.423  0.00  0.00    +0.000 A 
BRANCH  24  27
ATOM     27  C   UNL     1      -5.221  11.921  18.351  0.00  0.00    +0.000 C 
ATOM     28  C   UNL     1      -5.855  13.163  19.020  0.00  0.00    +0.000 C 
ATOM     29  C   UNL     1      -5.282  12.150  16.824  0.00  0.00    +0.000 C 
ATOM     30  C   UNL     1      -6.111  10.711  18.704  0.00  0.00    +0.000 C 
ENDBRANCH  24  27
ENDBRANCH  18  21
ENDBRANCH   5  18
TORSDOF 6
ENDMDL
MODEL 5
REMARK VINA RESULT:      -7.7      4.339      8.968
REMARK  Name = 
REMARK  12 active torsions:
REMARK  status: ('A' for Active; 'I' for Inactive)
REMARK    1  A    between atoms: C_1  and  O_2
REMARK    2  A    between atoms: O_2  and  C_3
REMARK    3  A    between atoms: C_6  and  O_7
REMARK    4  A    between atoms: O_7  and  C_8
REMARK    5  A    between atoms: C_9  and  C_10
REMARK    6  A    between atoms: C_12  and  C_13
REMARK    7  A    between atoms: C_14  and  S_15
REMARK    8  A    between atoms: S_15  and  C_18
REMARK    9  A    between atoms: C_21  and  C_22
REMARK   10  A    between atoms: C_22  and  C_23
REMARK   11  A    between atoms: C_22  and  C_24
REMARK   12  A    between atoms: C_22  and  C_25
REMARK                            x       y       z     vdW  Elec       q    Type
REMARK                         _______ _______ _______ _____ _____    ______ ____
ROOT
ATOM      1  C   UNL     1       4.336   3.741  17.682  0.00  0.00    +0.000 A 
ATOM      2  N   UNL     1       3.576   2.659  17.624  0.00  0.00    +0.000 NA
ATOM      3  C   UNL     1       2.583   2.820  18.557  0.00  0.00    +0.000 A 
ATOM      4  C   UNL     1       1.456   1.859  18.598  0.00  0.00    +0.000 C 
ATOM      5  C   UNL     1       2.787   3.968  19.294  0.00  0.00    +0.000 A 
ATOM      6  N   UNL     1       3.920   4.528  18.730  0.00  0.00    +0.000 N 
ATOM      7  H   UNL     1       4.316   5.428  18.974  0.00  0.00    +0.000 HD
ENDROOT
BRANCH   1  12
ATOM      8  C   UNL     1       5.909   4.312  14.316  0.00  0.00    +0.000 A 
ATOM      9  C   UNL     1       7.153   4.830  14.650  0.00  0.00    +0.000 A 
ATOM     10  C   UNL     1       7.536   4.947  15.988  0.00  0.00    +0.000 A 
ATOM     11  C   UNL     1       6.677   4.545  17.025  0.00  0.00    +0.000 A 
ATOM     12  C   UNL     1       5.390   4.073  16.704  0.00  0.00    +0.000 A 
ATOM     13  C   UNL     1       5.037   3.946  15.340  0.00  0.00    +0.000 A 
BRANCH   8  15
ATOM     14  C   UNL     1       6.235   3.124  12.285  0.00  0.00    +0.000 C 
ATOM     15  O   UNL     1       5.658   4.227  12.975  0.00  0.00    +0.000 OA
ENDBRANCH   8  15
BRANCH  11  16
ATOM     16  O   UNL     1       7.032   4.630  18.352  0.00  0.00    +0.000 OA
ATOM     17  C   UNL     1       7.653   5.858  18.743  0.00  0.00    +0.000 C 
ENDBRANCH  11  16
ENDBRANCH   1  12
BRANCH   5  18
ATOM     18  S   UNL     1       1.890   4.783  20.564  0.00  0.00    +0.000 S 
ATOM     19  O   UNL     1       0.552   4.233  20.465  0.00  0.00    +0.000 OA
ATOM     20  O   UNL     1       2.705   4.604  21.751  0.00  0.00    +0.000 OA
BRANCH  18  21
ATOM     21  C   UNL     1       1.793   6.513  20.197  0.00  0.00    +0.000 A 
ATOM     22  C   UNL     1       2.139   6.962  18.925  0.00  0.00    +0.000 A 
ATOM     23  C   UNL     1       1.939   8.306  18.582  0.00  0.00    +0.000 A 
ATOM     24  C   UNL     1       1.384   9.231  19.491  0.00  0.00    +0.000 A 
ATOM     25  C   UNL     1       1.073   8.752  20.780  0.00  0.00    +0.000 A 
ATOM     26  C   UNL     1       1.270   7.407  21.134  0.00  0.00    +0.000 A 
BRANCH  24  27
ATOM     27  C   UNL     1       1.079  10.691  19.099  0.00  0.00    +0.000 C 
ATOM     28  C   UNL     1       1.108  11.666  20.299  0.00  0.00    +0.000 C 
ATOM     29  C   UNL     1       2.128  11.194  18.083  0.00  0.00    +0.000 C 
ATOM     30  C   UNL     1      -0.320  10.802  18.458  0.00  0.00    +0.000 C 
ENDBRANCH  24  27
ENDBRANCH  18  21
ENDBRANCH   5  18
TORSDOF 6
ENDMDL
MODEL 6
REMARK VINA RESULT:      -7.6      2.725      8.405
REMARK  Name = 
REMARK  12 active torsions:
REMARK  status: ('A' for Active; 'I' for Inactive)
REMARK    1  A    between atoms: C_1  and  O_2
REMARK    2  A    between atoms: O_2  and  C_3
REMARK    3  A    between atoms: C_6  and  O_7
REMARK    4  A    between atoms: O_7  and  C_8
REMARK    5  A    between atoms: C_9  and  C_10
REMARK    6  A    between atoms: C_12  and  C_13
REMARK    7  A    between atoms: C_14  and  S_15
REMARK    8  A    between atoms: S_15  and  C_18
REMARK    9  A    between atoms: C_21  and  C_22
REMARK   10  A    between atoms: C_22  and  C_23
REMARK   11  A    between atoms: C_22  and  C_24
REMARK   12  A    between atoms: C_22  and  C_25
REMARK                            x       y       z     vdW  Elec       q    Type
REMARK                         _______ _______ _______ _____ _____    ______ ____
ROOT
ATOM      1  C   UNL     1       2.404   7.048  19.147  0.00  0.00    +0.000 A 
ATOM      2  N   UNL     1       1.830   7.111  20.338  0.00  0.00    +0.000 NA
ATOM      3  C   UNL     1       1.259   8.353  20.440  0.00  0.00    +0.000 A 
ATOM      4  C   UNL     1       0.372   8.659  21.586  0.00  0.00    +0.000 C 
ATOM      5  C   UNL     1       1.576   9.127  19.342  0.00  0.00    +0.000 A 
ATOM      6  N   UNL     1       2.320   8.279  18.542  0.00  0.00    +0.000 N 
ATOM      7  H   UNL     1       2.657   8.494  17.610  0.00  0.00    +0.000 HD
ENDROOT
BRANCH   1  12
ATOM      8  C   UNL     1       2.597   3.402  18.251  0.00  0.00    +0.000 A 
ATOM      9  C   UNL     1       3.668   3.366  17.368  0.00  0.00    +0.000 A 
ATOM     10  C   UNL     1       4.397   4.525  17.092  0.00  0.00    +0.000 A 
ATOM     11  C   UNL     1       4.069   5.750  17.696  0.00  0.00    +0.000 A 
ATOM     12  C   UNL     1       2.948   5.814  18.548  0.00  0.00    +0.000 A 
ATOM     13  C   UNL     1       2.241   4.621  18.826  0.00  0.00    +0.000 A 
BRANCH   8  15
ATOM     14  C   UNL     1       0.612   2.248  18.863  0.00  0.00    +0.000 C 
ATOM     15  O   UNL     1       1.976   2.201  18.458  0.00  0.00    +0.000 OA
ENDBRANCH   8  15
BRANCH  11  16
ATOM     16  O   UNL     1       4.778   6.905  17.459  0.00  0.00    +0.000 OA
ATOM     17  C   UNL     1       6.044   6.725  16.818  0.00  0.00    +0.000 C 
ENDBRANCH  11  16
ENDBRANCH   1  12
BRANCH   5  18
ATOM     18  S   UNL     1       1.134  10.742  18.815  0.00  0.00    +0.000 S 
ATOM     19  O   UNL     1       1.608  11.607  19.878  0.00  0.00    +0.000 OA
ATOM     20  O   UNL     1       1.656  10.834  17.464  0.00  0.00    +0.000 OA
BRANCH  18  21
ATOM     21  C   UNL     1      -0.631  10.877  18.753  0.00  0.00    +0.000 A 
ATOM     22  C   UNL     1      -1.277  11.778  19.596  0.00  0.00    +0.000 A 
ATOM     23  C   UNL     1      -2.656  11.991  19.463  0.00  0.00    +0.000 A 
ATOM     24  C   UNL     1      -3.420  11.321  18.485  0.00  0.00    +0.000 A 
ATOM     25  C   UNL     1      -2.742  10.393  17.668  0.00  0.00    +0.000 A 
ATOM     26  C   UNL     1      -1.361  10.172  17.794  0.00  0.00    +0.000 A 
BRANCH  24  27
ATOM     27  C   UNL     1      -4.921  11.609  18.271  0.00  0.00    +0.000 C 
ATOM     28  C   UNL     1      -5.459  12.751  19.165  0.00  0.00    +0.000 C 
ATOM     29  C   UNL     1      -5.173  12.025  16.805  0.00  0.00    +0.000 C 
ATOM     30  C   UNL     1      -5.765  10.355  18.580  0.00  0.00    +0.000 C 
ENDBRANCH  24  27
ENDBRANCH  18  21
ENDBRANCH   5  18
TORSDOF 6
ENDMDL
MODEL 7
REMARK VINA RESULT:      -7.5      2.492      4.033
REMARK  Name = 
REMARK  12 active torsions:
REMARK  status: ('A' for Active; 'I' for Inactive)
REMARK    1  A    between atoms: C_1  and  O_2
REMARK    2  A    between atoms: O_2  and  C_3
REMARK    3  A    between atoms: C_6  and  O_7
REMARK    4  A    between atoms: O_7  and  C_8
REMARK    5  A    between atoms: C_9  and  C_10
REMARK    6  A    between atoms: C_12  and  C_13
REMARK    7  A    between atoms: C_14  and  S_15
REMARK    8  A    between atoms: S_15  and  C_18
REMARK    9  A    between atoms: C_21  and  C_22
REMARK   10  A    between atoms: C_22  and  C_23
REMARK   11  A    between atoms: C_22  and  C_24
REMARK   12  A    between atoms: C_22  and  C_25
REMARK                            x       y       z     vdW  Elec       q    Type
REMARK                         _______ _______ _______ _____ _____    ______ ____
ROOT
ATOM      1  C   UNL     1      -2.913  12.301  19.764  0.00  0.00    +0.000 A 
ATOM      2  N   UNL     1      -2.967  11.565  18.666  0.00  0.00    +0.000 NA
ATOM      3  C   UNL     1      -1.706  11.071  18.455  0.00  0.00    +0.000 A 
ATOM      4  C   UNL     1      -1.486  10.047  17.406  0.00  0.00    +0.000 C 
ATOM      5  C   UNL     1      -0.817  11.597  19.369  0.00  0.00    +0.000 A 
ATOM      6  N   UNL     1      -1.606  12.392  20.181  0.00  0.00    +0.000 N 
ATOM      7  H   UNL     1      -1.293  12.875  21.015  0.00  0.00    +0.000 HD
ENDROOT
BRANCH   1  12
ATOM      8  C   UNL     1      -6.481  13.378  20.255  0.00  0.00    +0.000 A 
ATOM      9  C   UNL     1      -6.525  13.662  21.613  0.00  0.00    +0.000 A 
ATOM     10  C   UNL     1      -5.370  13.571  22.394  0.00  0.00    +0.000 A 
ATOM     11  C   UNL     1      -4.141  13.191  21.828  0.00  0.00    +0.000 A 
ATOM     12  C   UNL     1      -4.093  12.843  20.464  0.00  0.00    +0.000 A 
ATOM     13  C   UNL     1      -5.273  12.965  19.694  0.00  0.00    +0.000 A 
BRANCH   8  15
ATOM     14  C   UNL     1      -7.714  13.062  18.249  0.00  0.00    +0.000 C 
ATOM     15  O   UNL     1      -7.669  13.525  19.594  0.00  0.00    +0.000 OA
ENDBRANCH   8  15
BRANCH  11  16
ATOM     16  O   UNL     1      -2.982  13.109  22.566  0.00  0.00    +0.000 OA
ATOM     17  C   UNL     1      -2.952  12.067  23.546  0.00  0.00    +0.000 C 
ENDBRANCH  11  16
ENDBRANCH   1  12
BRANCH   5  18
ATOM     18  S   UNL     1       0.890  11.349  19.700  0.00  0.00    +0.000 S 
ATOM     19  O   UNL     1       1.567  12.031  18.615  0.00  0.00    +0.000 OA
ATOM     20  O   UNL     1       1.052  11.761  21.082  0.00  0.00    +0.000 OA
BRANCH  18  21
ATOM     21  C   UNL     1       1.267   9.623  19.574  0.00  0.00    +0.000 A 
ATOM     22  C   UNL     1       1.814   9.127  18.393  0.00  0.00    +0.000 A 
ATOM     23  C   UNL     1       2.240   7.793  18.328  0.00  0.00    +0.000 A 
ATOM     24  C   UNL     1       2.141   6.926  19.435  0.00  0.00    +0.000 A 
ATOM     25  C   UNL     1       1.555   7.449  20.607  0.00  0.00    +0.000 A 
ATOM     26  C   UNL     1       1.123   8.784  20.682  0.00  0.00    +0.000 A 
BRANCH  24  27
ATOM     27  C   UNL     1       2.684   5.483  19.404  0.00  0.00    +0.000 C 
ATOM     28  C   UNL     1       2.204   4.674  18.177  0.00  0.00    +0.000 C 
ATOM     29  C   UNL     1       4.228   5.502  19.357  0.00  0.00    +0.000 C 
ATOM     30  C   UNL     1       2.239   4.707  20.661  0.00  0.00    +0.000 C 
ENDBRANCH  24  27
ENDBRANCH  18  21
ENDBRANCH   5  18
TORSDOF 6
ENDMDL
MODEL 8
REMARK VINA RESULT:      -7.5      4.304      9.032
REMARK  Name = 
REMARK  12 active torsions:
REMARK  status: ('A' for Active; 'I' for Inactive)
REMARK    1  A    between atoms: C_1  and  O_2
REMARK    2  A    between atoms: O_2  and  C_3
REMARK    3  A    between atoms: C_6  and  O_7
REMARK    4  A    between atoms: O_7  and  C_8
REMARK    5  A    between atoms: C_9  and  C_10
REMARK    6  A    between atoms: C_12  and  C_13
REMARK    7  A    between atoms: C_14  and  S_15
REMARK    8  A    between atoms: S_15  and  C_18
REMARK    9  A    between atoms: C_21  and  C_22
REMARK   10  A    between atoms: C_22  and  C_23
REMARK   11  A    between atoms: C_22  and  C_24
REMARK   12  A    between atoms: C_22  and  C_25
REMARK                            x       y       z     vdW  Elec       q    Type
REMARK                         _______ _______ _______ _____ _____    ______ ____
ROOT
ATOM      1  C   UNL     1       5.232   4.258  17.848  0.00  0.00    +0.000 A 
ATOM      2  N   UNL     1       5.491   3.282  18.704  0.00  0.00    +0.000 NA
ATOM      3  C   UNL     1       4.469   3.274  19.618  0.00  0.00    +0.000 A 
ATOM      4  C   UNL     1       4.371   2.165  20.596  0.00  0.00    +0.000 C 
ATOM      5  C   UNL     1       3.612   4.333  19.402  0.00  0.00    +0.000 A 
ATOM      6  N   UNL     1       4.129   4.956  18.280  0.00  0.00    +0.000 N 
ATOM      7  H   UNL     1       3.704   5.734  17.790  0.00  0.00    +0.000 HD
ENDROOT
BRANCH   1  12
ATOM      8  C   UNL     1       5.989   4.018  14.173  0.00  0.00    +0.000 A 
ATOM      9  C   UNL     1       7.063   4.886  14.031  0.00  0.00    +0.000 A 
ATOM     10  C   UNL     1       7.611   5.525  15.146  0.00  0.00    +0.000 A 
ATOM     11  C   UNL     1       7.092   5.308  16.433  0.00  0.00    +0.000 A 
ATOM     12  C   UNL     1       5.965   4.476  16.586  0.00  0.00    +0.000 A 
ATOM     13  C   UNL     1       5.445   3.826  15.442  0.00  0.00    +0.000 A 
BRANCH   8  15
ATOM     14  C   UNL     1       6.490   3.376  11.941  0.00  0.00    +0.000 C 
ATOM     15  O   UNL     1       5.556   3.437  13.014  0.00  0.00    +0.000 OA
ENDBRANCH   8  15
BRANCH  11  16
ATOM     16  O   UNL     1       7.620   5.907  17.554  0.00  0.00    +0.000 OA
ATOM     17  C   UNL     1       7.570   7.336  17.564  0.00  0.00    +0.000 C 
ENDBRANCH  11  16
ENDBRANCH   1  12
BRANCH   5  18
ATOM     18  S   UNL     1       2.110   4.863  20.140  0.00  0.00    +0.000 S 
ATOM     19  O   UNL     1       1.078   4.210  19.359  0.00  0.00    +0.000 OA
ATOM     20  O   UNL     1       2.287   4.588  21.554  0.00  0.00    +0.000 OA
BRANCH  18  21
ATOM     21  C   UNL     1       1.931   6.611  19.920  0.00  0.00    +0.000 A 
ATOM     22  C   UNL     1       2.224   7.177  18.682  0.00  0.00    +0.000 A 
ATOM     23  C   UNL     1       1.960   8.535  18.455  0.00  0.00    +0.000 A 
ATOM     24  C   UNL     1       1.391   9.357  19.450  0.00  0.00    +0.000 A 
ATOM     25  C   UNL     1       1.134   8.761  20.703  0.00  0.00    +0.000 A 
ATOM     26  C   UNL     1       1.397   7.402  20.939  0.00  0.00    +0.000 A 
BRANCH  24  27
ATOM     27  C   UNL     1       1.015  10.830  19.187  0.00  0.00    +0.000 C 
ATOM     28  C   UNL     1       2.011  11.559  18.255  0.00  0.00    +0.000 C 
ATOM     29  C   UNL     1      -0.374  10.908  18.515  0.00  0.00    +0.000 C 
ATOM     30  C   UNL     1       0.968  11.624  20.510  0.00  0.00    +0.000 C 
ENDBRANCH  24  27
ENDBRANCH  18  21
ENDBRANCH   5  18
TORSDOF 6
ENDMDL
MODEL 9
REMARK VINA RESULT:      -7.5      2.760      8.478
REMARK  Name = 
REMARK  12 active torsions:
REMARK  status: ('A' for Active; 'I' for Inactive)
REMARK    1  A    between atoms: C_1  and  O_2
REMARK    2  A    between atoms: O_2  and  C_3
REMARK    3  A    between atoms: C_6  and  O_7
REMARK    4  A    between atoms: O_7  and  C_8
REMARK    5  A    between atoms: C_9  and  C_10
REMARK    6  A    between atoms: C_12  and  C_13
REMARK    7  A    between atoms: C_14  and  S_15
REMARK    8  A    between atoms: S_15  and  C_18
REMARK    9  A    between atoms: C_21  and  C_22
REMARK   10  A    between atoms: C_22  and  C_23
REMARK   11  A    between atoms: C_22  and  C_24
REMARK   12  A    between atoms: C_22  and  C_25
REMARK                            x       y       z     vdW  Elec       q    Type
REMARK                         _______ _______ _______ _____ _____    ______ ____
ROOT
ATOM      1  C   UNL     1       1.634   7.699  20.342  0.00  0.00    +0.000 A 
ATOM      2  N   UNL     1       1.212   7.844  21.589  0.00  0.00    +0.000 NA
ATOM      3  C   UNL     1       0.771   9.136  21.712  0.00  0.00    +0.000 A 
ATOM      4  C   UNL     1       0.055   9.550  22.941  0.00  0.00    +0.000 C 
ATOM      5  C   UNL     1       1.024   9.850  20.559  0.00  0.00    +0.000 A 
ATOM      6  N   UNL     1       1.590   8.918  19.708  0.00  0.00    +0.000 N 
ATOM      7  H   UNL     1       1.833   9.077  18.738  0.00  0.00    +0.000 HD
ENDROOT
BRANCH   1  12
ATOM      8  C   UNL     1       1.691   3.971  19.854  0.00  0.00    +0.000 A 
ATOM      9  C   UNL     1       2.370   3.837  18.650  0.00  0.00    +0.000 A 
ATOM     10  C   UNL     1       2.884   4.960  17.997  0.00  0.00    +0.000 A 
ATOM     11  C   UNL     1       2.729   6.247  18.538  0.00  0.00    +0.000 A 
ATOM     12  C   UNL     1       1.992   6.406  19.728  0.00  0.00    +0.000 A 
ATOM     13  C   UNL     1       1.502   5.249  20.379  0.00  0.00    +0.000 A 
BRANCH   8  15
ATOM     14  C   UNL     1       1.595   2.571  21.771  0.00  0.00    +0.000 C 
ATOM     15  O   UNL     1       1.255   2.800  20.408  0.00  0.00    +0.000 OA
ENDBRANCH   8  15
BRANCH  11  16
ATOM     16  O   UNL     1       3.239   7.371  17.929  0.00  0.00    +0.000 OA
ATOM     17  C   UNL     1       4.421   7.163  17.151  0.00  0.00    +0.000 C 
ENDBRANCH  11  16
ENDBRANCH   1  12
BRANCH   5  18
ATOM     18  S   UNL     1       0.670  11.486  20.030  0.00  0.00    +0.000 S 
ATOM     19  O   UNL     1       1.198  12.325  21.087  0.00  0.00    +0.000 OA
ATOM     20  O   UNL     1       1.186  11.545  18.675  0.00  0.00    +0.000 OA
BRANCH  18  21
ATOM     21  C   UNL     1      -1.085  11.719  19.979  0.00  0.00    +0.000 A 
ATOM     22  C   UNL     1      -1.717  12.380  21.030  0.00  0.00    +0.000 A 
ATOM     23  C   UNL     1      -3.082  12.688  20.939  0.00  0.00    +0.000 A 
ATOM     24  C   UNL     1      -3.845  12.356  19.801  0.00  0.00    +0.000 A 
ATOM     25  C   UNL     1      -3.183  11.661  18.768  0.00  0.00    +0.000 A 
ATOM     26  C   UNL     1      -1.816  11.346  18.850  0.00  0.00    +0.000 A 
BRANCH  24  27
ATOM     27  C   UNL     1      -5.325  12.766  19.652  0.00  0.00    +0.000 C 
ATOM     28  C   UNL     1      -6.289  11.892  20.487  0.00  0.00    +0.000 C 
ATOM     29  C   UNL     1      -5.517  14.226  20.119  0.00  0.00    +0.000 C 
ATOM     30  C   UNL     1      -5.774  12.657  18.180  0.00  0.00    +0.000 C 
ENDBRANCH  24  27
ENDBRANCH  18  21
ENDBRANCH   5  18
TORSDOF 6
ENDMDL
