MODEL 1
REMARK VINA RESULT:      -7.1      0.000      0.000
REMARK  Name = 
REMARK  3 active torsions:
REMARK  status: ('A' for Active; 'I' for Inactive)
REMARK    1  A    between atoms: N_3  and  C_4
REMARK    2  A    between atoms: C_4  and  C_5
REMARK    3  A    between atoms: C_14  and  N_15
REMARK                            x       y       z     vdW  Elec       q    Type
REMARK                         _______ _______ _______ _____ _____    ______ ____
ROOT
ATOM      1  O   UNL     1       2.288   5.466  17.926  0.00  0.00    +0.000 OA
ATOM      2  C   UNL     1       3.319   6.127  17.988  0.00  0.00    +0.000 C 
ATOM      3  N   UNL     1       3.335   7.495  17.978  0.00  0.00    +0.000 N 
ATOM      4  N   UNL     1       4.544   5.547  18.119  0.00  0.00    +0.000 N 
ATOM      5  C   UNL     1       5.909   6.016  18.131  0.00  0.00    +0.000 C 
ATOM      6  C   UNL     1       6.315   4.628  17.593  0.00  0.00    +0.000 C 
ATOM      7  C   UNL     1       4.901   4.152  17.982  0.00  0.00    +0.000 C 
ATOM      8  H   UNL     1       4.166   7.919  17.597  0.00  0.00    +0.000 HD
ENDROOT
BRANCH   6   9
ATOM      9  N   UNL     1       6.506   4.610  16.162  0.00  0.00    +0.000 N 
ATOM     10  N   UNL     1       7.344   5.452  15.504  0.00  0.00    +0.000 NA
ATOM     11  C   UNL     1       7.224   5.036  14.242  0.00  0.00    +0.000 A 
ATOM     12  C   UNL     1       6.334   3.960  14.180  0.00  0.00    +0.000 A 
ATOM     13  N   UNL     1       5.882   3.674  15.403  0.00  0.00    +0.000 NA
ENDBRANCH   6   9
BRANCH   3  14
ATOM     14  C   UNL     1       2.097   8.222  17.790  0.00  0.00    +0.000 C 
BRANCH  14  15
ATOM     15  C   UNL     1       1.542   8.728  19.096  0.00  0.00    +0.000 A 
ATOM     16  C   UNL     1       0.752   9.886  19.144  0.00  0.00    +0.000 A 
ATOM     17  C   UNL     1       0.180  10.305  20.350  0.00  0.00    +0.000 A 
ATOM     18  C   UNL     1       0.395   9.569  21.513  0.00  0.00    +0.000 A 
ATOM     19 CL   UNL     1      -0.329  10.073  22.990  0.00  0.00    +0.000 Cl
ATOM     20  C   UNL     1       1.184   8.421  21.485  0.00  0.00    +0.000 A 
ATOM     21  C   UNL     1       1.755   8.003  20.281  0.00  0.00    +0.000 A 
ENDBRANCH  14  15
ENDBRANCH   3  14
TORSDOF 3
ENDMDL
MODEL 2
REMARK VINA RESULT:      -7.1      0.091      1.085
REMARK  Name = 
REMARK  3 active torsions:
REMARK  status: ('A' for Active; 'I' for Inactive)
REMARK    1  A    between atoms: N_3  and  C_4
REMARK    2  A    between atoms: C_4  and  C_5
REMARK    3  A    between atoms: C_14  and  N_15
REMARK                            x       y       z     vdW  Elec       q    Type
REMARK                         _______ _______ _______ _____ _____    ______ ____
ROOT
ATOM      1  O   UNL     1       2.227   5.506  17.925  0.00  0.00    +0.000 OA
ATOM      2  C   UNL     1       3.272   6.141  18.011  0.00  0.00    +0.000 C 
ATOM      3  N   UNL     1       3.320   7.509  18.016  0.00  0.00    +0.000 N 
ATOM      4  N   UNL     1       4.481   5.532  18.156  0.00  0.00    +0.000 N 
ATOM      5  C   UNL     1       5.856   5.968  18.196  0.00  0.00    +0.000 C 
ATOM      6  C   UNL     1       6.239   4.577  17.649  0.00  0.00    +0.000 C 
ATOM      7  C   UNL     1       4.808   4.130  18.010  0.00  0.00    +0.000 C 
ATOM      8  H   UNL     1       4.167   7.917  17.653  0.00  0.00    +0.000 HD
ENDROOT
BRANCH   6   9
ATOM      9  N   UNL     1       6.453   4.569  16.221  0.00  0.00    +0.000 N 
ATOM     10  N   UNL     1       7.322   5.398  15.586  0.00  0.00    +0.000 NA
ATOM     11  C   UNL     1       7.213   4.998  14.318  0.00  0.00    +0.000 A 
ATOM     12  C   UNL     1       6.299   3.945  14.230  0.00  0.00    +0.000 A 
ATOM     13  N   UNL     1       5.820   3.656  15.442  0.00  0.00    +0.000 NA
ENDBRANCH   6   9
BRANCH   3  14
ATOM     14  C   UNL     1       2.103   8.266  17.816  0.00  0.00    +0.000 C 
BRANCH  14  15
ATOM     15  C   UNL     1       1.467   8.661  19.124  0.00  0.00    +0.000 A 
ATOM     16  C   UNL     1       1.730   7.942  20.299  0.00  0.00    +0.000 A 
ATOM     17  C   UNL     1       1.193   8.361  21.521  0.00  0.00    +0.000 A 
ATOM     18  C   UNL     1       0.393   9.500  21.574  0.00  0.00    +0.000 A 
ATOM     19 CL   UNL     1      -0.247  10.028  23.082  0.00  0.00    +0.000 Cl
ATOM     20  C   UNL     1       0.115  10.221  20.415  0.00  0.00    +0.000 A 
ATOM     21  C   UNL     1       0.650   9.801  19.195  0.00  0.00    +0.000 A 
ENDBRANCH  14  15
ENDBRANCH   3  14
TORSDOF 3
ENDMDL
MODEL 3
REMARK VINA RESULT:      -7.0      2.613      4.139
REMARK  Name = 
REMARK  3 active torsions:
REMARK  status: ('A' for Active; 'I' for Inactive)
REMARK    1  A    between atoms: N_3  and  C_4
REMARK    2  A    between atoms: C_4  and  C_5
REMARK    3  A    between atoms: C_14  and  N_15
REMARK                            x       y       z     vdW  Elec       q    Type
REMARK                         _______ _______ _______ _____ _____    ______ ____
ROOT
ATOM      1  O   UNL     1       4.255   6.739  18.005  0.00  0.00    +0.000 OA
ATOM      2  C   UNL     1       3.098   6.345  17.906  0.00  0.00    +0.000 C 
ATOM      3  N   UNL     1       2.016   7.182  17.927  0.00  0.00    +0.000 N 
ATOM      4  N   UNL     1       2.794   5.031  17.722  0.00  0.00    +0.000 N 
ATOM      5  C   UNL     1       1.579   4.254  17.658  0.00  0.00    +0.000 C 
ATOM      6  C   UNL     1       2.403   3.054  18.170  0.00  0.00    +0.000 C 
ATOM      7  C   UNL     1       3.662   3.879  17.834  0.00  0.00    +0.000 C 
ATOM      8  H   UNL     1       1.161   6.782  18.277  0.00  0.00    +0.000 HD
ENDROOT
BRANCH   6   9
ATOM      9  N   UNL     1       2.272   2.842  19.591  0.00  0.00    +0.000 N 
ATOM     10  N   UNL     1       3.328   2.658  20.426  0.00  0.00    +0.000 NA
ATOM     11  C   UNL     1       2.730   2.555  21.614  0.00  0.00    +0.000 A 
ATOM     12  C   UNL     1       1.348   2.688  21.463  0.00  0.00    +0.000 A 
ATOM     13  N   UNL     1       1.048   2.885  20.177  0.00  0.00    +0.000 NA
ENDBRANCH   6   9
BRANCH   3  14
ATOM     14  C   UNL     1       2.212   8.596  18.169  0.00  0.00    +0.000 C 
BRANCH  14  15
ATOM     15  C   UNL     1       1.486   9.058  19.407  0.00  0.00    +0.000 A 
ATOM     16  C   UNL     1       0.701  10.220  19.391  0.00  0.00    +0.000 A 
ATOM     17  C   UNL     1      -0.028  10.598  20.523  0.00  0.00    +0.000 A 
ATOM     18  C   UNL     1       0.025   9.817  21.676  0.00  0.00    +0.000 A 
ATOM     19 CL   UNL     1      -0.891  10.271  23.060  0.00  0.00    +0.000 Cl
ATOM     20  C   UNL     1       0.807   8.665  21.712  0.00  0.00    +0.000 A 
ATOM     21  C   UNL     1       1.534   8.287  20.581  0.00  0.00    +0.000 A 
ENDBRANCH  14  15
ENDBRANCH   3  14
TORSDOF 3
ENDMDL
MODEL 4
REMARK VINA RESULT:      -7.0      2.559      4.249
REMARK  Name = 
REMARK  3 active torsions:
REMARK  status: ('A' for Active; 'I' for Inactive)
REMARK    1  A    between atoms: N_3  and  C_4
REMARK    2  A    between atoms: C_4  and  C_5
REMARK    3  A    between atoms: C_14  and  N_15
REMARK                            x       y       z     vdW  Elec       q    Type
REMARK                         _______ _______ _______ _____ _____    ______ ____
ROOT
ATOM      1  O   UNL     1       4.327   6.759  18.059  0.00  0.00    +0.000 OA
ATOM      2  C   UNL     1       3.184   6.342  17.905  0.00  0.00    +0.000 C 
ATOM      3  N   UNL     1       2.087   7.159  17.864  0.00  0.00    +0.000 N 
ATOM      4  N   UNL     1       2.914   5.021  17.715  0.00  0.00    +0.000 N 
ATOM      5  C   UNL     1       1.719   4.221  17.595  0.00  0.00    +0.000 C 
ATOM      6  C   UNL     1       2.539   3.040  18.156  0.00  0.00    +0.000 C 
ATOM      7  C   UNL     1       3.798   3.887  17.878  0.00  0.00    +0.000 C 
ATOM      8  H   UNL     1       1.223   6.744  18.173  0.00  0.00    +0.000 HD
ENDROOT
BRANCH   6   9
ATOM      9  N   UNL     1       2.340   2.835  19.571  0.00  0.00    +0.000 N 
ATOM     10  N   UNL     1       3.352   2.619  20.451  0.00  0.00    +0.000 NA
ATOM     11  C   UNL     1       2.701   2.537  21.612  0.00  0.00    +0.000 A 
ATOM     12  C   UNL     1       1.331   2.713  21.401  0.00  0.00    +0.000 A 
ATOM     13  N   UNL     1       1.094   2.917  20.103  0.00  0.00    +0.000 NA
ENDBRANCH   6   9
BRANCH   3  14
ATOM     14  C   UNL     1       2.244   8.577  18.106  0.00  0.00    +0.000 C 
BRANCH  14  15
ATOM     15  C   UNL     1       1.454   9.031  19.307  0.00  0.00    +0.000 A 
ATOM     16  C   UNL     1       1.475   8.299  20.503  0.00  0.00    +0.000 A 
ATOM     17  C   UNL     1       0.798   8.770  21.633  0.00  0.00    +0.000 A 
ATOM     18  C   UNL     1       0.099   9.973  21.573  0.00  0.00    +0.000 A 
ATOM     19 CL   UNL     1      -0.713  10.562  22.971  0.00  0.00    +0.000 Cl
ATOM     20  C   UNL     1       0.061  10.708  20.390  0.00  0.00    +0.000 A 
ATOM     21  C   UNL     1       0.736  10.238  19.262  0.00  0.00    +0.000 A 
ENDBRANCH  14  15
ENDBRANCH   3  14
TORSDOF 3
ENDMDL
MODEL 5
REMARK VINA RESULT:      -6.8      1.471      2.177
REMARK  Name = 
REMARK  3 active torsions:
REMARK  status: ('A' for Active; 'I' for Inactive)
REMARK    1  A    between atoms: N_3  and  C_4
REMARK    2  A    between atoms: C_4  and  C_5
REMARK    3  A    between atoms: C_14  and  N_15
REMARK                            x       y       z     vdW  Elec       q    Type
REMARK                         _______ _______ _______ _____ _____    ______ ____
ROOT
ATOM      1  O   UNL     1       4.857   4.199  19.585  0.00  0.00    +0.000 OA
ATOM      2  C   UNL     1       5.030   5.236  18.953  0.00  0.00    +0.000 C 
ATOM      3  N   UNL     1       4.104   6.242  18.896  0.00  0.00    +0.000 N 
ATOM      4  N   UNL     1       6.188   5.493  18.286  0.00  0.00    +0.000 N 
ATOM      5  C   UNL     1       6.661   6.536  17.407  0.00  0.00    +0.000 C 
ATOM      6  C   UNL     1       7.592   5.483  16.773  0.00  0.00    +0.000 C 
ATOM      7  C   UNL     1       7.280   4.590  17.992  0.00  0.00    +0.000 C 
ATOM      8  H   UNL     1       4.121   6.803  18.059  0.00  0.00    +0.000 HD
ENDROOT
BRANCH   6   9
ATOM      9  N   UNL     1       7.064   4.920  15.554  0.00  0.00    +0.000 N 
ATOM     10  N   UNL     1       6.021   4.050  15.516  0.00  0.00    +0.000 NA
ATOM     11  C   UNL     1       5.868   3.853  14.206  0.00  0.00    +0.000 A 
ATOM     12  C   UNL     1       6.807   4.611  13.500  0.00  0.00    +0.000 A 
ATOM     13  N   UNL     1       7.565   5.304  14.352  0.00  0.00    +0.000 NA
ENDBRANCH   6   9
BRANCH   3  14
ATOM     14  C   UNL     1       2.813   6.060  19.524  0.00  0.00    +0.000 C 
BRANCH  14  15
ATOM     15  C   UNL     1       2.048   7.356  19.618  0.00  0.00    +0.000 A 
ATOM     16  C   UNL     1       1.448   7.753  20.821  0.00  0.00    +0.000 A 
ATOM     17  C   UNL     1       0.805   8.992  20.917  0.00  0.00    +0.000 A 
ATOM     18  C   UNL     1       0.759   9.838  19.811  0.00  0.00    +0.000 A 
ATOM     19 CL   UNL     1      -0.012  11.371  19.938  0.00  0.00    +0.000 Cl
ATOM     20  C   UNL     1       1.342   9.455  18.605  0.00  0.00    +0.000 A 
ATOM     21  C   UNL     1       1.984   8.218  18.510  0.00  0.00    +0.000 A 
ENDBRANCH  14  15
ENDBRANCH   3  14
TORSDOF 3
ENDMDL
MODEL 6
REMARK VINA RESULT:      -6.7      1.435      1.807
REMARK  Name = 
REMARK  3 active torsions:
REMARK  status: ('A' for Active; 'I' for Inactive)
REMARK    1  A    between atoms: N_3  and  C_4
REMARK    2  A    between atoms: C_4  and  C_5
REMARK    3  A    between atoms: C_14  and  N_15
REMARK                            x       y       z     vdW  Elec       q    Type
REMARK                         _______ _______ _______ _____ _____    ______ ____
ROOT
ATOM      1  O   UNL     1       4.597   4.313  19.507  0.00  0.00    +0.000 OA
ATOM      2  C   UNL     1       4.872   5.348  18.910  0.00  0.00    +0.000 C 
ATOM      3  N   UNL     1       4.015   6.411  18.817  0.00  0.00    +0.000 N 
ATOM      4  N   UNL     1       6.084   5.545  18.321  0.00  0.00    +0.000 N 
ATOM      5  C   UNL     1       6.674   6.573  17.497  0.00  0.00    +0.000 C 
ATOM      6  C   UNL     1       7.578   5.475  16.899  0.00  0.00    +0.000 C 
ATOM      7  C   UNL     1       7.135   4.582  18.076  0.00  0.00    +0.000 C 
ATOM      8  H   UNL     1       4.119   6.985  17.996  0.00  0.00    +0.000 HD
ENDROOT
BRANCH   6   9
ATOM      9  N   UNL     1       7.094   4.968  15.637  0.00  0.00    +0.000 N 
ATOM     10  N   UNL     1       7.541   5.403  14.430  0.00  0.00    +0.000 NA
ATOM     11  C   UNL     1       6.857   4.631  13.584  0.00  0.00    +0.000 A 
ATOM     12  C   UNL     1       6.034   3.757  14.299  0.00  0.00    +0.000 A 
ATOM     13  N   UNL     1       6.190   3.957  15.610  0.00  0.00    +0.000 NA
ENDBRANCH   6   9
BRANCH   3  14
ATOM     14  C   UNL     1       2.678   6.299  19.360  0.00  0.00    +0.000 C 
BRANCH  14  15
ATOM     15  C   UNL     1       2.000   7.641  19.462  0.00  0.00    +0.000 A 
ATOM     16  C   UNL     1       1.868   8.469  18.338  0.00  0.00    +0.000 A 
ATOM     17  C   UNL     1       1.171   9.679  18.427  0.00  0.00    +0.000 A 
ATOM     18  C   UNL     1       0.604  10.066  19.640  0.00  0.00    +0.000 A 
ATOM     19 CL   UNL     1      -0.273  11.543  19.742  0.00  0.00    +0.000 Cl
ATOM     20  C   UNL     1       0.733   9.259  20.768  0.00  0.00    +0.000 A 
ATOM     21  C   UNL     1       1.429   8.051  20.678  0.00  0.00    +0.000 A 
ENDBRANCH  14  15
ENDBRANCH   3  14
TORSDOF 3
ENDMDL
MODEL 7
REMARK VINA RESULT:      -6.6      1.415      1.881
REMARK  Name = 
REMARK  3 active torsions:
REMARK  status: ('A' for Active; 'I' for Inactive)
REMARK    1  A    between atoms: N_3  and  C_4
REMARK    2  A    between atoms: C_4  and  C_5
REMARK    3  A    between atoms: C_14  and  N_15
REMARK                            x       y       z     vdW  Elec       q    Type
REMARK                         _______ _______ _______ _____ _____    ______ ____
ROOT
ATOM      1  O   UNL     1       4.122   4.483  19.320  0.00  0.00    +0.000 OA
ATOM      2  C   UNL     1       4.532   5.496  18.764  0.00  0.00    +0.000 C 
ATOM      3  N   UNL     1       3.769   6.620  18.594  0.00  0.00    +0.000 N 
ATOM      4  N   UNL     1       5.809   5.604  18.304  0.00  0.00    +0.000 N 
ATOM      5  C   UNL     1       6.554   6.586  17.554  0.00  0.00    +0.000 C 
ATOM      6  C   UNL     1       7.432   5.426  17.042  0.00  0.00    +0.000 C 
ATOM      7  C   UNL     1       6.806   4.566  18.159  0.00  0.00    +0.000 C 
ATOM      8  H   UNL     1       3.998   7.186  17.793  0.00  0.00    +0.000 HD
ENDROOT
BRANCH   6   9
ATOM      9  N   UNL     1       7.044   4.959  15.732  0.00  0.00    +0.000 N 
ATOM     10  N   UNL     1       7.571   5.437  14.575  0.00  0.00    +0.000 NA
ATOM     11  C   UNL     1       6.957   4.689  13.657  0.00  0.00    +0.000 A 
ATOM     12  C   UNL     1       6.095   3.785  14.283  0.00  0.00    +0.000 A 
ATOM     13  N   UNL     1       6.154   3.941  15.607  0.00  0.00    +0.000 NA
ENDBRANCH   6   9
BRANCH   3  14
ATOM     14  C   UNL     1       2.379   6.605  18.996  0.00  0.00    +0.000 C 
BRANCH  14  15
ATOM     15  C   UNL     1       1.836   7.999  19.188  0.00  0.00    +0.000 A 
ATOM     16  C   UNL     1       1.331   8.411  20.429  0.00  0.00    +0.000 A 
ATOM     17  C   UNL     1       0.899   9.729  20.615  0.00  0.00    +0.000 A 
ATOM     18  C   UNL     1       0.971  10.639  19.562  0.00  0.00    +0.000 A 
ATOM     19 CL   UNL     1       0.461  12.265  19.801  0.00  0.00    +0.000 Cl
ATOM     20  C   UNL     1       1.462  10.242  18.320  0.00  0.00    +0.000 A 
ATOM     21  C   UNL     1       1.892   8.927  18.135  0.00  0.00    +0.000 A 
ENDBRANCH  14  15
ENDBRANCH   3  14
TORSDOF 3
ENDMDL
MODEL 8
REMARK VINA RESULT:      -6.6      2.962      4.526
REMARK  Name = 
REMARK  3 active torsions:
REMARK  status: ('A' for Active; 'I' for Inactive)
REMARK    1  A    between atoms: N_3  and  C_4
REMARK    2  A    between atoms: C_4  and  C_5
REMARK    3  A    between atoms: C_14  and  N_15
REMARK                            x       y       z     vdW  Elec       q    Type
REMARK                         _______ _______ _______ _____ _____    ______ ____
ROOT
ATOM      1  O   UNL     1       4.288   6.779  17.981  0.00  0.00    +0.000 OA
ATOM      2  C   UNL     1       3.114   6.435  17.909  0.00  0.00    +0.000 C 
ATOM      3  N   UNL     1       2.069   7.317  17.971  0.00  0.00    +0.000 N 
ATOM      4  N   UNL     1       2.749   5.138  17.716  0.00  0.00    +0.000 N 
ATOM      5  C   UNL     1       1.501   4.414  17.675  0.00  0.00    +0.000 C 
ATOM      6  C   UNL     1       2.287   3.173  18.147  0.00  0.00    +0.000 C 
ATOM      7  C   UNL     1       3.570   3.949  17.787  0.00  0.00    +0.000 C 
ATOM      8  H   UNL     1       1.207   6.948  18.339  0.00  0.00    +0.000 HD
ENDROOT
BRANCH   6   9
ATOM      9  N   UNL     1       2.185   2.945  19.568  0.00  0.00    +0.000 N 
ATOM     10  N   UNL     1       3.247   2.646  20.361  0.00  0.00    +0.000 NA
ATOM     11  C   UNL     1       2.684   2.576  21.568  0.00  0.00    +0.000 A 
ATOM     12  C   UNL     1       1.316   2.842  21.469  0.00  0.00    +0.000 A 
ATOM     13  N   UNL     1       0.992   3.092  20.199  0.00  0.00    +0.000 NA
ENDBRANCH   6   9
BRANCH   3  14
ATOM     14  C   UNL     1       2.332   8.717  18.228  0.00  0.00    +0.000 C 
BRANCH  14  15
ATOM     15  C   UNL     1       1.072   9.469  18.577  0.00  0.00    +0.000 A 
ATOM     16  C   UNL     1       0.968  10.181  19.780  0.00  0.00    +0.000 A 
ATOM     17  C   UNL     1      -0.177  10.935  20.060  0.00  0.00    +0.000 A 
ATOM     18  C   UNL     1      -1.221  10.981  19.138  0.00  0.00    +0.000 A 
ATOM     19 CL   UNL     1      -2.617  11.929  19.473  0.00  0.00    +0.000 Cl
ATOM     20  C   UNL     1      -1.136  10.273  17.942  0.00  0.00    +0.000 A 
ATOM     21  C   UNL     1       0.006   9.519  17.663  0.00  0.00    +0.000 A 
ENDBRANCH  14  15
ENDBRANCH   3  14
TORSDOF 3
ENDMDL
MODEL 9
REMARK VINA RESULT:      -6.6      4.496      7.918
REMARK  Name = 
REMARK  3 active torsions:
REMARK  status: ('A' for Active; 'I' for Inactive)
REMARK    1  A    between atoms: N_3  and  C_4
REMARK    2  A    between atoms: C_4  and  C_5
REMARK    3  A    between atoms: C_14  and  N_15
REMARK                            x       y       z     vdW  Elec       q    Type
REMARK                         _______ _______ _______ _____ _____    ______ ____
ROOT
ATOM      1  O   UNL     1       2.357  10.409  17.608  0.00  0.00    +0.000 OA
ATOM      2  C   UNL     1       1.558   9.926  18.403  0.00  0.00    +0.000 C 
ATOM      3  N   UNL     1       1.656   8.647  18.881  0.00  0.00    +0.000 N 
ATOM      4  N   UNL     1       0.521  10.643  18.914  0.00  0.00    +0.000 N 
ATOM      5  C   UNL     1      -0.607  10.358  19.769  0.00  0.00    +0.000 C 
ATOM      6  C   UNL     1      -1.347  11.511  19.059  0.00  0.00    +0.000 C 
ATOM      7  C   UNL     1       0.025  11.936  18.496  0.00  0.00    +0.000 C 
ATOM      8  H   UNL     1       0.787   8.211  19.142  0.00  0.00    +0.000 HD
ENDROOT
BRANCH   6   9
ATOM      9  N   UNL     1      -2.232  11.056  18.013  0.00  0.00    +0.000 N 
ATOM     10  N   UNL     1      -1.931  10.043  17.160  0.00  0.00    +0.000 NA
ATOM     11  C   UNL     1      -3.042   9.957  16.425  0.00  0.00    +0.000 A 
ATOM     12  C   UNL     1      -3.972  10.905  16.860  0.00  0.00    +0.000 A 
ATOM     13  N   UNL     1      -3.468  11.602  17.881  0.00  0.00    +0.000 NA
ENDBRANCH   6   9
BRANCH   3  14
ATOM     14  C   UNL     1       2.689   7.771  18.370  0.00  0.00    +0.000 C 
BRANCH  14  15
ATOM     15  C   UNL     1       2.463   6.338  18.780  0.00  0.00    +0.000 A 
ATOM     16  C   UNL     1       2.151   6.009  20.107  0.00  0.00    +0.000 A 
ATOM     17  C   UNL     1       1.870   4.685  20.462  0.00  0.00    +0.000 A 
ATOM     18  C   UNL     1       1.899   3.686  19.491  0.00  0.00    +0.000 A 
ATOM     19 CL   UNL     1       1.530   2.062  19.925  0.00  0.00    +0.000 Cl
ATOM     20  C   UNL     1       2.215   3.994  18.170  0.00  0.00    +0.000 A 
ATOM     21  C   UNL     1       2.496   5.316  17.817  0.00  0.00    +0.000 A 
ENDBRANCH  14  15
ENDBRANCH   3  14
TORSDOF 3
ENDMDL
