MODEL 1
REMARK VINA RESULT:      -7.6      0.000      0.000
REMARK  Name = 
REMARK  4 active torsions:
REMARK  status: ('A' for Active; 'I' for Inactive)
REMARK    1  A    between atoms: C_2  and  C_3
REMARK    2  A    between atoms: C_12  and  C_14
REMARK    3  A    between atoms: N_16  and  C_17
REMARK    4  A    between atoms: C_24  and  C_25
REMARK                            x       y       z     vdW  Elec       q    Type
REMARK                         _______ _______ _______ _____ _____    ______ ____
ROOT
ATOM      1  C   UNL     1      -0.069  11.618  19.141  0.00  0.00    +0.000 A 
ATOM      2  C   UNL     1       1.088  10.887  19.298  0.00  0.00    +0.000 A 
ATOM      3  N   UNL     1       0.895   9.670  18.707  0.00  0.00    +0.000 N 
ATOM      4  N   UNL     1      -0.278   9.627  18.041  0.00  0.00    +0.000 NA
ATOM      5  C   UNL     1      -0.894  10.791  18.316  0.00  0.00    +0.000 A 
ENDROOT
BRANCH   1  12
ATOM      6  O   UNL     1      -3.960  12.883  24.633  0.00  0.00    +0.000 OA
ATOM      7  C   UNL     1      -3.717  13.839  23.891  0.00  0.00    +0.000 C 
ATOM      8  N   UNL     1      -3.099  13.633  22.651  0.00  0.00    +0.000 N 
ATOM      9  C   UNL     1      -2.653  14.660  21.695  0.00  0.00    +0.000 C 
ATOM     10  C   UNL     1      -1.181  14.500  21.311  0.00  0.00    +0.000 C 
ATOM     11  N   UNL     1      -0.897  13.137  20.881  0.00  0.00    +0.000 N 
ATOM     12  C   UNL     1      -0.326  12.965  19.620  0.00  0.00    +0.000 C 
ATOM     13  O   UNL     1      -0.067  13.931  18.907  0.00  0.00    +0.000 OA
ATOM     14  C   UNL     1      -1.317  12.112  21.849  0.00  0.00    +0.000 C 
ATOM     15  C   UNL     1      -2.792  12.261  22.243  0.00  0.00    +0.000 C 
BRANCH   7  16
ATOM     16  C   UNL     1      -4.014  15.209  24.273  0.00  0.00    +0.000 A 
ATOM     17  C   UNL     1      -3.269  16.157  24.948  0.00  0.00    +0.000 A 
ATOM     18  C   UNL     1      -4.024  17.309  25.301  0.00  0.00    +0.000 A 
ATOM     19  C   UNL     1      -5.273  17.292  24.729  0.00  0.00    +0.000 A 
ATOM     20  S   UNL     1      -5.550  15.867  23.827  0.00  0.00    +0.000 S 
ENDBRANCH   7  16
ENDBRANCH   1  12
BRANCH   3  21
ATOM     21  C   UNL     1       1.777   8.558  18.742  0.00  0.00    +0.000 A 
ATOM     22  C   UNL     1       2.640   8.292  17.669  0.00  0.00    +0.000 A 
ATOM     23  C   UNL     1       3.483   7.181  17.709  0.00  0.00    +0.000 A 
ATOM     24  C   UNL     1       3.465   6.332  18.814  0.00  0.00    +0.000 A 
ATOM     25  C   UNL     1       2.619   6.601  19.889  0.00  0.00    +0.000 A 
ATOM     26  C   UNL     1       1.783   7.718  19.863  0.00  0.00    +0.000 A 
ENDBRANCH   3  21
BRANCH   5  27
ATOM     27  C   UNL     1      -2.239  11.052  17.790  0.00  0.00    +0.000 A 
ATOM     28  C   UNL     1      -3.265  11.543  18.611  0.00  0.00    +0.000 A 
ATOM     29  C   UNL     1      -4.536  11.800  18.091  0.00  0.00    +0.000 A 
ATOM     30  C   UNL     1      -4.803  11.547  16.747  0.00  0.00    +0.000 A 
ATOM     31  C   UNL     1      -3.802  11.038  15.924  0.00  0.00    +0.000 A 
ATOM     32  C   UNL     1      -2.528  10.792  16.442  0.00  0.00    +0.000 A 
ENDBRANCH   5  27
TORSDOF 4
ENDMDL
MODEL 2
REMARK VINA RESULT:      -7.5      0.070      1.209
REMARK  Name = 
REMARK  4 active torsions:
REMARK  status: ('A' for Active; 'I' for Inactive)
REMARK    1  A    between atoms: C_2  and  C_3
REMARK    2  A    between atoms: C_12  and  C_14
REMARK    3  A    between atoms: N_16  and  C_17
REMARK    4  A    between atoms: C_24  and  C_25
REMARK                            x       y       z     vdW  Elec       q    Type
REMARK                         _______ _______ _______ _____ _____    ______ ____
ROOT
ATOM      1  C   UNL     1      -0.108  11.647  19.117  0.00  0.00    +0.000 A 
ATOM      2  C   UNL     1       1.051  10.916  19.269  0.00  0.00    +0.000 A 
ATOM      3  N   UNL     1       0.854   9.696  18.684  0.00  0.00    +0.000 N 
ATOM      4  N   UNL     1      -0.324   9.651  18.026  0.00  0.00    +0.000 NA
ATOM      5  C   UNL     1      -0.938  10.816  18.300  0.00  0.00    +0.000 A 
ENDROOT
BRANCH   1  12
ATOM      6  O   UNL     1      -3.917  12.928  24.662  0.00  0.00    +0.000 OA
ATOM      7  C   UNL     1      -3.689  13.882  23.911  0.00  0.00    +0.000 C 
ATOM      8  N   UNL     1      -3.089  13.671  22.663  0.00  0.00    +0.000 N 
ATOM      9  C   UNL     1      -2.662  14.694  21.695  0.00  0.00    +0.000 C 
ATOM     10  C   UNL     1      -1.195  14.536  21.288  0.00  0.00    +0.000 C 
ATOM     11  N   UNL     1      -0.913  13.172  20.861  0.00  0.00    +0.000 N 
ATOM     12  C   UNL     1      -0.361  12.995  19.592  0.00  0.00    +0.000 C 
ATOM     13  O   UNL     1      -0.117  13.958  18.871  0.00  0.00    +0.000 OA
ATOM     14  C   UNL     1      -1.315  12.151  21.841  0.00  0.00    +0.000 C 
ATOM     15  C   UNL     1      -2.784  12.298  22.257  0.00  0.00    +0.000 C 
BRANCH   7  16
ATOM     16  C   UNL     1      -3.984  15.252  24.290  0.00  0.00    +0.000 A 
ATOM     17  C   UNL     1      -3.227  16.211  24.936  0.00  0.00    +0.000 A 
ATOM     18  C   UNL     1      -3.980  17.361  25.301  0.00  0.00    +0.000 A 
ATOM     19  C   UNL     1      -5.244  17.332  24.764  0.00  0.00    +0.000 A 
ATOM     20  S   UNL     1      -5.536  15.897  23.882  0.00  0.00    +0.000 S 
ENDBRANCH   7  16
ENDBRANCH   1  12
BRANCH   3  21
ATOM     21  C   UNL     1       1.735   8.585  18.718  0.00  0.00    +0.000 A 
ATOM     22  C   UNL     1       1.742   7.707  19.813  0.00  0.00    +0.000 A 
ATOM     23  C   UNL     1       2.632   6.633  19.842  0.00  0.00    +0.000 A 
ATOM     24  C   UNL     1       3.518   6.433  18.785  0.00  0.00    +0.000 A 
ATOM     25  C   UNL     1       3.504   7.294  17.689  0.00  0.00    +0.000 A 
ATOM     26  C   UNL     1       2.609   8.362  17.645  0.00  0.00    +0.000 A 
ENDBRANCH   3  21
BRANCH   5  27
ATOM     27  C   UNL     1      -2.286  11.075  17.782  0.00  0.00    +0.000 A 
ATOM     28  C   UNL     1      -2.606  10.867  16.432  0.00  0.00    +0.000 A 
ATOM     29  C   UNL     1      -3.899  11.103  15.959  0.00  0.00    +0.000 A 
ATOM     30  C   UNL     1      -4.883  11.574  16.825  0.00  0.00    +0.000 A 
ATOM     31  C   UNL     1      -4.576  11.807  18.163  0.00  0.00    +0.000 A 
ATOM     32  C   UNL     1      -3.286  11.559  18.639  0.00  0.00    +0.000 A 
ENDBRANCH   5  27
TORSDOF 4
ENDMDL
MODEL 3
REMARK VINA RESULT:      -7.3      4.381      7.712
REMARK  Name = 
REMARK  4 active torsions:
REMARK  status: ('A' for Active; 'I' for Inactive)
REMARK    1  A    between atoms: C_2  and  C_3
REMARK    2  A    between atoms: C_12  and  C_14
REMARK    3  A    between atoms: N_16  and  C_17
REMARK    4  A    between atoms: C_24  and  C_25
REMARK                            x       y       z     vdW  Elec       q    Type
REMARK                         _______ _______ _______ _____ _____    ______ ____
ROOT
ATOM      1  C   UNL     1      -0.156  11.815  19.956  0.00  0.00    +0.000 A 
ATOM      2  C   UNL     1      -1.417  12.362  19.849  0.00  0.00    +0.000 A 
ATOM      3  N   UNL     1      -2.167  11.528  19.068  0.00  0.00    +0.000 N 
ATOM      4  N   UNL     1      -1.502  10.389  18.784  0.00  0.00    +0.000 NA
ATOM      5  C   UNL     1      -0.266  10.555  19.289  0.00  0.00    +0.000 A 
ENDROOT
BRANCH   1  12
ATOM      6  O   UNL     1       3.425  17.180  17.656  0.00  0.00    +0.000 OA
ATOM      7  C   UNL     1       3.942  16.511  18.556  0.00  0.00    +0.000 C 
ATOM      8  N   UNL     1       3.372  15.292  18.946  0.00  0.00    +0.000 N 
ATOM      9  C   UNL     1       3.799  14.423  20.055  0.00  0.00    +0.000 C 
ATOM     10  C   UNL     1       2.653  14.101  21.017  0.00  0.00    +0.000 C 
ATOM     11  N   UNL     1       1.489  13.603  20.298  0.00  0.00    +0.000 N 
ATOM     12  C   UNL     1       0.977  12.363  20.680  0.00  0.00    +0.000 C 
ATOM     13  O   UNL     1       1.489  11.724  21.596  0.00  0.00    +0.000 OA
ATOM     14  C   UNL     1       1.046  14.485  19.207  0.00  0.00    +0.000 C 
ATOM     15  C   UNL     1       2.185  14.815  18.234  0.00  0.00    +0.000 C 
BRANCH   7  16
ATOM     16  C   UNL     1       5.120  16.961  19.275  0.00  0.00    +0.000 A 
ATOM     17  C   UNL     1       5.265  17.749  20.400  0.00  0.00    +0.000 A 
ATOM     18  C   UNL     1       6.615  18.123  20.647  0.00  0.00    +0.000 A 
ATOM     19  C   UNL     1       7.486  17.464  19.813  0.00  0.00    +0.000 A 
ATOM     20  S   UNL     1       6.671  16.451  18.702  0.00  0.00    +0.000 S 
ENDBRANCH   7  16
ENDBRANCH   1  12
BRANCH   3  21
ATOM     21  C   UNL     1      -3.483  11.765  18.592  0.00  0.00    +0.000 A 
ATOM     22  C   UNL     1      -4.471  12.287  19.440  0.00  0.00    +0.000 A 
ATOM     23  C   UNL     1      -5.766  12.492  18.962  0.00  0.00    +0.000 A 
ATOM     24  C   UNL     1      -6.080  12.174  17.643  0.00  0.00    +0.000 A 
ATOM     25  C   UNL     1      -5.098  11.669  16.792  0.00  0.00    +0.000 A 
ATOM     26  C   UNL     1      -3.797  11.474  17.258  0.00  0.00    +0.000 A 
ENDBRANCH   3  21
BRANCH   5  27
ATOM     27  C   UNL     1       0.749   9.512  19.102  0.00  0.00    +0.000 A 
ATOM     28  C   UNL     1       1.091   8.627  20.136  0.00  0.00    +0.000 A 
ATOM     29  C   UNL     1       2.049   7.629  19.936  0.00  0.00    +0.000 A 
ATOM     30  C   UNL     1       2.694   7.520  18.706  0.00  0.00    +0.000 A 
ATOM     31  C   UNL     1       2.382   8.405  17.677  0.00  0.00    +0.000 A 
ATOM     32  C   UNL     1       1.416   9.394  17.874  0.00  0.00    +0.000 A 
ENDBRANCH   5  27
TORSDOF 4
ENDMDL
MODEL 4
REMARK VINA RESULT:      -7.3      2.023      3.372
REMARK  Name = 
REMARK  4 active torsions:
REMARK  status: ('A' for Active; 'I' for Inactive)
REMARK    1  A    between atoms: C_2  and  C_3
REMARK    2  A    between atoms: C_12  and  C_14
REMARK    3  A    between atoms: N_16  and  C_17
REMARK    4  A    between atoms: C_24  and  C_25
REMARK                            x       y       z     vdW  Elec       q    Type
REMARK                         _______ _______ _______ _____ _____    ______ ____
ROOT
ATOM      1  C   UNL     1      -0.611  11.417  18.976  0.00  0.00    +0.000 A 
ATOM      2  C   UNL     1      -0.297  10.081  19.103  0.00  0.00    +0.000 A 
ATOM      3  N   UNL     1       1.056   9.955  18.954  0.00  0.00    +0.000 N 
ATOM      4  N   UNL     1       1.657  11.162  18.885  0.00  0.00    +0.000 NA
ATOM      5  C   UNL     1       0.659  12.064  18.868  0.00  0.00    +0.000 A 
ENDROOT
BRANCH   1  12
ATOM      6  O   UNL     1      -3.474  13.267  24.916  0.00  0.00    +0.000 OA
ATOM      7  C   UNL     1      -4.223  13.191  23.937  0.00  0.00    +0.000 C 
ATOM      8  N   UNL     1      -3.763  12.634  22.737  0.00  0.00    +0.000 N 
ATOM      9  C   UNL     1      -4.485  12.555  21.457  0.00  0.00    +0.000 C 
ATOM     10  C   UNL     1      -3.687  13.159  20.299  0.00  0.00    +0.000 C 
ATOM     11  N   UNL     1      -2.340  12.607  20.246  0.00  0.00    +0.000 N 
ATOM     12  C   UNL     1      -1.931  12.016  19.051  0.00  0.00    +0.000 C 
ATOM     13  O   UNL     1      -2.682  11.974  18.080  0.00  0.00    +0.000 OA
ATOM     14  C   UNL     1      -1.609  12.712  21.519  0.00  0.00    +0.000 C 
ATOM     15  C   UNL     1      -2.397  12.109  22.688  0.00  0.00    +0.000 C 
BRANCH   7  16
ATOM     16  C   UNL     1      -5.582  13.703  23.962  0.00  0.00    +0.000 A 
ATOM     17  C   UNL     1      -6.795  13.080  24.185  0.00  0.00    +0.000 A 
ATOM     18  C   UNL     1      -7.909  13.918  23.906  0.00  0.00    +0.000 A 
ATOM     19  C   UNL     1      -7.522  15.212  23.655  0.00  0.00    +0.000 A 
ATOM     20  S   UNL     1      -5.823  15.395  23.694  0.00  0.00    +0.000 S 
ENDBRANCH   7  16
ENDBRANCH   1  12
BRANCH   3  21
ATOM     21  C   UNL     1       1.795   8.746  18.882  0.00  0.00    +0.000 A 
ATOM     22  C   UNL     1       2.570   8.444  17.752  0.00  0.00    +0.000 A 
ATOM     23  C   UNL     1       3.271   7.239  17.687  0.00  0.00    +0.000 A 
ATOM     24  C   UNL     1       3.199   6.333  18.743  0.00  0.00    +0.000 A 
ATOM     25  C   UNL     1       2.442   6.635  19.874  0.00  0.00    +0.000 A 
ATOM     26  C   UNL     1       1.749   7.844  19.953  0.00  0.00    +0.000 A 
ENDBRANCH   3  21
BRANCH   5  27
ATOM     27  C   UNL     1       0.965  13.493  18.736  0.00  0.00    +0.000 A 
ATOM     28  C   UNL     1      -0.049  14.463  18.736  0.00  0.00    +0.000 A 
ATOM     29  C   UNL     1       0.261  15.821  18.625  0.00  0.00    +0.000 A 
ATOM     30  C   UNL     1       1.587  16.224  18.491  0.00  0.00    +0.000 A 
ATOM     31  C   UNL     1       2.603  15.273  18.467  0.00  0.00    +0.000 A 
ATOM     32  C   UNL     1       2.294  13.916  18.589  0.00  0.00    +0.000 A 
ENDBRANCH   5  27
TORSDOF 4
ENDMDL
MODEL 5
REMARK VINA RESULT:      -7.2      4.184      7.648
REMARK  Name = 
REMARK  4 active torsions:
REMARK  status: ('A' for Active; 'I' for Inactive)
REMARK    1  A    between atoms: C_2  and  C_3
REMARK    2  A    between atoms: C_12  and  C_14
REMARK    3  A    between atoms: N_16  and  C_17
REMARK    4  A    between atoms: C_24  and  C_25
REMARK                            x       y       z     vdW  Elec       q    Type
REMARK                         _______ _______ _______ _____ _____    ______ ____
ROOT
ATOM      1  C   UNL     1      -0.162  11.813  19.931  0.00  0.00    +0.000 A 
ATOM      2  C   UNL     1      -1.425  12.358  19.834  0.00  0.00    +0.000 A 
ATOM      3  N   UNL     1      -2.179  11.524  19.057  0.00  0.00    +0.000 N 
ATOM      4  N   UNL     1      -1.513  10.387  18.766  0.00  0.00    +0.000 NA
ATOM      5  C   UNL     1      -0.274  10.554  19.263  0.00  0.00    +0.000 A 
ENDROOT
BRANCH   1  12
ATOM      6  O   UNL     1       3.380  17.203  17.629  0.00  0.00    +0.000 OA
ATOM      7  C   UNL     1       3.907  16.531  18.521  0.00  0.00    +0.000 C 
ATOM      8  N   UNL     1       3.345  15.308  18.910  0.00  0.00    +0.000 N 
ATOM      9  C   UNL     1       3.784  14.436  20.011  0.00  0.00    +0.000 C 
ATOM     10  C   UNL     1       2.647  14.104  20.981  0.00  0.00    +0.000 C 
ATOM     11  N   UNL     1       1.479  13.605  20.269  0.00  0.00    +0.000 N 
ATOM     12  C   UNL     1       0.975  12.361  20.649  0.00  0.00    +0.000 C 
ATOM     13  O   UNL     1       1.497  11.720  21.557  0.00  0.00    +0.000 OA
ATOM     14  C   UNL     1       1.024  14.491  19.186  0.00  0.00    +0.000 C 
ATOM     15  C   UNL     1       2.153  14.831  18.205  0.00  0.00    +0.000 C 
BRANCH   7  16
ATOM     16  C   UNL     1       5.090  16.983  19.232  0.00  0.00    +0.000 A 
ATOM     17  C   UNL     1       6.436  16.852  18.953  0.00  0.00    +0.000 A 
ATOM     18  C   UNL     1       7.270  17.259  20.031  0.00  0.00    +0.000 A 
ATOM     19  C   UNL     1       6.547  17.861  21.033  0.00  0.00    +0.000 A 
ATOM     20  S   UNL     1       4.871  17.874  20.699  0.00  0.00    +0.000 S 
ENDBRANCH   7  16
ENDBRANCH   1  12
BRANCH   3  21
ATOM     21  C   UNL     1      -3.498  11.760  18.590  0.00  0.00    +0.000 A 
ATOM     22  C   UNL     1      -3.843  11.504  17.254  0.00  0.00    +0.000 A 
ATOM     23  C   UNL     1      -5.138  11.764  16.804  0.00  0.00    +0.000 A 
ATOM     24  C   UNL     1      -6.089  12.283  17.681  0.00  0.00    +0.000 A 
ATOM     25  C   UNL     1      -5.754  12.525  19.012  0.00  0.00    +0.000 A 
ATOM     26  C   UNL     1      -4.466  12.255  19.473  0.00  0.00    +0.000 A 
ENDBRANCH   3  21
BRANCH   5  27
ATOM     27  C   UNL     1       0.741   9.513  19.067  0.00  0.00    +0.000 A 
ATOM     28  C   UNL     1       1.408   9.360  17.843  0.00  0.00    +0.000 A 
ATOM     29  C   UNL     1       2.384   8.373  17.678  0.00  0.00    +0.000 A 
ATOM     30  C   UNL     1       2.688   7.513  18.730  0.00  0.00    +0.000 A 
ATOM     31  C   UNL     1       2.019   7.637  19.945  0.00  0.00    +0.000 A 
ATOM     32  C   UNL     1       1.052   8.631  20.113  0.00  0.00    +0.000 A 
ENDBRANCH   5  27
TORSDOF 4
ENDMDL
MODEL 6
REMARK VINA RESULT:      -7.2      2.089      3.504
REMARK  Name = 
REMARK  4 active torsions:
REMARK  status: ('A' for Active; 'I' for Inactive)
REMARK    1  A    between atoms: C_2  and  C_3
REMARK    2  A    between atoms: C_12  and  C_14
REMARK    3  A    between atoms: N_16  and  C_17
REMARK    4  A    between atoms: C_24  and  C_25
REMARK                            x       y       z     vdW  Elec       q    Type
REMARK                         _______ _______ _______ _____ _____    ______ ____
ROOT
ATOM      1  C   UNL     1      -0.366  11.371  18.958  0.00  0.00    +0.000 A 
ATOM      2  C   UNL     1      -0.136  10.023  19.137  0.00  0.00    +0.000 A 
ATOM      3  N   UNL     1       1.208   9.810  19.010  0.00  0.00    +0.000 N 
ATOM      4  N   UNL     1       1.883  10.975  18.906  0.00  0.00    +0.000 NA
ATOM      5  C   UNL     1       0.943  11.934  18.843  0.00  0.00    +0.000 A 
ENDROOT
BRANCH   1  12
ATOM      6  O   UNL     1      -3.457  13.075  24.827  0.00  0.00    +0.000 OA
ATOM      7  C   UNL     1      -4.149  13.103  23.804  0.00  0.00    +0.000 C 
ATOM      8  N   UNL     1      -3.654  12.585  22.601  0.00  0.00    +0.000 N 
ATOM      9  C   UNL     1      -4.301  12.625  21.280  0.00  0.00    +0.000 C 
ATOM     10  C   UNL     1      -3.399  13.238  20.206  0.00  0.00    +0.000 C 
ATOM     11  N   UNL     1      -2.089  12.601  20.197  0.00  0.00    +0.000 N 
ATOM     12  C   UNL     1      -1.648  12.052  18.993  0.00  0.00    +0.000 C 
ATOM     13  O   UNL     1      -2.340  12.113  17.981  0.00  0.00    +0.000 OA
ATOM     14  C   UNL     1      -1.430  12.586  21.512  0.00  0.00    +0.000 C 
ATOM     15  C   UNL     1      -2.324  11.973  22.598  0.00  0.00    +0.000 C 
BRANCH   7  16
ATOM     16  C   UNL     1      -5.472  13.703  23.783  0.00  0.00    +0.000 A 
ATOM     17  C   UNL     1      -5.886  15.009  23.607  0.00  0.00    +0.000 A 
ATOM     18  C   UNL     1      -7.272  15.193  23.871  0.00  0.00    +0.000 A 
ATOM     19  C   UNL     1      -7.916  13.994  24.063  0.00  0.00    +0.000 A 
ATOM     20  S   UNL     1      -6.842  12.667  23.986  0.00  0.00    +0.000 S 
ENDBRANCH   7  16
ENDBRANCH   1  12
BRANCH   3  21
ATOM     21  C   UNL     1       1.872   8.556  18.991  0.00  0.00    +0.000 A 
ATOM     22  C   UNL     1       1.795   7.686  20.090  0.00  0.00    +0.000 A 
ATOM     23  C   UNL     1       2.473   6.467  20.064  0.00  0.00    +0.000 A 
ATOM     24  C   UNL     1       3.232   6.114  18.950  0.00  0.00    +0.000 A 
ATOM     25  C   UNL     1       3.299   6.969  17.851  0.00  0.00    +0.000 A 
ATOM     26  C   UNL     1       2.613   8.184  17.862  0.00  0.00    +0.000 A 
ENDBRANCH   3  21
BRANCH   5  27
ATOM     27  C   UNL     1       1.337  13.337  18.665  0.00  0.00    +0.000 A 
ATOM     28  C   UNL     1       0.464  14.389  18.977  0.00  0.00    +0.000 A 
ATOM     29  C   UNL     1       0.861  15.719  18.816  0.00  0.00    +0.000 A 
ATOM     30  C   UNL     1       2.129  16.013  18.318  0.00  0.00    +0.000 A 
ATOM     31  C   UNL     1       2.999  14.979  17.982  0.00  0.00    +0.000 A 
ATOM     32  C   UNL     1       2.606  13.649  18.154  0.00  0.00    +0.000 A 
ENDBRANCH   5  27
TORSDOF 4
ENDMDL
MODEL 7
REMARK VINA RESULT:      -7.2      4.744      9.011
REMARK  Name = 
REMARK  4 active torsions:
REMARK  status: ('A' for Active; 'I' for Inactive)
REMARK    1  A    between atoms: C_2  and  C_3
REMARK    2  A    between atoms: C_12  and  C_14
REMARK    3  A    between atoms: N_16  and  C_17
REMARK    4  A    between atoms: C_24  and  C_25
REMARK                            x       y       z     vdW  Elec       q    Type
REMARK                         _______ _______ _______ _____ _____    ______ ____
ROOT
ATOM      1  C   UNL     1       0.660  11.218  19.440  0.00  0.00    +0.000 A 
ATOM      2  C   UNL     1       1.600  12.222  19.528  0.00  0.00    +0.000 A 
ATOM      3  N   UNL     1       1.153  13.278  18.786  0.00  0.00    +0.000 N 
ATOM      4  N   UNL     1      -0.104  13.068  18.339  0.00  0.00    +0.000 NA
ATOM      5  C   UNL     1      -0.412  11.810  18.701  0.00  0.00    +0.000 A 
ENDROOT
BRANCH   1  12
ATOM      6  O   UNL     1       4.401   6.102  16.845  0.00  0.00    +0.000 OA
ATOM      7  C   UNL     1       3.553   5.798  17.690  0.00  0.00    +0.000 C 
ATOM      8  N   UNL     1       2.618   6.746  18.125  0.00  0.00    +0.000 N 
ATOM      9  C   UNL     1       1.610   6.583  19.185  0.00  0.00    +0.000 C 
ATOM     10  C   UNL     1       1.698   7.680  20.248  0.00  0.00    +0.000 C 
ATOM     11  N   UNL     1       1.695   9.003  19.637  0.00  0.00    +0.000 N 
ATOM     12  C   UNL     1       0.719   9.906  20.058  0.00  0.00    +0.000 C 
ATOM     13  O   UNL     1      -0.099   9.593  20.919  0.00  0.00    +0.000 OA
ATOM     14  C   UNL     1       2.721   9.175  18.597  0.00  0.00    +0.000 C 
ATOM     15  C   UNL     1       2.644   8.081  17.524  0.00  0.00    +0.000 C 
BRANCH   7  16
ATOM     16  C   UNL     1       3.506   4.481  18.299  0.00  0.00    +0.000 A 
ATOM     17  C   UNL     1       4.101   3.972  19.436  0.00  0.00    +0.000 A 
ATOM     18  C   UNL     1       3.961   2.562  19.554  0.00  0.00    +0.000 A 
ATOM     19  C   UNL     1       3.108   2.055  18.604  0.00  0.00    +0.000 A 
ATOM     20  S   UNL     1       2.535   3.265  17.542  0.00  0.00    +0.000 S 
ENDBRANCH   7  16
ENDBRANCH   1  12
BRANCH   3  21
ATOM     21  C   UNL     1       1.862  14.472  18.492  0.00  0.00    +0.000 A 
ATOM     22  C   UNL     1       1.284  15.728  18.731  0.00  0.00    +0.000 A 
ATOM     23  C   UNL     1       1.985  16.892  18.413  0.00  0.00    +0.000 A 
ATOM     24  C   UNL     1       3.259  16.808  17.855  0.00  0.00    +0.000 A 
ATOM     25  C   UNL     1       3.843  15.562  17.630  0.00  0.00    +0.000 A 
ATOM     26  C   UNL     1       3.154  14.393  17.957  0.00  0.00    +0.000 A 
ENDBRANCH   3  21
BRANCH   5  27
ATOM     27  C   UNL     1      -1.704  11.231  18.315  0.00  0.00    +0.000 A 
ATOM     28  C   UNL     1      -1.784  10.106  17.481  0.00  0.00    +0.000 A 
ATOM     29  C   UNL     1      -3.023   9.559  17.137  0.00  0.00    +0.000 A 
ATOM     30  C   UNL     1      -4.198  10.144  17.603  0.00  0.00    +0.000 A 
ATOM     31  C   UNL     1      -4.136  11.275  18.414  0.00  0.00    +0.000 A 
ATOM     32  C   UNL     1      -2.897  11.815  18.768  0.00  0.00    +0.000 A 
ENDBRANCH   5  27
TORSDOF 4
ENDMDL
MODEL 8
REMARK VINA RESULT:      -7.1      4.144      9.478
REMARK  Name = 
REMARK  4 active torsions:
REMARK  status: ('A' for Active; 'I' for Inactive)
REMARK    1  A    between atoms: C_2  and  C_3
REMARK    2  A    between atoms: C_12  and  C_14
REMARK    3  A    between atoms: N_16  and  C_17
REMARK    4  A    between atoms: C_24  and  C_25
REMARK                            x       y       z     vdW  Elec       q    Type
REMARK                         _______ _______ _______ _____ _____    ______ ____
ROOT
ATOM      1  C   UNL     1       0.728  12.108  20.266  0.00  0.00    +0.000 A 
ATOM      2  C   UNL     1      -0.486  12.017  20.912  0.00  0.00    +0.000 A 
ATOM      3  N   UNL     1      -0.528  13.002  21.859  0.00  0.00    +0.000 N 
ATOM      4  N   UNL     1       0.538  13.824  21.761  0.00  0.00    +0.000 NA
ATOM      5  C   UNL     1       1.329  13.283  20.818  0.00  0.00    +0.000 A 
ENDROOT
BRANCH   1  12
ATOM      6  O   UNL     1       1.470   5.340  21.000  0.00  0.00    +0.000 OA
ATOM      7  C   UNL     1       2.031   5.859  20.031  0.00  0.00    +0.000 C 
ATOM      8  N   UNL     1       2.095   7.254  19.915  0.00  0.00    +0.000 N 
ATOM      9  C   UNL     1       2.635   8.030  18.787  0.00  0.00    +0.000 C 
ATOM     10  C   UNL     1       1.631   9.050  18.246  0.00  0.00    +0.000 C 
ATOM     11  N   UNL     1       1.091   9.874  19.320  0.00  0.00    +0.000 N 
ATOM     12  C   UNL     1       1.216  11.258  19.195  0.00  0.00    +0.000 C 
ATOM     13  O   UNL     1       1.754  11.756  18.210  0.00  0.00    +0.000 OA
ATOM     14  C   UNL     1       0.526   9.097  20.434  0.00  0.00    +0.000 C 
ATOM     15  C   UNL     1       1.524   8.072  20.986  0.00  0.00    +0.000 C 
BRANCH   7  16
ATOM     16  C   UNL     1       2.607   5.069  18.956  0.00  0.00    +0.000 A 
ATOM     17  C   UNL     1       2.050   4.523  17.817  0.00  0.00    +0.000 A 
ATOM     18  C   UNL     1       2.930   3.636  17.138  0.00  0.00    +0.000 A 
ATOM     19  C   UNL     1       4.196   3.669  17.672  0.00  0.00    +0.000 A 
ATOM     20  S   UNL     1       4.299   4.714  19.020  0.00  0.00    +0.000 S 
ENDBRANCH   7  16
ENDBRANCH   1  12
BRANCH   3  21
ATOM     21  C   UNL     1      -1.535  13.195  22.840  0.00  0.00    +0.000 A 
ATOM     22  C   UNL     1      -2.604  12.293  22.959  0.00  0.00    +0.000 A 
ATOM     23  C   UNL     1      -3.599  12.511  23.913  0.00  0.00    +0.000 A 
ATOM     24  C   UNL     1      -3.534  13.626  24.746  0.00  0.00    +0.000 A 
ATOM     25  C   UNL     1      -2.466  14.516  24.641  0.00  0.00    +0.000 A 
ATOM     26  C   UNL     1      -1.460  14.299  23.700  0.00  0.00    +0.000 A 
ENDBRANCH   3  21
BRANCH   5  27
ATOM     27  C   UNL     1       2.620  13.903  20.499  0.00  0.00    +0.000 A 
ATOM     28  C   UNL     1       2.870  14.471  19.241  0.00  0.00    +0.000 A 
ATOM     29  C   UNL     1       4.100  15.071  18.960  0.00  0.00    +0.000 A 
ATOM     30  C   UNL     1       5.104  15.090  19.925  0.00  0.00    +0.000 A 
ATOM     31  C   UNL     1       4.879  14.509  21.171  0.00  0.00    +0.000 A 
ATOM     32  C   UNL     1       3.645  13.920  21.456  0.00  0.00    +0.000 A 
ENDBRANCH   5  27
TORSDOF 4
ENDMDL
MODEL 9
REMARK VINA RESULT:      -7.1      2.029      3.564
REMARK  Name = 
REMARK  4 active torsions:
REMARK  status: ('A' for Active; 'I' for Inactive)
REMARK    1  A    between atoms: C_2  and  C_3
REMARK    2  A    between atoms: C_12  and  C_14
REMARK    3  A    between atoms: N_16  and  C_17
REMARK    4  A    between atoms: C_24  and  C_25
REMARK                            x       y       z     vdW  Elec       q    Type
REMARK                         _______ _______ _______ _____ _____    ______ ____
ROOT
ATOM      1  C   UNL     1      -0.495  11.345  19.121  0.00  0.00    +0.000 A 
ATOM      2  C   UNL     1      -0.272   9.997  19.311  0.00  0.00    +0.000 A 
ATOM      3  N   UNL     1       1.072   9.777  19.189  0.00  0.00    +0.000 N 
ATOM      4  N   UNL     1       1.752  10.937  19.079  0.00  0.00    +0.000 NA
ATOM      5  C   UNL     1       0.817  11.901  19.006  0.00  0.00    +0.000 A 
ENDROOT
BRANCH   1  12
ATOM      6  O   UNL     1      -3.609  13.079  24.969  0.00  0.00    +0.000 OA
ATOM      7  C   UNL     1      -4.295  13.109  23.943  0.00  0.00    +0.000 C 
ATOM      8  N   UNL     1      -3.796  12.584  22.744  0.00  0.00    +0.000 N 
ATOM      9  C   UNL     1      -4.436  12.625  21.419  0.00  0.00    +0.000 C 
ATOM     10  C   UNL     1      -3.525  13.230  20.349  0.00  0.00    +0.000 C 
ATOM     11  N   UNL     1      -2.218  12.587  20.348  0.00  0.00    +0.000 N 
ATOM     12  C   UNL     1      -1.773  12.032  19.148  0.00  0.00    +0.000 C 
ATOM     13  O   UNL     1      -2.459  12.095  18.132  0.00  0.00    +0.000 OA
ATOM     14  C   UNL     1      -1.566  12.572  21.667  0.00  0.00    +0.000 C 
ATOM     15  C   UNL     1      -2.469  11.966  22.749  0.00  0.00    +0.000 C 
BRANCH   7  16
ATOM     16  C   UNL     1      -5.615  13.715  23.913  0.00  0.00    +0.000 A 
ATOM     17  C   UNL     1      -6.877  13.177  24.072  0.00  0.00    +0.000 A 
ATOM     18  C   UNL     1      -7.916  14.094  23.754  0.00  0.00    +0.000 A 
ATOM     19  C   UNL     1      -7.428  15.360  23.539  0.00  0.00    +0.000 A 
ATOM     20  S   UNL     1      -5.724  15.422  23.658  0.00  0.00    +0.000 S 
ENDBRANCH   7  16
ENDBRANCH   1  12
BRANCH   3  21
ATOM     21  C   UNL     1       1.729   8.519  19.181  0.00  0.00    +0.000 A 
ATOM     22  C   UNL     1       1.741   7.708  20.326  0.00  0.00    +0.000 A 
ATOM     23  C   UNL     1       2.413   6.485  20.309  0.00  0.00    +0.000 A 
ATOM     24  C   UNL     1       3.077   6.070  19.156  0.00  0.00    +0.000 A 
ATOM     25  C   UNL     1       3.055   6.867  18.012  0.00  0.00    +0.000 A 
ATOM     26  C   UNL     1       2.374   8.084  18.016  0.00  0.00    +0.000 A 
ENDBRANCH   3  21
BRANCH   5  27
ATOM     27  C   UNL     1       1.219  13.300  18.819  0.00  0.00    +0.000 A 
ATOM     28  C   UNL     1       2.508  13.641  18.383  0.00  0.00    +0.000 A 
ATOM     29  C   UNL     1       2.869  14.978  18.196  0.00  0.00    +0.000 A 
ATOM     30  C   UNL     1       1.952  15.991  18.463  0.00  0.00    +0.000 A 
ATOM     31  C   UNL     1       0.675  15.670  18.917  0.00  0.00    +0.000 A 
ATOM     32  C   UNL     1       0.311  14.333  19.094  0.00  0.00    +0.000 A 
ENDBRANCH   5  27
TORSDOF 4
ENDMDL
