MODEL 1
REMARK VINA RESULT:      -8.6      0.000      0.000
REMARK  Name = 
REMARK  7 active torsions:
REMARK  status: ('A' for Active; 'I' for Inactive)
REMARK    1  A    between atoms: C_1  and  C_2
REMARK    2  A    between atoms: C_3  and  N_4
REMARK    3  A    between atoms: C_8  and  C_10
REMARK    4  A    between atoms: C_20  and  S_21
REMARK    5  A    between atoms: S_21  and  C_23
REMARK    6  A    between atoms: C_23  and  C_26
REMARK    7  A    between atoms: C_29  and  C_30
REMARK                            x       y       z     vdW  Elec       q    Type
REMARK                         _______ _______ _______ _____ _____    ______ ____
ROOT
ATOM      1  C   UNL     1       1.942  10.088  18.336  0.00  0.00    +0.000 C 
ATOM      2  C   UNL     1       2.007   8.770  19.076  0.00  0.00    +0.000 A 
ATOM      3  C   UNL     1       1.416   8.625  20.349  0.00  0.00    +0.000 A 
ATOM      4  C   UNL     1       1.304   7.361  20.925  0.00  0.00    +0.000 A 
ATOM      5  C   UNL     1       1.881   6.253  20.312  0.00  0.00    +0.000 A 
ATOM      6  C   UNL     1       2.542   6.371  19.083  0.00  0.00    +0.000 A 
ATOM      7  C   UNL     1       2.625   7.639  18.458  0.00  0.00    +0.000 A 
ATOM      8  C   UNL     1       3.364   7.840  17.153  0.00  0.00    +0.000 C 
ENDROOT
BRANCH   3   9
ATOM      9  N   UNL     1       0.875   9.683  21.098  0.00  0.00    +0.000 N 
ATOM     10  C   UNL     1      -0.217  10.479  20.856  0.00  0.00    +0.000 C 
ATOM     11  O   UNL     1      -0.488  11.331  21.697  0.00  0.00    +0.000 OA
ATOM     12  N   UNL     1      -0.843  10.319  19.644  0.00  0.00    +0.000 N 
ATOM     13  C   UNL     1      -1.917  11.071  19.195  0.00  0.00    +0.000 C 
ATOM     14  O   UNL     1      -2.441  11.974  19.838  0.00  0.00    +0.000 OA
ATOM     15  H   UNL     1       1.480  10.132  21.778  0.00  0.00    +0.000 HD
ATOM     16  H   UNL     1      -0.419   9.661  19.012  0.00  0.00    +0.000 HD
BRANCH  13  17
ATOM     17  C   UNL     1      -2.458  10.745  17.842  0.00  0.00    +0.000 A 
ATOM     18  C   UNL     1      -1.803   9.895  16.948  0.00  0.00    +0.000 A 
ATOM     19  F   UNL     1      -0.632   9.327  17.272  0.00  0.00    +0.000 F 
ATOM     20  C   UNL     1      -2.339   9.595  15.691  0.00  0.00    +0.000 A 
ATOM     21  C   UNL     1      -3.555  10.151  15.302  0.00  0.00    +0.000 A 
ATOM     22  C   UNL     1      -4.223  11.006  16.175  0.00  0.00    +0.000 A 
ATOM     23  C   UNL     1      -3.676  11.298  17.428  0.00  0.00    +0.000 A 
ATOM     24  F   UNL     1      -4.385  12.119  18.217  0.00  0.00    +0.000 F 
ENDBRANCH  13  17
ENDBRANCH   3   9
BRANCH   6  25
ATOM     25  S   UNL     1       3.337   4.889  18.397  0.00  0.00    +0.000 S 
ATOM     26  O   UNL     1       3.995   4.108  19.595  0.00  0.00    +0.000 OA
BRANCH  25  27
ATOM     27  C   UNL     1       1.876   3.968  17.810  0.00  0.00    +0.000 C 
ATOM     28  F   UNL     1       0.900   4.822  17.389  0.00  0.00    +0.000 F 
ATOM     29  F   UNL     1       2.241   3.262  16.694  0.00  0.00    +0.000 F 
BRANCH  27  30
ATOM     30  C   UNL     1       1.344   2.988  18.848  0.00  0.00    +0.000 C 
ATOM     31  F   UNL     1       0.053   2.639  18.606  0.00  0.00    +0.000 F 
ATOM     32  F   UNL     1       2.047   1.820  18.798  0.00  0.00    +0.000 F 
ENDBRANCH  27  30
ENDBRANCH  25  27
ENDBRANCH   6  25
TORSDOF 5
ENDMDL
MODEL 2
REMARK VINA RESULT:      -8.4      0.647      1.073
REMARK  Name = 
REMARK  7 active torsions:
REMARK  status: ('A' for Active; 'I' for Inactive)
REMARK    1  A    between atoms: C_1  and  C_2
REMARK    2  A    between atoms: C_3  and  N_4
REMARK    3  A    between atoms: C_8  and  C_10
REMARK    4  A    between atoms: C_20  and  S_21
REMARK    5  A    between atoms: S_21  and  C_23
REMARK    6  A    between atoms: C_23  and  C_26
REMARK    7  A    between atoms: C_29  and  C_30
REMARK                            x       y       z     vdW  Elec       q    Type
REMARK                         _______ _______ _______ _____ _____    ______ ____
ROOT
ATOM      1  C   UNL     1       1.789  10.343  18.382  0.00  0.00    +0.000 C 
ATOM      2  C   UNL     1       1.817   9.091  19.232  0.00  0.00    +0.000 A 
ATOM      3  C   UNL     1       1.177   9.055  20.489  0.00  0.00    +0.000 A 
ATOM      4  C   UNL     1       1.034   7.843  21.163  0.00  0.00    +0.000 A 
ATOM      5  C   UNL     1       1.627   6.686  20.666  0.00  0.00    +0.000 A 
ATOM      6  C   UNL     1       2.335   6.699  19.458  0.00  0.00    +0.000 A 
ATOM      7  C   UNL     1       2.449   7.911  18.734  0.00  0.00    +0.000 A 
ATOM      8  C   UNL     1       3.239   7.999  17.446  0.00  0.00    +0.000 C 
ENDROOT
BRANCH   3   9
ATOM      9  N   UNL     1       0.616  10.173  21.126  0.00  0.00    +0.000 N 
ATOM     10  C   UNL     1      -0.473  10.939  20.787  0.00  0.00    +0.000 C 
ATOM     11  O   UNL     1      -0.766  11.862  21.542  0.00  0.00    +0.000 OA
ATOM     12  N   UNL     1      -1.069  10.668  19.580  0.00  0.00    +0.000 N 
ATOM     13  C   UNL     1      -2.134  11.371  19.039  0.00  0.00    +0.000 C 
ATOM     14  O   UNL     1      -2.675  12.326  19.585  0.00  0.00    +0.000 OA
ATOM     15  H   UNL     1       1.202  10.685  21.777  0.00  0.00    +0.000 HD
ATOM     16  H   UNL     1      -0.628   9.957  19.020  0.00  0.00    +0.000 HD
BRANCH  13  17
ATOM     17  C   UNL     1      -2.641  10.922  17.709  0.00  0.00    +0.000 A 
ATOM     18  C   UNL     1      -1.950  10.016  16.900  0.00  0.00    +0.000 A 
ATOM     19  F   UNL     1      -0.773   9.504  17.291  0.00  0.00    +0.000 F 
ATOM     20  C   UNL     1      -2.454   9.601  15.664  0.00  0.00    +0.000 A 
ATOM     21  C   UNL     1      -3.675  10.095  15.208  0.00  0.00    +0.000 A 
ATOM     22  C   UNL     1      -4.378  11.003  15.995  0.00  0.00    +0.000 A 
ATOM     23  C   UNL     1      -3.862  11.410  17.229  0.00  0.00    +0.000 A 
ATOM     24  F   UNL     1      -4.603  12.277  17.934  0.00  0.00    +0.000 F 
ENDBRANCH  13  17
ENDBRANCH   3   9
BRANCH   6  25
ATOM     25  S   UNL     1       3.145   5.162  18.929  0.00  0.00    +0.000 S 
ATOM     26  O   UNL     1       3.550   4.369  20.227  0.00  0.00    +0.000 OA
BRANCH  25  27
ATOM     27  C   UNL     1       1.750   4.311  18.118  0.00  0.00    +0.000 C 
ATOM     28  F   UNL     1       0.844   3.877  19.039  0.00  0.00    +0.000 F 
ATOM     29  F   UNL     1       1.077   5.232  17.358  0.00  0.00    +0.000 F 
BRANCH  27  30
ATOM     30  C   UNL     1       2.203   3.175  17.210  0.00  0.00    +0.000 C 
ATOM     31  F   UNL     1       3.451   3.386  16.714  0.00  0.00    +0.000 F 
ATOM     32  F   UNL     1       2.290   2.012  17.917  0.00  0.00    +0.000 F 
ENDBRANCH  27  30
ENDBRANCH  25  27
ENDBRANCH   6  25
TORSDOF 5
ENDMDL
MODEL 3
REMARK VINA RESULT:      -8.4      0.832      1.187
REMARK  Name = 
REMARK  7 active torsions:
REMARK  status: ('A' for Active; 'I' for Inactive)
REMARK    1  A    between atoms: C_1  and  C_2
REMARK    2  A    between atoms: C_3  and  N_4
REMARK    3  A    between atoms: C_8  and  C_10
REMARK    4  A    between atoms: C_20  and  S_21
REMARK    5  A    between atoms: S_21  and  C_23
REMARK    6  A    between atoms: C_23  and  C_26
REMARK    7  A    between atoms: C_29  and  C_30
REMARK                            x       y       z     vdW  Elec       q    Type
REMARK                         _______ _______ _______ _____ _____    ______ ____
ROOT
ATOM      1  C   UNL     1       2.089  10.049  18.389  0.00  0.00    +0.000 C 
ATOM      2  C   UNL     1       1.970   8.803  19.240  0.00  0.00    +0.000 A 
ATOM      3  C   UNL     1       1.351   8.850  20.508  0.00  0.00    +0.000 A 
ATOM      4  C   UNL     1       1.066   7.666  21.187  0.00  0.00    +0.000 A 
ATOM      5  C   UNL     1       1.495   6.443  20.682  0.00  0.00    +0.000 A 
ATOM      6  C   UNL     1       2.178   6.364  19.462  0.00  0.00    +0.000 A 
ATOM      7  C   UNL     1       2.436   7.551  18.734  0.00  0.00    +0.000 A 
ATOM      8  C   UNL     1       3.208   7.537  17.433  0.00  0.00    +0.000 C 
ENDROOT
BRANCH   3   9
ATOM      9  N   UNL     1       0.951  10.031  21.152  0.00  0.00    +0.000 N 
ATOM     10  C   UNL     1      -0.091  10.885  20.881  0.00  0.00    +0.000 C 
ATOM     11  O   UNL     1      -0.233  11.850  21.626  0.00  0.00    +0.000 OA
ATOM     12  N   UNL     1      -0.811  10.639  19.739  0.00  0.00    +0.000 N 
ATOM     13  C   UNL     1      -1.852  11.423  19.266  0.00  0.00    +0.000 C 
ATOM     14  O   UNL     1      -2.256  12.437  19.824  0.00  0.00    +0.000 OA
ATOM     15  H   UNL     1       1.635  10.503  21.733  0.00  0.00    +0.000 HD
ATOM     16  H   UNL     1      -0.486   9.876  19.168  0.00  0.00    +0.000 HD
BRANCH  13  17
ATOM     17  C   UNL     1      -2.512  10.987  18.000  0.00  0.00    +0.000 A 
ATOM     18  C   UNL     1      -1.906  10.119  17.089  0.00  0.00    +0.000 A 
ATOM     19  F   UNL     1      -0.677   9.632  17.316  0.00  0.00    +0.000 F 
ATOM     20  C   UNL     1      -2.552   9.716  15.916  0.00  0.00    +0.000 A 
ATOM     21  C   UNL     1      -3.832  10.185  15.629  0.00  0.00    +0.000 A 
ATOM     22  C   UNL     1      -4.452  11.057  16.520  0.00  0.00    +0.000 A 
ATOM     23  C   UNL     1      -3.795  11.452  17.689  0.00  0.00    +0.000 A 
ATOM     24  F   UNL     1      -4.464  12.283  18.503  0.00  0.00    +0.000 F 
ENDBRANCH  13  17
ENDBRANCH   3   9
BRANCH   6  25
ATOM     25  S   UNL     1       2.774   4.736  18.923  0.00  0.00    +0.000 S 
ATOM     26  O   UNL     1       4.243   4.567  19.459  0.00  0.00    +0.000 OA
BRANCH  25  27
ATOM     27  C   UNL     1       1.660   3.643  19.869  0.00  0.00    +0.000 C 
ATOM     28  F   UNL     1       2.077   3.528  21.162  0.00  0.00    +0.000 F 
ATOM     29  F   UNL     1       0.433   4.247  19.939  0.00  0.00    +0.000 F 
BRANCH  27  30
ATOM     30  C   UNL     1       1.489   2.276  19.218  0.00  0.00    +0.000 C 
ATOM     31  F   UNL     1       0.259   2.128  18.660  0.00  0.00    +0.000 F 
ATOM     32  F   UNL     1       2.372   2.129  18.188  0.00  0.00    +0.000 F 
ENDBRANCH  27  30
ENDBRANCH  25  27
ENDBRANCH   6  25
TORSDOF 5
ENDMDL
MODEL 4
REMARK VINA RESULT:      -8.3      0.622      1.834
REMARK  Name = 
REMARK  7 active torsions:
REMARK  status: ('A' for Active; 'I' for Inactive)
REMARK    1  A    between atoms: C_1  and  C_2
REMARK    2  A    between atoms: C_3  and  N_4
REMARK    3  A    between atoms: C_8  and  C_10
REMARK    4  A    between atoms: C_20  and  S_21
REMARK    5  A    between atoms: S_21  and  C_23
REMARK    6  A    between atoms: C_23  and  C_26
REMARK    7  A    between atoms: C_29  and  C_30
REMARK                            x       y       z     vdW  Elec       q    Type
REMARK                         _______ _______ _______ _____ _____    ______ ____
ROOT
ATOM      1  C   UNL     1       1.857  10.279  18.366  0.00  0.00    +0.000 C 
ATOM      2  C   UNL     1       1.855   9.042  19.238  0.00  0.00    +0.000 A 
ATOM      3  C   UNL     1       1.216   9.044  20.496  0.00  0.00    +0.000 A 
ATOM      4  C   UNL     1       1.045   7.849  21.193  0.00  0.00    +0.000 A 
ATOM      5  C   UNL     1       1.607   6.669  20.717  0.00  0.00    +0.000 A 
ATOM      6  C   UNL     1       2.314   6.643  19.508  0.00  0.00    +0.000 A 
ATOM      7  C   UNL     1       2.457   7.837  18.761  0.00  0.00    +0.000 A 
ATOM      8  C   UNL     1       3.247   7.883  17.471  0.00  0.00    +0.000 C 
ENDROOT
BRANCH   3   9
ATOM      9  N   UNL     1       0.684  10.188  21.113  0.00  0.00    +0.000 N 
ATOM     10  C   UNL     1      -0.398  10.963  20.773  0.00  0.00    +0.000 C 
ATOM     11  O   UNL     1      -0.664  11.909  21.508  0.00  0.00    +0.000 OA
ATOM     12  N   UNL     1      -1.018  10.671  19.583  0.00  0.00    +0.000 N 
ATOM     13  C   UNL     1      -2.081  11.377  19.042  0.00  0.00    +0.000 C 
ATOM     14  O   UNL     1      -2.597  12.354  19.572  0.00  0.00    +0.000 OA
ATOM     15  H   UNL     1       1.290  10.706  21.741  0.00  0.00    +0.000 HD
ATOM     16  H   UNL     1      -0.598   9.938  19.035  0.00  0.00    +0.000 HD
BRANCH  13  17
ATOM     17  C   UNL     1      -2.617  10.902  17.732  0.00  0.00    +0.000 A 
ATOM     18  C   UNL     1      -3.839  11.334  17.211  0.00  0.00    +0.000 A 
ATOM     19  F   UNL     1      -4.602  12.210  17.882  0.00  0.00    +0.000 F 
ATOM     20  C   UNL     1      -4.312  10.882  15.975  0.00  0.00    +0.000 A 
ATOM     21  C   UNL     1      -3.560   9.977  15.230  0.00  0.00    +0.000 A 
ATOM     22  C   UNL     1      -2.342   9.528  15.733  0.00  0.00    +0.000 A 
ATOM     23  C   UNL     1      -1.881   9.986  16.970  0.00  0.00    +0.000 A 
ATOM     24  F   UNL     1      -0.693   9.518  17.381  0.00  0.00    +0.000 F 
ENDBRANCH  13  17
ENDBRANCH   3   9
BRANCH   6  25
ATOM     25  S   UNL     1       3.085   5.076  19.006  0.00  0.00    +0.000 S 
ATOM     26  O   UNL     1       3.444   4.284  20.317  0.00  0.00    +0.000 OA
BRANCH  25  27
ATOM     27  C   UNL     1       1.678   4.261  18.179  0.00  0.00    +0.000 C 
ATOM     28  F   UNL     1       0.722   3.906  19.084  0.00  0.00    +0.000 F 
ATOM     29  F   UNL     1       1.075   5.183  17.362  0.00  0.00    +0.000 F 
BRANCH  27  30
ATOM     30  C   UNL     1       2.106   3.071  17.329  0.00  0.00    +0.000 C 
ATOM     31  F   UNL     1       3.193   3.355  16.565  0.00  0.00    +0.000 F 
ATOM     32  F   UNL     1       2.490   2.035  18.129  0.00  0.00    +0.000 F 
ENDBRANCH  27  30
ENDBRANCH  25  27
ENDBRANCH   6  25
TORSDOF 5
ENDMDL
MODEL 5
REMARK VINA RESULT:      -8.2      1.288      2.147
REMARK  Name = 
REMARK  7 active torsions:
REMARK  status: ('A' for Active; 'I' for Inactive)
REMARK    1  A    between atoms: C_1  and  C_2
REMARK    2  A    between atoms: C_3  and  N_4
REMARK    3  A    between atoms: C_8  and  C_10
REMARK    4  A    between atoms: C_20  and  S_21
REMARK    5  A    between atoms: S_21  and  C_23
REMARK    6  A    between atoms: C_23  and  C_26
REMARK    7  A    between atoms: C_29  and  C_30
REMARK                            x       y       z     vdW  Elec       q    Type
REMARK                         _______ _______ _______ _____ _____    ______ ____
ROOT
ATOM      1  C   UNL     1       2.358   9.759  18.218  0.00  0.00    +0.000 C 
ATOM      2  C   UNL     1       2.122   8.561  19.113  0.00  0.00    +0.000 A 
ATOM      3  C   UNL     1       1.553   8.716  20.395  0.00  0.00    +0.000 A 
ATOM      4  C   UNL     1       1.154   7.594  21.120  0.00  0.00    +0.000 A 
ATOM      5  C   UNL     1       1.422   6.315  20.643  0.00  0.00    +0.000 A 
ATOM      6  C   UNL     1       2.054   6.122  19.408  0.00  0.00    +0.000 A 
ATOM      7  C   UNL     1       2.424   7.249  18.634  0.00  0.00    +0.000 A 
ATOM      8  C   UNL     1       3.148   7.107  17.314  0.00  0.00    +0.000 C 
ENDROOT
BRANCH   3   9
ATOM      9  N   UNL     1       1.312   9.954  21.012  0.00  0.00    +0.000 N 
ATOM     10  C   UNL     1       0.315  10.874  20.803  0.00  0.00    +0.000 C 
ATOM     11  O   UNL     1       0.325  11.881  21.505  0.00  0.00    +0.000 OA
ATOM     12  N   UNL     1      -0.540  10.633  19.756  0.00  0.00    +0.000 N 
ATOM     13  C   UNL     1      -1.565  11.475  19.351  0.00  0.00    +0.000 C 
ATOM     14  O   UNL     1      -1.831  12.543  19.891  0.00  0.00    +0.000 OA
ATOM     15  H   UNL     1       2.089  10.397  21.493  0.00  0.00    +0.000 HD
ATOM     16  H   UNL     1      -0.336   9.821  19.197  0.00  0.00    +0.000 HD
BRANCH  13  17
ATOM     17  C   UNL     1      -2.386  11.035  18.185  0.00  0.00    +0.000 A 
ATOM     18  C   UNL     1      -3.699  11.463  17.977  0.00  0.00    +0.000 A 
ATOM     19  F   UNL     1      -4.293  12.303  18.838  0.00  0.00    +0.000 F 
ATOM     20  C   UNL     1      -4.442  11.045  16.868  0.00  0.00    +0.000 A 
ATOM     21  C   UNL     1      -3.876  10.178  15.937  0.00  0.00    +0.000 A 
ATOM     22  C   UNL     1      -2.571   9.733  16.127  0.00  0.00    +0.000 A 
ATOM     23  C   UNL     1      -1.839  10.158  17.241  0.00  0.00    +0.000 A 
ATOM     24  F   UNL     1      -0.584   9.696  17.347  0.00  0.00    +0.000 F 
ENDBRANCH  13  17
ENDBRANCH   3   9
BRANCH   6  25
ATOM     25  S   UNL     1       2.439   4.420  18.905  0.00  0.00    +0.000 S 
ATOM     26  O   UNL     1       3.919   4.119  19.346  0.00  0.00    +0.000 OA
BRANCH  25  27
ATOM     27  C   UNL     1       1.293   3.487  19.975  0.00  0.00    +0.000 C 
ATOM     28  F   UNL     1       0.196   4.237  20.281  0.00  0.00    +0.000 F 
ATOM     29  F   UNL     1       0.812   2.425  19.256  0.00  0.00    +0.000 F 
BRANCH  27  30
ATOM     30  C   UNL     1       1.968   2.953  21.232  0.00  0.00    +0.000 C 
ATOM     31  F   UNL     1       2.606   3.933  21.924  0.00  0.00    +0.000 F 
ATOM     32  F   UNL     1       1.033   2.456  22.094  0.00  0.00    +0.000 F 
ENDBRANCH  27  30
ENDBRANCH  25  27
ENDBRANCH   6  25
TORSDOF 5
ENDMDL
MODEL 6
REMARK VINA RESULT:      -8.1      1.776      2.600
REMARK  Name = 
REMARK  7 active torsions:
REMARK  status: ('A' for Active; 'I' for Inactive)
REMARK    1  A    between atoms: C_1  and  C_2
REMARK    2  A    between atoms: C_3  and  N_4
REMARK    3  A    between atoms: C_8  and  C_10
REMARK    4  A    between atoms: C_20  and  S_21
REMARK    5  A    between atoms: S_21  and  C_23
REMARK    6  A    between atoms: C_23  and  C_26
REMARK    7  A    between atoms: C_29  and  C_30
REMARK                            x       y       z     vdW  Elec       q    Type
REMARK                         _______ _______ _______ _____ _____    ______ ____
ROOT
ATOM      1  C   UNL     1       3.019   8.353  18.415  0.00  0.00    +0.000 C 
ATOM      2  C   UNL     1       2.453   7.153  19.144  0.00  0.00    +0.000 A 
ATOM      3  C   UNL     1       1.849   7.294  20.411  0.00  0.00    +0.000 A 
ATOM      4  C   UNL     1       1.154   6.225  20.974  0.00  0.00    +0.000 A 
ATOM      5  C   UNL     1       1.154   4.979  20.354  0.00  0.00    +0.000 A 
ATOM      6  C   UNL     1       1.808   4.781  19.132  0.00  0.00    +0.000 A 
ATOM      7  C   UNL     1       2.479   5.867  18.519  0.00  0.00    +0.000 A 
ATOM      8  C   UNL     1       3.241   5.706  17.222  0.00  0.00    +0.000 C 
ENDROOT
BRANCH   3   9
ATOM      9  N   UNL     1       1.856   8.478  21.165  0.00  0.00    +0.000 N 
ATOM     10  C   UNL     1       1.048   9.587  21.093  0.00  0.00    +0.000 C 
ATOM     11  O   UNL     1       1.259  10.488  21.898  0.00  0.00    +0.000 OA
ATOM     12  N   UNL     1       0.148   9.629  20.057  0.00  0.00    +0.000 N 
ATOM     13  C   UNL     1      -0.704  10.688  19.782  0.00  0.00    +0.000 C 
ATOM     14  O   UNL     1      -0.754  11.719  20.443  0.00  0.00    +0.000 OA
ATOM     15  H   UNL     1       2.709   8.711  21.664  0.00  0.00    +0.000 HD
ATOM     16  H   UNL     1       0.186   8.861  19.407  0.00  0.00    +0.000 HD
BRANCH  13  17
ATOM     17  C   UNL     1      -1.611  10.543  18.605  0.00  0.00    +0.000 A 
ATOM     18  C   UNL     1      -2.889  11.104  18.559  0.00  0.00    +0.000 A 
ATOM     19  F   UNL     1      -3.370  11.807  19.595  0.00  0.00    +0.000 F 
ATOM     20  C   UNL     1      -3.713  10.964  17.438  0.00  0.00    +0.000 A 
ATOM     21  C   UNL     1      -3.266  10.249  16.329  0.00  0.00    +0.000 A 
ATOM     22  C   UNL     1      -1.997   9.677  16.355  0.00  0.00    +0.000 A 
ATOM     23  C   UNL     1      -1.184   9.823  17.483  0.00  0.00    +0.000 A 
ATOM     24  F   UNL     1       0.030   9.254  17.427  0.00  0.00    +0.000 F 
ENDBRANCH  13  17
ENDBRANCH   3   9
BRANCH   6  25
ATOM     25  S   UNL     1       1.827   3.103  18.438  0.00  0.00    +0.000 S 
ATOM     26  O   UNL     1       1.916   3.238  16.873  0.00  0.00    +0.000 OA
BRANCH  25  27
ATOM     27  C   UNL     1       3.423   2.494  19.080  0.00  0.00    +0.000 C 
ATOM     28  F   UNL     1       3.639   1.203  18.697  0.00  0.00    +0.000 F 
ATOM     29  F   UNL     1       4.422   3.218  18.484  0.00  0.00    +0.000 F 
BRANCH  27  30
ATOM     30  C   UNL     1       3.546   2.652  20.590  0.00  0.00    +0.000 C 
ATOM     31  F   UNL     1       2.457   2.171  21.244  0.00  0.00    +0.000 F 
ATOM     32  F   UNL     1       4.599   1.919  21.056  0.00  0.00    +0.000 F 
ENDBRANCH  27  30
ENDBRANCH  25  27
ENDBRANCH   6  25
TORSDOF 5
ENDMDL
MODEL 7
REMARK VINA RESULT:      -8.1      1.634      2.382
REMARK  Name = 
REMARK  7 active torsions:
REMARK  status: ('A' for Active; 'I' for Inactive)
REMARK    1  A    between atoms: C_1  and  C_2
REMARK    2  A    between atoms: C_3  and  N_4
REMARK    3  A    between atoms: C_8  and  C_10
REMARK    4  A    between atoms: C_20  and  S_21
REMARK    5  A    between atoms: S_21  and  C_23
REMARK    6  A    between atoms: C_23  and  C_26
REMARK    7  A    between atoms: C_29  and  C_30
REMARK                            x       y       z     vdW  Elec       q    Type
REMARK                         _______ _______ _______ _____ _____    ______ ____
ROOT
ATOM      1  C   UNL     1       2.591   9.125  18.342  0.00  0.00    +0.000 C 
ATOM      2  C   UNL     1       2.239   7.891  19.145  0.00  0.00    +0.000 A 
ATOM      3  C   UNL     1       1.665   8.003  20.430  0.00  0.00    +0.000 A 
ATOM      4  C   UNL     1       1.159   6.871  21.067  0.00  0.00    +0.000 A 
ATOM      5  C   UNL     1       1.324   5.611  20.501  0.00  0.00    +0.000 A 
ATOM      6  C   UNL     1       1.956   5.453  19.261  0.00  0.00    +0.000 A 
ATOM      7  C   UNL     1       2.434   6.595  18.575  0.00  0.00    +0.000 A 
ATOM      8  C   UNL     1       3.165   6.486  17.255  0.00  0.00    +0.000 C 
ENDROOT
BRANCH   3   9
ATOM      9  N   UNL     1       1.522   9.210  21.132  0.00  0.00    +0.000 N 
ATOM     10  C   UNL     1       0.601  10.220  20.991  0.00  0.00    +0.000 C 
ATOM     11  O   UNL     1       0.689  11.171  21.761  0.00  0.00    +0.000 OA
ATOM     12  N   UNL     1      -0.267  10.121  19.932  0.00  0.00    +0.000 N 
ATOM     13  C   UNL     1      -1.220  11.069  19.589  0.00  0.00    +0.000 C 
ATOM     14  O   UNL     1      -1.401  12.114  20.203  0.00  0.00    +0.000 OA
ATOM     15  H   UNL     1       2.329   9.555  21.641  0.00  0.00    +0.000 HD
ATOM     16  H   UNL     1      -0.126   9.337  19.317  0.00  0.00    +0.000 HD
BRANCH  13  17
ATOM     17  C   UNL     1      -2.070  10.778  18.397  0.00  0.00    +0.000 A 
ATOM     18  C   UNL     1      -3.382  11.241  18.269  0.00  0.00    +0.000 A 
ATOM     19  F   UNL     1      -3.948  11.979  19.237  0.00  0.00    +0.000 F 
ATOM     20  C   UNL     1      -4.152  10.966  17.136  0.00  0.00    +0.000 A 
ATOM     21  C   UNL     1      -3.615  10.209  16.096  0.00  0.00    +0.000 A 
ATOM     22  C   UNL     1      -2.312   9.732  16.204  0.00  0.00    +0.000 A 
ATOM     23  C   UNL     1      -1.553  10.014  17.344  0.00  0.00    +0.000 A 
ATOM     24  F   UNL     1      -0.302   9.531  17.368  0.00  0.00    +0.000 F 
ENDBRANCH  13  17
ENDBRANCH   3   9
BRANCH   6  25
ATOM     25  S   UNL     1       2.202   3.764  18.640  0.00  0.00    +0.000 S 
ATOM     26  O   UNL     1       1.932   3.785  17.090  0.00  0.00    +0.000 OA
BRANCH  25  27
ATOM     27  C   UNL     1       3.991   3.557  18.935  0.00  0.00    +0.000 C 
ATOM     28  F   UNL     1       4.702   3.808  17.799  0.00  0.00    +0.000 F 
ATOM     29  F   UNL     1       4.387   4.518  19.827  0.00  0.00    +0.000 F 
BRANCH  27  30
ATOM     30  C   UNL     1       4.335   2.189  19.512  0.00  0.00    +0.000 C 
ATOM     31  F   UNL     1       4.140   2.140  20.856  0.00  0.00    +0.000 F 
ATOM     32  F   UNL     1       3.508   1.236  18.993  0.00  0.00    +0.000 F 
ENDBRANCH  27  30
ENDBRANCH  25  27
ENDBRANCH   6  25
TORSDOF 5
ENDMDL
MODEL 8
REMARK VINA RESULT:      -8.1      1.244      2.178
REMARK  Name = 
REMARK  7 active torsions:
REMARK  status: ('A' for Active; 'I' for Inactive)
REMARK    1  A    between atoms: C_1  and  C_2
REMARK    2  A    between atoms: C_3  and  N_4
REMARK    3  A    between atoms: C_8  and  C_10
REMARK    4  A    between atoms: C_20  and  S_21
REMARK    5  A    between atoms: S_21  and  C_23
REMARK    6  A    between atoms: C_23  and  C_26
REMARK    7  A    between atoms: C_29  and  C_30
REMARK                            x       y       z     vdW  Elec       q    Type
REMARK                         _______ _______ _______ _____ _____    ______ ____
ROOT
ATOM      1  C   UNL     1       1.912  10.429  18.333  0.00  0.00    +0.000 C 
ATOM      2  C   UNL     1       1.830   9.246  19.273  0.00  0.00    +0.000 A 
ATOM      3  C   UNL     1       1.244   9.376  20.550  0.00  0.00    +0.000 A 
ATOM      4  C   UNL     1       0.990   8.241  21.319  0.00  0.00    +0.000 A 
ATOM      5  C   UNL     1       1.421   6.989  20.890  0.00  0.00    +0.000 A 
ATOM      6  C   UNL     1       2.073   6.831  19.660  0.00  0.00    +0.000 A 
ATOM      7  C   UNL     1       2.297   7.966  18.843  0.00  0.00    +0.000 A 
ATOM      8  C   UNL     1       3.036   7.868  17.526  0.00  0.00    +0.000 C 
ENDROOT
BRANCH   3   9
ATOM      9  N   UNL     1       0.847  10.596  21.120  0.00  0.00    +0.000 N 
ATOM     10  C   UNL     1      -0.219  11.412  20.826  0.00  0.00    +0.000 C 
ATOM     11  O   UNL     1      -0.351  12.427  21.503  0.00  0.00    +0.000 OA
ATOM     12  N   UNL     1      -0.976  11.070  19.733  0.00  0.00    +0.000 N 
ATOM     13  C   UNL     1      -2.047  11.802  19.243  0.00  0.00    +0.000 C 
ATOM     14  O   UNL     1      -2.448  12.849  19.739  0.00  0.00    +0.000 OA
ATOM     15  H   UNL     1       1.544  11.120  21.639  0.00  0.00    +0.000 HD
ATOM     16  H   UNL     1      -0.658  10.272  19.208  0.00  0.00    +0.000 HD
BRANCH  13  17
ATOM     17  C   UNL     1      -2.744  11.264  18.037  0.00  0.00    +0.000 A 
ATOM     18  C   UNL     1      -4.050  11.620  17.694  0.00  0.00    +0.000 A 
ATOM     19  F   UNL     1      -4.752  12.475  18.453  0.00  0.00    +0.000 F 
ATOM     20  C   UNL     1      -4.675  11.110  16.552  0.00  0.00    +0.000 A 
ATOM     21  C   UNL     1      -3.994  10.223  15.722  0.00  0.00    +0.000 A 
ATOM     22  C   UNL     1      -2.693   9.849  16.048  0.00  0.00    +0.000 A 
ATOM     23  C   UNL     1      -2.080  10.365  17.194  0.00  0.00    +0.000 A 
ATOM     24  F   UNL     1      -0.821   9.968  17.433  0.00  0.00    +0.000 F 
ENDBRANCH  13  17
ENDBRANCH   3   9
BRANCH   6  25
ATOM     25  S   UNL     1       2.674   5.174  19.221  0.00  0.00    +0.000 S 
ATOM     26  O   UNL     1       4.197   5.104  19.611  0.00  0.00    +0.000 OA
BRANCH  25  27
ATOM     27  C   UNL     1       1.709   4.151  20.383  0.00  0.00    +0.000 C 
ATOM     28  F   UNL     1       2.186   4.278  21.654  0.00  0.00    +0.000 F 
ATOM     29  F   UNL     1       0.433   4.648  20.427  0.00  0.00    +0.000 F 
BRANCH  27  30
ATOM     30  C   UNL     1       1.643   2.688  19.960  0.00  0.00    +0.000 C 
ATOM     31  F   UNL     1       1.631   1.849  21.029  0.00  0.00    +0.000 F 
ATOM     32  F   UNL     1       0.477   2.442  19.296  0.00  0.00    +0.000 F 
ENDBRANCH  27  30
ENDBRANCH  25  27
ENDBRANCH   6  25
TORSDOF 5
ENDMDL
MODEL 9
REMARK VINA RESULT:      -8.1      3.777      5.143
REMARK  Name = 
REMARK  7 active torsions:
REMARK  status: ('A' for Active; 'I' for Inactive)
REMARK    1  A    between atoms: C_1  and  C_2
REMARK    2  A    between atoms: C_3  and  N_4
REMARK    3  A    between atoms: C_8  and  C_10
REMARK    4  A    between atoms: C_20  and  S_21
REMARK    5  A    between atoms: S_21  and  C_23
REMARK    6  A    between atoms: C_23  and  C_26
REMARK    7  A    between atoms: C_29  and  C_30
REMARK                            x       y       z     vdW  Elec       q    Type
REMARK                         _______ _______ _______ _____ _____    ______ ____
ROOT
ATOM      1  C   UNL     1       2.061   4.142  21.197  0.00  0.00    +0.000 C 
ATOM      2  C   UNL     1       2.465   5.156  20.148  0.00  0.00    +0.000 A 
ATOM      3  C   UNL     1       1.889   6.444  20.128  0.00  0.00    +0.000 A 
ATOM      4  C   UNL     1       2.415   7.428  19.292  0.00  0.00    +0.000 A 
ATOM      5  C   UNL     1       3.424   7.118  18.386  0.00  0.00    +0.000 A 
ATOM      6  C   UNL     1       3.969   5.829  18.325  0.00  0.00    +0.000 A 
ATOM      7  C   UNL     1       3.482   4.828  19.200  0.00  0.00    +0.000 A 
ATOM      8  C   UNL     1       3.998   3.406  19.152  0.00  0.00    +0.000 C 
ENDROOT
BRANCH   3   9
ATOM      9  N   UNL     1       0.814   6.845  20.937  0.00  0.00    +0.000 N 
ATOM     10  C   UNL     1       0.236   8.080  21.103  0.00  0.00    +0.000 C 
ATOM     11  O   UNL     1      -0.722   8.153  21.867  0.00  0.00    +0.000 OA
ATOM     12  N   UNL     1       0.849   9.139  20.480  0.00  0.00    +0.000 N 
ATOM     13  C   UNL     1       0.453  10.464  20.582  0.00  0.00    +0.000 C 
ATOM     14  O   UNL     1      -0.505  10.845  21.244  0.00  0.00    +0.000 OA
ATOM     15  H   UNL     1       0.564   6.245  21.716  0.00  0.00    +0.000 HD
ATOM     16  H   UNL     1       1.702   8.929  19.988  0.00  0.00    +0.000 HD
BRANCH  13  17
ATOM     17  C   UNL     1       1.253  11.473  19.828  0.00  0.00    +0.000 A 
ATOM     18  C   UNL     1       1.608  12.714  20.363  0.00  0.00    +0.000 A 
ATOM     19  F   UNL     1       1.231  13.061  21.603  0.00  0.00    +0.000 F 
ATOM     20  C   UNL     1       2.370  13.636  19.639  0.00  0.00    +0.000 A 
ATOM     21  C   UNL     1       2.795  13.328  18.349  0.00  0.00    +0.000 A 
ATOM     22  C   UNL     1       2.448  12.100  17.793  0.00  0.00    +0.000 A 
ATOM     23  C   UNL     1       1.685  11.188  18.527  0.00  0.00    +0.000 A 
ATOM     24  F   UNL     1       1.402  10.021  17.928  0.00  0.00    +0.000 F 
ENDBRANCH  13  17
ENDBRANCH   3   9
BRANCH   6  25
ATOM     25  S   UNL     1       5.224   5.494  17.056  0.00  0.00    +0.000 S 
ATOM     26  O   UNL     1       5.089   6.607  15.951  0.00  0.00    +0.000 OA
BRANCH  25  27
ATOM     27  C   UNL     1       6.751   5.780  18.012  0.00  0.00    +0.000 C 
ATOM     28  F   UNL     1       6.491   5.793  19.350  0.00  0.00    +0.000 F 
ATOM     29  F   UNL     1       7.580   4.707  17.817  0.00  0.00    +0.000 F 
BRANCH  27  30
ATOM     30  C   UNL     1       7.487   7.043  17.579  0.00  0.00    +0.000 C 
ATOM     31  F   UNL     1       6.658   8.118  17.513  0.00  0.00    +0.000 F 
ATOM     32  F   UNL     1       8.435   7.376  18.502  0.00  0.00    +0.000 F 
ENDBRANCH  27  30
ENDBRANCH  25  27
ENDBRANCH   6  25
TORSDOF 5
ENDMDL
