MODEL 1
REMARK VINA RESULT:      -5.7      0.000      0.000
REMARK  Name = 
REMARK  9 active torsions:
REMARK  status: ('A' for Active; 'I' for Inactive)
REMARK    1  A    between atoms: C_1  and  O_2
REMARK    2  A    between atoms: O_2  and  C_3
REMARK    3  A    between atoms: C_6  and  N_7
REMARK    4  A    between atoms: C_8  and  S_9
REMARK    5  A    between atoms: N_10  and  C_11
REMARK    6  A    between atoms: C_11  and  C_12
REMARK    7  A    between atoms: C_12  and  N_13
REMARK    8  A    between atoms: C_19  and  O_20
REMARK    9  A    between atoms: O_20  and  C_21
REMARK                            x       y       z     vdW  Elec       q    Type
REMARK                         _______ _______ _______ _____ _____    ______ ____
ROOT
ATOM      1  N   UNL     1       2.750   6.409  19.642  0.00  0.00    +0.000 NA
ATOM      2  C   UNL     1       2.217   7.580  19.415  0.00  0.00    +0.000 C 
ATOM      3  N   UNL     1       1.525   8.183  20.443  0.00  0.00    +0.000 N 
ATOM      4  H   UNL     1       1.304   7.519  21.181  0.00  0.00    +0.000 HD
ENDROOT
BRANCH   1   8
ATOM      5  C   UNL     1       4.848   4.145  16.733  0.00  0.00    +0.000 A 
ATOM      6  C   UNL     1       5.484   5.174  17.418  0.00  0.00    +0.000 A 
ATOM      7  C   UNL     1       4.819   5.873  18.424  0.00  0.00    +0.000 A 
ATOM      8  C   UNL     1       3.463   5.643  18.694  0.00  0.00    +0.000 A 
ATOM      9  C   UNL     1       2.832   4.564  18.033  0.00  0.00    +0.000 A 
ATOM     10  C   UNL     1       3.533   3.818  17.066  0.00  0.00    +0.000 A 
BRANCH   5  12
ATOM     11  C   UNL     1       6.590   4.336  15.120  0.00  0.00    +0.000 C 
ATOM     12  O   UNL     1       5.621   3.536  15.784  0.00  0.00    +0.000 OA
ENDBRANCH   5  12
BRANCH   9  13
ATOM     13  O   UNL     1       1.540   4.286  18.421  0.00  0.00    +0.000 OA
ATOM     14  C   UNL     1       1.191   2.920  18.608  0.00  0.00    +0.000 C 
ENDBRANCH   9  13
ENDBRANCH   1   8
BRANCH   2  15
ATOM     15  S   UNL     1       2.278   8.474  17.892  0.00  0.00    +0.000 S 
ATOM     16  H   UNL     1       0.967   8.679  17.751  0.00  0.00    +0.000 HD
ENDBRANCH   2  15
BRANCH   3  17
ATOM     17  C   UNL     1       0.566   9.264  20.246  0.00  0.00    +0.000 C 
BRANCH  17  18
ATOM     18  C   UNL     1       0.929  10.564  20.985  0.00  0.00    +0.000 C 
BRANCH  18  19
ATOM     19  N   UNL     1       0.323  11.759  20.350  0.00  0.00    +0.000 NA
ATOM     20  C   UNL     1       0.598  11.873  18.896  0.00  0.00    +0.000 C 
ATOM     21  C   UNL     1       2.056  12.232  18.570  0.00  0.00    +0.000 C 
ATOM     22  O   UNL     1       2.431  13.462  19.203  0.00  0.00    +0.000 OA
ATOM     23  C   UNL     1       2.239  13.392  20.622  0.00  0.00    +0.000 C 
ATOM     24  C   UNL     1       0.791  13.012  20.984  0.00  0.00    +0.000 C 
ENDBRANCH  18  19
ENDBRANCH  17  18
ENDBRANCH   3  17
TORSDOF 7
ENDMDL
MODEL 2
REMARK VINA RESULT:      -5.7      2.672      8.207
REMARK  Name = 
REMARK  9 active torsions:
REMARK  status: ('A' for Active; 'I' for Inactive)
REMARK    1  A    between atoms: C_1  and  O_2
REMARK    2  A    between atoms: O_2  and  C_3
REMARK    3  A    between atoms: C_6  and  N_7
REMARK    4  A    between atoms: C_8  and  S_9
REMARK    5  A    between atoms: N_10  and  C_11
REMARK    6  A    between atoms: C_11  and  C_12
REMARK    7  A    between atoms: C_12  and  N_13
REMARK    8  A    between atoms: C_19  and  O_20
REMARK    9  A    between atoms: O_20  and  C_21
REMARK                            x       y       z     vdW  Elec       q    Type
REMARK                         _______ _______ _______ _____ _____    ______ ____
ROOT
ATOM      1  N   UNL     1       2.056   8.237  19.457  0.00  0.00    +0.000 NA
ATOM      2  C   UNL     1       2.365   6.967  19.468  0.00  0.00    +0.000 C 
ATOM      3  N   UNL     1       3.163   6.488  18.452  0.00  0.00    +0.000 N 
ATOM      4  H   UNL     1       3.207   7.143  17.675  0.00  0.00    +0.000 HD
ENDROOT
BRANCH   1   8
ATOM      5  C   UNL     1      -0.496  10.123  22.269  0.00  0.00    +0.000 A 
ATOM      6  C   UNL     1       0.502   9.254  22.696  0.00  0.00    +0.000 A 
ATOM      7  C   UNL     1       1.388   8.688  21.779  0.00  0.00    +0.000 A 
ATOM      8  C   UNL     1       1.228   8.881  20.401  0.00  0.00    +0.000 A 
ATOM      9  C   UNL     1       0.246   9.803  19.972  0.00  0.00    +0.000 A 
ATOM     10  C   UNL     1      -0.601  10.424  20.911  0.00  0.00    +0.000 A 
BRANCH   5  12
ATOM     11  C   UNL     1      -2.004  11.812  23.011  0.00  0.00    +0.000 C 
ATOM     12  O   UNL     1      -1.282  10.616  23.273  0.00  0.00    +0.000 OA
ENDBRANCH   5  12
BRANCH   9  13
ATOM     13  O   UNL     1       0.207  10.065  18.621  0.00  0.00    +0.000 OA
ATOM     14  C   UNL     1      -1.073  10.203  18.016  0.00  0.00    +0.000 C 
ENDBRANCH   9  13
ENDBRANCH   1   8
BRANCH   2  15
ATOM     15  S   UNL     1       1.837   5.778  20.665  0.00  0.00    +0.000 S 
ATOM     16  H   UNL     1       3.015   5.183  20.858  0.00  0.00    +0.000 HD
ENDBRANCH   2  15
BRANCH   3  17
ATOM     17  C   UNL     1       3.269   5.075  18.105  0.00  0.00    +0.000 C 
BRANCH  17  18
ATOM     18  C   UNL     1       4.039   4.808  16.800  0.00  0.00    +0.000 C 
BRANCH  18  19
ATOM     19  N   UNL     1       5.339   4.138  17.043  0.00  0.00    +0.000 NA
ATOM     20  C   UNL     1       6.299   4.953  17.827  0.00  0.00    +0.000 C 
ATOM     21  C   UNL     1       6.870   6.150  17.052  0.00  0.00    +0.000 C 
ATOM     22  O   UNL     1       7.517   5.716  15.849  0.00  0.00    +0.000 OA
ATOM     23  C   UNL     1       6.618   4.968  15.021  0.00  0.00    +0.000 C 
ATOM     24  C   UNL     1       6.010   3.770  15.775  0.00  0.00    +0.000 C 
ENDBRANCH  18  19
ENDBRANCH  17  18
ENDBRANCH   3  17
TORSDOF 7
ENDMDL
MODEL 3
REMARK VINA RESULT:      -5.7      1.425      1.645
REMARK  Name = 
REMARK  9 active torsions:
REMARK  status: ('A' for Active; 'I' for Inactive)
REMARK    1  A    between atoms: C_1  and  O_2
REMARK    2  A    between atoms: O_2  and  C_3
REMARK    3  A    between atoms: C_6  and  N_7
REMARK    4  A    between atoms: C_8  and  S_9
REMARK    5  A    between atoms: N_10  and  C_11
REMARK    6  A    between atoms: C_11  and  C_12
REMARK    7  A    between atoms: C_12  and  N_13
REMARK    8  A    between atoms: C_19  and  O_20
REMARK    9  A    between atoms: O_20  and  C_21
REMARK                            x       y       z     vdW  Elec       q    Type
REMARK                         _______ _______ _______ _____ _____    ______ ____
ROOT
ATOM      1  N   UNL     1       3.795   5.839  19.448  0.00  0.00    +0.000 NA
ATOM      2  C   UNL     1       2.894   6.786  19.469  0.00  0.00    +0.000 C 
ATOM      3  N   UNL     1       2.225   7.012  20.653  0.00  0.00    +0.000 N 
ATOM      4  H   UNL     1       2.344   6.237  21.300  0.00  0.00    +0.000 HD
ENDROOT
BRANCH   1   8
ATOM      5  C   UNL     1       5.991   4.721  15.997  0.00  0.00    +0.000 A 
ATOM      6  C   UNL     1       6.382   5.818  16.756  0.00  0.00    +0.000 A 
ATOM      7  C   UNL     1       5.704   6.146  17.930  0.00  0.00    +0.000 A 
ATOM      8  C   UNL     1       4.547   5.458  18.316  0.00  0.00    +0.000 A 
ATOM      9  C   UNL     1       4.180   4.312  17.573  0.00  0.00    +0.000 A 
ATOM     10  C   UNL     1       4.912   3.947  16.426  0.00  0.00    +0.000 A 
BRANCH   5  12
ATOM     11  C   UNL     1       6.121   3.885  13.770  0.00  0.00    +0.000 C 
ATOM     12  O   UNL     1       6.752   4.506  14.882  0.00  0.00    +0.000 OA
ENDBRANCH   5  12
BRANCH   9  13
ATOM     13  O   UNL     1       3.116   3.586  18.059  0.00  0.00    +0.000 OA
ATOM     14  C   UNL     1       3.124   2.181  17.840  0.00  0.00    +0.000 C 
ENDBRANCH   9  13
ENDBRANCH   1   8
BRANCH   2  15
ATOM     15  S   UNL     1       2.427   7.808  18.106  0.00  0.00    +0.000 S 
ATOM     16  H   UNL     1       1.994   8.856  18.809  0.00  0.00    +0.000 HD
ENDBRANCH   2  15
BRANCH   3  17
ATOM     17  C   UNL     1       0.959   7.731  20.740  0.00  0.00    +0.000 C 
BRANCH  17  18
ATOM     18  C   UNL     1       1.091   9.166  21.282  0.00  0.00    +0.000 C 
BRANCH  18  19
ATOM     19  N   UNL     1      -0.147   9.957  21.081  0.00  0.00    +0.000 NA
ATOM     20  C   UNL     1      -0.542  10.109  19.659  0.00  0.00    +0.000 C 
ATOM     21  C   UNL     1       0.383  11.040  18.859  0.00  0.00    +0.000 C 
ATOM     22  O   UNL     1       0.439  12.340  19.458  0.00  0.00    +0.000 OA
ATOM     23  C   UNL     1       0.869  12.261  20.823  0.00  0.00    +0.000 C 
ATOM     24  C   UNL     1      -0.024  11.318  21.651  0.00  0.00    +0.000 C 
ENDBRANCH  18  19
ENDBRANCH  17  18
ENDBRANCH   3  17
TORSDOF 7
ENDMDL
MODEL 4
REMARK VINA RESULT:      -5.7      5.270      6.523
REMARK  Name = 
REMARK  9 active torsions:
REMARK  status: ('A' for Active; 'I' for Inactive)
REMARK    1  A    between atoms: C_1  and  O_2
REMARK    2  A    between atoms: O_2  and  C_3
REMARK    3  A    between atoms: C_6  and  N_7
REMARK    4  A    between atoms: C_8  and  S_9
REMARK    5  A    between atoms: N_10  and  C_11
REMARK    6  A    between atoms: C_11  and  C_12
REMARK    7  A    between atoms: C_12  and  N_13
REMARK    8  A    between atoms: C_19  and  O_20
REMARK    9  A    between atoms: O_20  and  C_21
REMARK                            x       y       z     vdW  Elec       q    Type
REMARK                         _______ _______ _______ _____ _____    ______ ____
ROOT
ATOM      1  N   UNL     1       5.815   7.377  16.998  0.00  0.00    +0.000 NA
ATOM      2  C   UNL     1       6.919   7.629  17.651  0.00  0.00    +0.000 C 
ATOM      3  N   UNL     1       7.488   8.875  17.499  0.00  0.00    +0.000 N 
ATOM      4  H   UNL     1       7.105   9.362  16.692  0.00  0.00    +0.000 HD
ENDROOT
BRANCH   1   8
ATOM      5  C   UNL     1       3.797   3.649  17.093  0.00  0.00    +0.000 A 
ATOM      6  C   UNL     1       3.412   4.680  17.942  0.00  0.00    +0.000 A 
ATOM      7  C   UNL     1       4.027   5.929  17.864  0.00  0.00    +0.000 A 
ATOM      8  C   UNL     1       5.121   6.149  17.017  0.00  0.00    +0.000 A 
ATOM      9  C   UNL     1       5.478   5.117  16.119  0.00  0.00    +0.000 A 
ATOM     10  C   UNL     1       4.806   3.880  16.157  0.00  0.00    +0.000 A 
BRANCH   5  12
ATOM     11  C   UNL     1       3.371   1.733  18.442  0.00  0.00    +0.000 C 
ATOM     12  O   UNL     1       3.102   2.485  17.267  0.00  0.00    +0.000 OA
ENDBRANCH   5  12
BRANCH   9  13
ATOM     13  O   UNL     1       6.471   5.416  15.213  0.00  0.00    +0.000 OA
ATOM     14  C   UNL     1       6.625   4.548  14.097  0.00  0.00    +0.000 C 
ENDBRANCH   9  13
ENDBRANCH   1   8
BRANCH   2  15
ATOM     15  S   UNL     1       7.778   6.508  18.712  0.00  0.00    +0.000 S 
ATOM     16  H   UNL     1       8.508   7.409  19.371  0.00  0.00    +0.000 HD
ENDBRANCH   2  15
BRANCH   3  17
ATOM     17  C   UNL     1       8.877   9.174  17.827  0.00  0.00    +0.000 C 
BRANCH  17  18
ATOM     18  C   UNL     1       9.047  10.114  19.034  0.00  0.00    +0.000 C 
BRANCH  18  19
ATOM     19  N   UNL     1       9.352  11.505  18.623  0.00  0.00    +0.000 NA
ATOM     20  C   UNL     1      10.679  11.666  17.979  0.00  0.00    +0.000 C 
ATOM     21  C   UNL     1      11.859  11.516  18.951  0.00  0.00    +0.000 C 
ATOM     22  O   UNL     1      11.757  12.459  20.025  0.00  0.00    +0.000 OA
ATOM     23  C   UNL     1      10.513  12.314  20.723  0.00  0.00    +0.000 C 
ATOM     24  C   UNL     1       9.307  12.437  19.772  0.00  0.00    +0.000 C 
ENDBRANCH  18  19
ENDBRANCH  17  18
ENDBRANCH   3  17
TORSDOF 7
ENDMDL
MODEL 5
REMARK VINA RESULT:      -5.7      2.671      8.518
REMARK  Name = 
REMARK  9 active torsions:
REMARK  status: ('A' for Active; 'I' for Inactive)
REMARK    1  A    between atoms: C_1  and  O_2
REMARK    2  A    between atoms: O_2  and  C_3
REMARK    3  A    between atoms: C_6  and  N_7
REMARK    4  A    between atoms: C_8  and  S_9
REMARK    5  A    between atoms: N_10  and  C_11
REMARK    6  A    between atoms: C_11  and  C_12
REMARK    7  A    between atoms: C_12  and  N_13
REMARK    8  A    between atoms: C_19  and  O_20
REMARK    9  A    between atoms: O_20  and  C_21
REMARK                            x       y       z     vdW  Elec       q    Type
REMARK                         _______ _______ _______ _____ _____    ______ ____
ROOT
ATOM      1  N   UNL     1       1.484   9.655  18.158  0.00  0.00    +0.000 NA
ATOM      2  C   UNL     1       2.052   8.550  18.562  0.00  0.00    +0.000 C 
ATOM      3  N   UNL     1       2.931   7.926  17.703  0.00  0.00    +0.000 N 
ATOM      4  H   UNL     1       2.834   8.278  16.754  0.00  0.00    +0.000 HD
ENDROOT
BRANCH   1   8
ATOM      5  C   UNL     1      -1.380  11.826  20.410  0.00  0.00    +0.000 A 
ATOM      6  C   UNL     1      -0.040  11.834  20.781  0.00  0.00    +0.000 A 
ATOM      7  C   UNL     1       0.914  11.179  20.002  0.00  0.00    +0.000 A 
ATOM      8  C   UNL     1       0.541  10.402  18.898  0.00  0.00    +0.000 A 
ATOM      9  C   UNL     1      -0.813  10.436  18.493  0.00  0.00    +0.000 A 
ATOM     10  C   UNL     1      -1.760  11.156  19.246  0.00  0.00    +0.000 A 
BRANCH   5  12
ATOM     11  C   UNL     1      -1.950  12.410  22.648  0.00  0.00    +0.000 C 
ATOM     12  O   UNL     1      -2.203  12.519  21.254  0.00  0.00    +0.000 OA
ENDBRANCH   5  12
BRANCH   9  13
ATOM     13  O   UNL     1      -1.116   9.766  17.328  0.00  0.00    +0.000 OA
ATOM     14  C   UNL     1      -2.276  10.181  16.616  0.00  0.00    +0.000 C 
ENDBRANCH   9  13
ENDBRANCH   1   8
BRANCH   2  15
ATOM     15  S   UNL     1       1.788   7.751  20.116  0.00  0.00    +0.000 S 
ATOM     16  H   UNL     1       0.478   7.536  19.987  0.00  0.00    +0.000 HD
ENDBRANCH   2  15
BRANCH   3  17
ATOM     17  C   UNL     1       3.330   6.529  17.830  0.00  0.00    +0.000 C 
BRANCH  17  18
ATOM     18  C   UNL     1       4.670   6.197  17.150  0.00  0.00    +0.000 C 
BRANCH  18  19
ATOM     19  N   UNL     1       5.046   4.773  17.317  0.00  0.00    +0.000 NA
ATOM     20  C   UNL     1       6.111   4.544  18.324  0.00  0.00    +0.000 C 
ATOM     21  C   UNL     1       7.498   5.032  17.877  0.00  0.00    +0.000 C 
ATOM     22  O   UNL     1       7.888   4.402  16.650  0.00  0.00    +0.000 OA
ATOM     23  C   UNL     1       6.920   4.636  15.619  0.00  0.00    +0.000 C 
ATOM     24  C   UNL     1       5.511   4.178  16.044  0.00  0.00    +0.000 C 
ENDBRANCH  18  19
ENDBRANCH  17  18
ENDBRANCH   3  17
TORSDOF 7
ENDMDL
MODEL 6
REMARK VINA RESULT:      -5.6      1.070      1.604
REMARK  Name = 
REMARK  9 active torsions:
REMARK  status: ('A' for Active; 'I' for Inactive)
REMARK    1  A    between atoms: C_1  and  O_2
REMARK    2  A    between atoms: O_2  and  C_3
REMARK    3  A    between atoms: C_6  and  N_7
REMARK    4  A    between atoms: C_8  and  S_9
REMARK    5  A    between atoms: N_10  and  C_11
REMARK    6  A    between atoms: C_11  and  C_12
REMARK    7  A    between atoms: C_12  and  N_13
REMARK    8  A    between atoms: C_19  and  O_20
REMARK    9  A    between atoms: O_20  and  C_21
REMARK                            x       y       z     vdW  Elec       q    Type
REMARK                         _______ _______ _______ _____ _____    ______ ____
ROOT
ATOM      1  N   UNL     1       3.014   6.170  19.690  0.00  0.00    +0.000 NA
ATOM      2  C   UNL     1       2.374   7.297  19.523  0.00  0.00    +0.000 C 
ATOM      3  N   UNL     1       1.713   7.830  20.609  0.00  0.00    +0.000 N 
ATOM      4  H   UNL     1       1.600   7.141  21.349  0.00  0.00    +0.000 HD
ENDROOT
BRANCH   1   8
ATOM      5  C   UNL     1       5.071   4.123  16.598  0.00  0.00    +0.000 A 
ATOM      6  C   UNL     1       5.697   5.143  17.305  0.00  0.00    +0.000 A 
ATOM      7  C   UNL     1       5.049   5.770  18.369  0.00  0.00    +0.000 A 
ATOM      8  C   UNL     1       3.715   5.476  18.680  0.00  0.00    +0.000 A 
ATOM      9  C   UNL     1       3.096   4.405  17.995  0.00  0.00    +0.000 A 
ATOM     10  C   UNL     1       3.783   3.731  16.967  0.00  0.00    +0.000 A 
BRANCH   5  12
ATOM     11  C   UNL     1       6.720   4.458  14.912  0.00  0.00    +0.000 C 
ATOM     12  O   UNL     1       5.826   3.587  15.592  0.00  0.00    +0.000 OA
ENDBRANCH   5  12
BRANCH   9  13
ATOM     13  O   UNL     1       1.832   4.060  18.419  0.00  0.00    +0.000 OA
ATOM     14  C   UNL     1       1.663   2.773  18.999  0.00  0.00    +0.000 C 
ENDBRANCH   9  13
ENDBRANCH   1   8
BRANCH   2  15
ATOM     15  S   UNL     1       2.253   8.212  18.017  0.00  0.00    +0.000 S 
ATOM     16  H   UNL     1       2.078   7.178  17.192  0.00  0.00    +0.000 HD
ENDBRANCH   2  15
BRANCH   3  17
ATOM     17  C   UNL     1       0.659   8.832  20.501  0.00  0.00    +0.000 C 
BRANCH  17  18
ATOM     18  C   UNL     1       1.033  10.200  21.101  0.00  0.00    +0.000 C 
BRANCH  18  19
ATOM     19  N   UNL     1       1.101  11.264  20.071  0.00  0.00    +0.000 NA
ATOM     20  C   UNL     1       1.269  12.630  20.627  0.00  0.00    +0.000 C 
ATOM     21  C   UNL     1       0.018  13.165  21.339  0.00  0.00    +0.000 C 
ATOM     22  O   UNL     1      -1.110  13.169  20.454  0.00  0.00    +0.000 OA
ATOM     23  C   UNL     1      -1.356  11.859  19.927  0.00  0.00    +0.000 C 
ATOM     24  C   UNL     1      -0.113  11.282  19.224  0.00  0.00    +0.000 C 
ENDBRANCH  18  19
ENDBRANCH  17  18
ENDBRANCH   3  17
TORSDOF 7
ENDMDL
MODEL 7
REMARK VINA RESULT:      -5.6      2.404      8.196
REMARK  Name = 
REMARK  9 active torsions:
REMARK  status: ('A' for Active; 'I' for Inactive)
REMARK    1  A    between atoms: C_1  and  O_2
REMARK    2  A    between atoms: O_2  and  C_3
REMARK    3  A    between atoms: C_6  and  N_7
REMARK    4  A    between atoms: C_8  and  S_9
REMARK    5  A    between atoms: N_10  and  C_11
REMARK    6  A    between atoms: C_11  and  C_12
REMARK    7  A    between atoms: C_12  and  N_13
REMARK    8  A    between atoms: C_19  and  O_20
REMARK    9  A    between atoms: O_20  and  C_21
REMARK                            x       y       z     vdW  Elec       q    Type
REMARK                         _______ _______ _______ _____ _____    ______ ____
ROOT
ATOM      1  N   UNL     1       2.046   8.259  19.391  0.00  0.00    +0.000 NA
ATOM      2  C   UNL     1       2.266   6.971  19.360  0.00  0.00    +0.000 C 
ATOM      3  N   UNL     1       3.006   6.469  18.311  0.00  0.00    +0.000 N 
ATOM      4  H   UNL     1       3.078   7.142  17.552  0.00  0.00    +0.000 HD
ENDROOT
BRANCH   1   8
ATOM      5  C   UNL     1      -0.307  10.246  22.305  0.00  0.00    +0.000 A 
ATOM      6  C   UNL     1       0.468   9.146  22.657  0.00  0.00    +0.000 A 
ATOM      7  C   UNL     1       1.297   8.535  21.716  0.00  0.00    +0.000 A 
ATOM      8  C   UNL     1       1.287   8.931  20.373  0.00  0.00    +0.000 A 
ATOM      9  C   UNL     1       0.537  10.080  20.028  0.00  0.00    +0.000 A 
ATOM     10  C   UNL     1      -0.245  10.734  21.000  0.00  0.00    +0.000 A 
BRANCH   5  12
ATOM     11  C   UNL     1      -1.723  11.990  23.097  0.00  0.00    +0.000 C 
ATOM     12  O   UNL     1      -1.060  10.755  23.327  0.00  0.00    +0.000 OA
ENDBRANCH   5  12
BRANCH   9  13
ATOM     13  O   UNL     1       0.656  10.515  18.727  0.00  0.00    +0.000 OA
ATOM     14  C   UNL     1       1.562  11.582  18.472  0.00  0.00    +0.000 C 
ENDBRANCH   9  13
ENDBRANCH   1   8
BRANCH   2  15
ATOM     15  S   UNL     1       1.683   5.788  20.536  0.00  0.00    +0.000 S 
ATOM     16  H   UNL     1       0.387   5.853  20.228  0.00  0.00    +0.000 HD
ENDBRANCH   2  15
BRANCH   3  17
ATOM     17  C   UNL     1       3.005   5.063  17.923  0.00  0.00    +0.000 C 
BRANCH  17  18
ATOM     18  C   UNL     1       4.369   4.551  17.427  0.00  0.00    +0.000 C 
BRANCH  18  19
ATOM     19  N   UNL     1       5.267   5.656  17.016  0.00  0.00    +0.000 NA
ATOM     20  C   UNL     1       5.702   5.584  15.599  0.00  0.00    +0.000 C 
ATOM     21  C   UNL     1       6.695   4.447  15.315  0.00  0.00    +0.000 C 
ATOM     22  O   UNL     1       7.859   4.568  16.142  0.00  0.00    +0.000 OA
ATOM     23  C   UNL     1       7.504   4.587  17.531  0.00  0.00    +0.000 C 
ATOM     24  C   UNL     1       6.491   5.703  17.848  0.00  0.00    +0.000 C 
ENDBRANCH  18  19
ENDBRANCH  17  18
ENDBRANCH   3  17
TORSDOF 7
ENDMDL
MODEL 8
REMARK VINA RESULT:      -5.5      1.311      1.406
REMARK  Name = 
REMARK  9 active torsions:
REMARK  status: ('A' for Active; 'I' for Inactive)
REMARK    1  A    between atoms: C_1  and  O_2
REMARK    2  A    between atoms: O_2  and  C_3
REMARK    3  A    between atoms: C_6  and  N_7
REMARK    4  A    between atoms: C_8  and  S_9
REMARK    5  A    between atoms: N_10  and  C_11
REMARK    6  A    between atoms: C_11  and  C_12
REMARK    7  A    between atoms: C_12  and  N_13
REMARK    8  A    between atoms: C_19  and  O_20
REMARK    9  A    between atoms: O_20  and  C_21
REMARK                            x       y       z     vdW  Elec       q    Type
REMARK                         _______ _______ _______ _____ _____    ______ ____
ROOT
ATOM      1  N   UNL     1       2.695   6.471  19.613  0.00  0.00    +0.000 NA
ATOM      2  C   UNL     1       2.211   7.659  19.361  0.00  0.00    +0.000 C 
ATOM      3  N   UNL     1       1.491   8.286  20.355  0.00  0.00    +0.000 N 
ATOM      4  H   UNL     1       1.213   7.630  21.081  0.00  0.00    +0.000 HD
ENDROOT
BRANCH   1   8
ATOM      5  C   UNL     1       4.852   4.134  16.809  0.00  0.00    +0.000 A 
ATOM      6  C   UNL     1       5.477   5.175  17.486  0.00  0.00    +0.000 A 
ATOM      7  C   UNL     1       4.790   5.900  18.460  0.00  0.00    +0.000 A 
ATOM      8  C   UNL     1       3.427   5.682  18.701  0.00  0.00    +0.000 A 
ATOM      9  C   UNL     1       2.807   4.591  18.048  0.00  0.00    +0.000 A 
ATOM     10  C   UNL     1       3.528   3.820  17.116  0.00  0.00    +0.000 A 
BRANCH   5  12
ATOM     11  C   UNL     1       6.516   4.309  15.112  0.00  0.00    +0.000 C 
ATOM     12  O   UNL     1       5.646   3.501  15.893  0.00  0.00    +0.000 OA
ENDBRANCH   5  12
BRANCH   9  13
ATOM     13  O   UNL     1       1.504   4.327  18.409  0.00  0.00    +0.000 OA
ATOM     14  C   UNL     1       1.191   3.001  18.815  0.00  0.00    +0.000 C 
ENDBRANCH   9  13
ENDBRANCH   1   8
BRANCH   2  15
ATOM     15  S   UNL     1       2.375   8.549  17.843  0.00  0.00    +0.000 S 
ATOM     16  H   UNL     1       2.906   7.565  17.115  0.00  0.00    +0.000 HD
ENDBRANCH   2  15
BRANCH   3  17
ATOM     17  C   UNL     1       0.578   9.398  20.112  0.00  0.00    +0.000 C 
BRANCH  17  18
ATOM     18  C   UNL     1       0.581  10.463  21.223  0.00  0.00    +0.000 C 
BRANCH  18  19
ATOM     19  N   UNL     1      -0.763  11.047  21.444  0.00  0.00    +0.000 NA
ATOM     20  C   UNL     1      -1.390  11.597  20.217  0.00  0.00    +0.000 C 
ATOM     21  C   UNL     1      -0.728  12.889  19.712  0.00  0.00    +0.000 C 
ATOM     22  O   UNL     1      -0.746  13.901  20.726  0.00  0.00    +0.000 OA
ATOM     23  C   UNL     1      -0.102  13.444  21.922  0.00  0.00    +0.000 C 
ATOM     24  C   UNL     1      -0.728  12.137  22.445  0.00  0.00    +0.000 C 
ENDBRANCH  18  19
ENDBRANCH  17  18
ENDBRANCH   3  17
TORSDOF 7
ENDMDL
MODEL 9
REMARK VINA RESULT:      -5.5      2.964      8.610
REMARK  Name = 
REMARK  9 active torsions:
REMARK  status: ('A' for Active; 'I' for Inactive)
REMARK    1  A    between atoms: C_1  and  O_2
REMARK    2  A    between atoms: O_2  and  C_3
REMARK    3  A    between atoms: C_6  and  N_7
REMARK    4  A    between atoms: C_8  and  S_9
REMARK    5  A    between atoms: N_10  and  C_11
REMARK    6  A    between atoms: C_11  and  C_12
REMARK    7  A    between atoms: C_12  and  N_13
REMARK    8  A    between atoms: C_19  and  O_20
REMARK    9  A    between atoms: O_20  and  C_21
REMARK                            x       y       z     vdW  Elec       q    Type
REMARK                         _______ _______ _______ _____ _____    ______ ____
ROOT
ATOM      1  N   UNL     1       0.943   9.689  18.119  0.00  0.00    +0.000 NA
ATOM      2  C   UNL     1       1.574   8.789  18.826  0.00  0.00    +0.000 C 
ATOM      3  N   UNL     1       2.486   7.984  18.179  0.00  0.00    +0.000 N 
ATOM      4  H   UNL     1       2.369   8.028  17.169  0.00  0.00    +0.000 HD
ENDROOT
BRANCH   1   8
ATOM      5  C   UNL     1      -2.045  12.274  19.656  0.00  0.00    +0.000 A 
ATOM      6  C   UNL     1      -0.737  12.359  20.117  0.00  0.00    +0.000 A 
ATOM      7  C   UNL     1       0.262  11.559  19.564  0.00  0.00    +0.000 A 
ATOM      8  C   UNL     1      -0.040  10.571  18.617  0.00  0.00    +0.000 A 
ATOM      9  C   UNL     1      -1.360  10.520  18.113  0.00  0.00    +0.000 A 
ATOM     10  C   UNL     1      -2.349  11.380  18.630  0.00  0.00    +0.000 A 
BRANCH   5  12
ATOM     11  C   UNL     1      -4.292  12.766  20.277  0.00  0.00    +0.000 C 
ATOM     12  O   UNL     1      -2.918  13.126  20.276  0.00  0.00    +0.000 OA
ENDBRANCH   5  12
BRANCH   9  13
ATOM     13  O   UNL     1      -1.587   9.626  17.091  0.00  0.00    +0.000 OA
ATOM     14  C   UNL     1      -2.577   9.967  16.129  0.00  0.00    +0.000 C 
ENDBRANCH   9  13
ENDBRANCH   1   8
BRANCH   2  15
ATOM     15  S   UNL     1       1.359   8.483  20.553  0.00  0.00    +0.000 S 
ATOM     16  H   UNL     1       1.091   7.179  20.472  0.00  0.00    +0.000 HD
ENDBRANCH   2  15
BRANCH   3  17
ATOM     17  C   UNL     1       2.965   6.714  18.713  0.00  0.00    +0.000 C 
BRANCH  17  18
ATOM     18  C   UNL     1       2.317   5.478  18.064  0.00  0.00    +0.000 C 
BRANCH  18  19
ATOM     19  N   UNL     1       1.917   4.462  19.067  0.00  0.00    +0.000 NA
ATOM     20  C   UNL     1       3.023   4.024  19.954  0.00  0.00    +0.000 C 
ATOM     21  C   UNL     1       4.074   3.155  19.246  0.00  0.00    +0.000 C 
ATOM     22  O   UNL     1       3.468   1.994  18.665  0.00  0.00    +0.000 OA
ATOM     23  C   UNL     1       2.424   2.358  17.753  0.00  0.00    +0.000 C 
ATOM     24  C   UNL     1       1.362   3.249  18.425  0.00  0.00    +0.000 C 
ENDBRANCH  18  19
ENDBRANCH  17  18
ENDBRANCH   3  17
TORSDOF 7
ENDMDL
