MODEL 1
REMARK VINA RESULT:      -8.0      0.000      0.000
REMARK  Name = 
REMARK  4 active torsions:
REMARK  status: ('A' for Active; 'I' for Inactive)
REMARK    1  A    between atoms: C_2  and  C_3
REMARK    2  A    between atoms: C_3  and  C_4
REMARK    3  A    between atoms: C_4  and  C_5
REMARK    4  A    between atoms: C_15  and  C_16
REMARK                            x       y       z     vdW  Elec       q    Type
REMARK                         _______ _______ _______ _____ _____    ______ ____
ROOT
ATOM      1  O   UNL     1       3.387   1.441  17.456  0.00  0.00    +0.000 OA
ATOM      2  C   UNL     1       3.311   2.586  17.915  0.00  0.00    +0.000 C 
ATOM      3  N   UNL     1       2.910   2.741  19.208  0.00  0.00    +0.000 N 
ATOM      4  C   UNL     1       2.623   3.916  19.830  0.00  0.00    +0.000 A 
ATOM      5  N   UNL     1       2.484   4.116  21.120  0.00  0.00    +0.000 NA
ATOM      6  N   UNL     1       2.225   5.461  21.277  0.00  0.00    +0.000 NA
ATOM      7  C   UNL     1       2.149   5.964  20.062  0.00  0.00    +0.000 A 
ATOM      8  O   UNL     1       2.384   5.041  19.091  0.00  0.00    +0.000 OA
ATOM      9  H   UNL     1       2.843   1.909  19.768  0.00  0.00    +0.000 HD
ENDROOT
BRANCH   7  10
ATOM     10  C   UNL     1       1.962   7.338  19.641  0.00  0.00    +0.000 A 
ATOM     11  C   UNL     1       2.318   7.814  18.367  0.00  0.00    +0.000 A 
ATOM     12  C   UNL     1       1.965   9.118  17.984  0.00  0.00    +0.000 A 
ATOM     13  C   UNL     1       1.298   9.951  18.881  0.00  0.00    +0.000 A 
ATOM     14  C   UNL     1       1.073   9.516  20.180  0.00  0.00    +0.000 A 
ATOM     15  C   UNL     1       1.369   8.212  20.553  0.00  0.00    +0.000 A 
ATOM     16  O   UNL     1       0.576  10.330  21.157  0.00  0.00    +0.000 OA
ATOM     17  C   UNL     1      -0.416  11.171  20.583  0.00  0.00    +0.000 C 
ATOM     18  C   UNL     1       0.085  11.918  19.352  0.00  0.00    +0.000 C 
ATOM     19  O   UNL     1       0.865  11.160  18.417  0.00  0.00    +0.000 OA
ENDBRANCH   7  10
BRANCH   2  20
ATOM     20  C   UNL     1       3.727   3.799  17.105  0.00  0.00    +0.000 C 
BRANCH  20  21
ATOM     21  C   UNL     1       5.145   3.688  16.555  0.00  0.00    +0.000 C 
BRANCH  21  22
ATOM     22  C   UNL     1       5.965   4.870  17.010  0.00  0.00    +0.000 A 
ATOM     23  C   UNL     1       7.082   4.684  17.835  0.00  0.00    +0.000 A 
ATOM     24  C   UNL     1       7.802   5.781  18.309  0.00  0.00    +0.000 A 
ATOM     25  C   UNL     1       7.409   7.074  17.964  0.00  0.00    +0.000 A 
ATOM     26  C   UNL     1       6.299   7.270  17.146  0.00  0.00    +0.000 A 
ATOM     27  C   UNL     1       5.579   6.174  16.672  0.00  0.00    +0.000 A 
ENDBRANCH  21  22
ENDBRANCH  20  21
ENDBRANCH   2  20
TORSDOF 4
ENDMDL
MODEL 2
REMARK VINA RESULT:      -7.8      2.756      6.705
REMARK  Name = 
REMARK  4 active torsions:
REMARK  status: ('A' for Active; 'I' for Inactive)
REMARK    1  A    between atoms: C_2  and  C_3
REMARK    2  A    between atoms: C_3  and  C_4
REMARK    3  A    between atoms: C_4  and  C_5
REMARK    4  A    between atoms: C_15  and  C_16
REMARK                            x       y       z     vdW  Elec       q    Type
REMARK                         _______ _______ _______ _____ _____    ______ ____
ROOT
ATOM      1  O   UNL     1       1.730   3.209  22.390  0.00  0.00    +0.000 OA
ATOM      2  C   UNL     1       2.133   3.443  21.245  0.00  0.00    +0.000 C 
ATOM      3  N   UNL     1       1.926   2.503  20.281  0.00  0.00    +0.000 N 
ATOM      4  C   UNL     1       2.428   2.517  19.017  0.00  0.00    +0.000 A 
ATOM      5  N   UNL     1       2.048   1.772  18.006  0.00  0.00    +0.000 NA
ATOM      6  N   UNL     1       2.821   2.156  16.931  0.00  0.00    +0.000 NA
ATOM      7  C   UNL     1       3.668   3.053  17.390  0.00  0.00    +0.000 A 
ATOM      8  O   UNL     1       3.484   3.328  18.709  0.00  0.00    +0.000 OA
ATOM      9  H   UNL     1       1.322   1.733  20.516  0.00  0.00    +0.000 HD
ENDROOT
BRANCH   7  10
ATOM     10  C   UNL     1       4.662   3.834  16.681  0.00  0.00    +0.000 A 
ATOM     11  C   UNL     1       5.564   4.705  17.319  0.00  0.00    +0.000 A 
ATOM     12  C   UNL     1       6.594   5.308  16.579  0.00  0.00    +0.000 A 
ATOM     13  C   UNL     1       6.697   5.074  15.209  0.00  0.00    +0.000 A 
ATOM     14  C   UNL     1       5.722   4.323  14.568  0.00  0.00    +0.000 A 
ATOM     15  C   UNL     1       4.730   3.679  15.296  0.00  0.00    +0.000 A 
ATOM     16  O   UNL     1       5.664   4.188  13.211  0.00  0.00    +0.000 OA
ATOM     17  C   UNL     1       6.989   4.075  12.712  0.00  0.00    +0.000 C 
ATOM     18  C   UNL     1       7.896   5.207  13.182  0.00  0.00    +0.000 C 
ATOM     19  O   UNL     1       7.788   5.580  14.563  0.00  0.00    +0.000 OA
ENDBRANCH   7  10
BRANCH   2  20
ATOM     20  C   UNL     1       2.771   4.768  20.880  0.00  0.00    +0.000 C 
BRANCH  20  21
ATOM     21  C   UNL     1       1.808   5.945  21.000  0.00  0.00    +0.000 C 
BRANCH  21  22
ATOM     22  C   UNL     1       2.071   6.937  19.894  0.00  0.00    +0.000 A 
ATOM     23  C   UNL     1       1.457   8.197  19.910  0.00  0.00    +0.000 A 
ATOM     24  C   UNL     1       1.649   9.089  18.855  0.00  0.00    +0.000 A 
ATOM     25  C   UNL     1       2.455   8.730  17.775  0.00  0.00    +0.000 A 
ATOM     26  C   UNL     1       3.068   7.480  17.749  0.00  0.00    +0.000 A 
ATOM     27  C   UNL     1       2.877   6.586  18.803  0.00  0.00    +0.000 A 
ENDBRANCH  21  22
ENDBRANCH  20  21
ENDBRANCH   2  20
TORSDOF 4
ENDMDL
MODEL 3
REMARK VINA RESULT:      -7.7      2.534      4.258
REMARK  Name = 
REMARK  4 active torsions:
REMARK  status: ('A' for Active; 'I' for Inactive)
REMARK    1  A    between atoms: C_2  and  C_3
REMARK    2  A    between atoms: C_3  and  C_4
REMARK    3  A    between atoms: C_4  and  C_5
REMARK    4  A    between atoms: C_15  and  C_16
REMARK                            x       y       z     vdW  Elec       q    Type
REMARK                         _______ _______ _______ _____ _____    ______ ____
ROOT
ATOM      1  O   UNL     1       7.834   4.042  17.083  0.00  0.00    +0.000 OA
ATOM      2  C   UNL     1       6.743   4.597  17.260  0.00  0.00    +0.000 C 
ATOM      3  N   UNL     1       6.391   5.615  16.427  0.00  0.00    +0.000 N 
ATOM      4  C   UNL     1       5.314   6.435  16.562  0.00  0.00    +0.000 A 
ATOM      5  N   UNL     1       4.817   7.244  15.656  0.00  0.00    +0.000 NA
ATOM      6  N   UNL     1       3.720   7.845  16.236  0.00  0.00    +0.000 NA
ATOM      7  C   UNL     1       3.679   7.414  17.480  0.00  0.00    +0.000 A 
ATOM      8  O   UNL     1       4.665   6.521  17.762  0.00  0.00    +0.000 OA
ATOM      9  H   UNL     1       6.969   5.763  15.617  0.00  0.00    +0.000 HD
ENDROOT
BRANCH   7  10
ATOM     10  C   UNL     1       2.700   7.672  18.516  0.00  0.00    +0.000 A 
ATOM     11  C   UNL     1       2.476   6.809  19.604  0.00  0.00    +0.000 A 
ATOM     12  C   UNL     1       1.621   7.205  20.645  0.00  0.00    +0.000 A 
ATOM     13  C   UNL     1       0.965   8.433  20.578  0.00  0.00    +0.000 A 
ATOM     14  C   UNL     1       1.088   9.214  19.438  0.00  0.00    +0.000 A 
ATOM     15  C   UNL     1       1.972   8.859  18.427  0.00  0.00    +0.000 A 
ATOM     16  O   UNL     1       0.351  10.344  19.232  0.00  0.00    +0.000 OA
ATOM     17  C   UNL     1       0.226  11.033  20.468  0.00  0.00    +0.000 C 
ATOM     18  C   UNL     1      -0.306  10.145  21.588  0.00  0.00    +0.000 C 
ATOM     19  O   UNL     1       0.246   8.824  21.672  0.00  0.00    +0.000 OA
ENDBRANCH   7  10
BRANCH   2  20
ATOM     20  C   UNL     1       5.769   4.120  18.320  0.00  0.00    +0.000 C 
BRANCH  20  21
ATOM     21  C   UNL     1       4.653   3.249  17.752  0.00  0.00    +0.000 C 
BRANCH  21  22
ATOM     22  C   UNL     1       3.474   3.251  18.693  0.00  0.00    +0.000 A 
ATOM     23  C   UNL     1       2.167   3.346  18.194  0.00  0.00    +0.000 A 
ATOM     24  C   UNL     1       1.081   3.412  19.067  0.00  0.00    +0.000 A 
ATOM     25  C   UNL     1       1.291   3.387  20.446  0.00  0.00    +0.000 A 
ATOM     26  C   UNL     1       2.585   3.294  20.951  0.00  0.00    +0.000 A 
ATOM     27  C   UNL     1       3.672   3.227  20.080  0.00  0.00    +0.000 A 
ENDBRANCH  21  22
ENDBRANCH  20  21
ENDBRANCH   2  20
TORSDOF 4
ENDMDL
MODEL 4
REMARK VINA RESULT:      -7.7      0.770      1.251
REMARK  Name = 
REMARK  4 active torsions:
REMARK  status: ('A' for Active; 'I' for Inactive)
REMARK    1  A    between atoms: C_2  and  C_3
REMARK    2  A    between atoms: C_3  and  C_4
REMARK    3  A    between atoms: C_4  and  C_5
REMARK    4  A    between atoms: C_15  and  C_16
REMARK                            x       y       z     vdW  Elec       q    Type
REMARK                         _______ _______ _______ _____ _____    ______ ____
ROOT
ATOM      1  O   UNL     1       3.959   1.151  18.190  0.00  0.00    +0.000 OA
ATOM      2  C   UNL     1       3.728   2.303  18.574  0.00  0.00    +0.000 C 
ATOM      3  N   UNL     1       2.814   2.484  19.567  0.00  0.00    +0.000 N 
ATOM      4  C   UNL     1       2.322   3.673  20.008  0.00  0.00    +0.000 A 
ATOM      5  N   UNL     1       1.647   3.891  21.111  0.00  0.00    +0.000 NA
ATOM      6  N   UNL     1       1.387   5.245  21.144  0.00  0.00    +0.000 NA
ATOM      7  C   UNL     1       1.857   5.737  20.017  0.00  0.00    +0.000 A 
ATOM      8  O   UNL     1       2.459   4.797  19.240  0.00  0.00    +0.000 OA
ATOM      9  H   UNL     1       2.486   1.660  20.042  0.00  0.00    +0.000 HD
ENDROOT
BRANCH   7  10
ATOM     10  C   UNL     1       1.911   7.110  19.560  0.00  0.00    +0.000 A 
ATOM     11  C   UNL     1       2.392   7.487  18.293  0.00  0.00    +0.000 A 
ATOM     12  C   UNL     1       2.269   8.820  17.867  0.00  0.00    +0.000 A 
ATOM     13  C   UNL     1       1.709   9.773  18.716  0.00  0.00    +0.000 A 
ATOM     14  C   UNL     1       1.363   9.417  20.012  0.00  0.00    +0.000 A 
ATOM     15  C   UNL     1       1.430   8.093  20.425  0.00  0.00    +0.000 A 
ATOM     16  O   UNL     1       0.964  10.326  20.948  0.00  0.00    +0.000 OA
ATOM     17  C   UNL     1       0.146  11.299  20.313  0.00  0.00    +0.000 C 
ATOM     18  C   UNL     1       0.811  11.922  19.090  0.00  0.00    +0.000 C 
ATOM     19  O   UNL     1       1.497  11.023  18.208  0.00  0.00    +0.000 OA
ENDBRANCH   7  10
BRANCH   2  20
ATOM     20  C   UNL     1       4.489   3.494  18.025  0.00  0.00    +0.000 C 
BRANCH  20  21
ATOM     21  C   UNL     1       5.639   3.932  18.927  0.00  0.00    +0.000 C 
BRANCH  21  22
ATOM     22  C   UNL     1       6.199   5.245  18.441  0.00  0.00    +0.000 A 
ATOM     23  C   UNL     1       5.529   5.982  17.455  0.00  0.00    +0.000 A 
ATOM     24  C   UNL     1       6.080   7.164  16.959  0.00  0.00    +0.000 A 
ATOM     25  C   UNL     1       7.306   7.618  17.442  0.00  0.00    +0.000 A 
ATOM     26  C   UNL     1       7.982   6.893  18.420  0.00  0.00    +0.000 A 
ATOM     27  C   UNL     1       7.432   5.711  18.918  0.00  0.00    +0.000 A 
ENDBRANCH  21  22
ENDBRANCH  20  21
ENDBRANCH   2  20
TORSDOF 4
ENDMDL
MODEL 5
REMARK VINA RESULT:      -7.7      2.423      4.256
REMARK  Name = 
REMARK  4 active torsions:
REMARK  status: ('A' for Active; 'I' for Inactive)
REMARK    1  A    between atoms: C_2  and  C_3
REMARK    2  A    between atoms: C_3  and  C_4
REMARK    3  A    between atoms: C_4  and  C_5
REMARK    4  A    between atoms: C_15  and  C_16
REMARK                            x       y       z     vdW  Elec       q    Type
REMARK                         _______ _______ _______ _____ _____    ______ ____
ROOT
ATOM      1  O   UNL     1       7.575   4.295  18.264  0.00  0.00    +0.000 OA
ATOM      2  C   UNL     1       6.478   4.865  18.251  0.00  0.00    +0.000 C 
ATOM      3  N   UNL     1       6.173   5.659  17.188  0.00  0.00    +0.000 N 
ATOM      4  C   UNL     1       5.093   6.477  17.073  0.00  0.00    +0.000 A 
ATOM      5  N   UNL     1       4.646   7.050  15.980  0.00  0.00    +0.000 NA
ATOM      6  N   UNL     1       3.521   7.758  16.348  0.00  0.00    +0.000 NA
ATOM      7  C   UNL     1       3.414   7.627  17.654  0.00  0.00    +0.000 A 
ATOM      8  O   UNL     1       4.382   6.833  18.186  0.00  0.00    +0.000 OA
ATOM      9  H   UNL     1       6.793   5.621  16.397  0.00  0.00    +0.000 HD
ENDROOT
BRANCH   7  10
ATOM     10  C   UNL     1       2.383   8.108  18.550  0.00  0.00    +0.000 A 
ATOM     11  C   UNL     1       2.133   7.550  19.816  0.00  0.00    +0.000 A 
ATOM     12  C   UNL     1       1.221   8.169  20.686  0.00  0.00    +0.000 A 
ATOM     13  C   UNL     1       0.536   9.312  20.277  0.00  0.00    +0.000 A 
ATOM     14  C   UNL     1       0.690   9.775  18.978  0.00  0.00    +0.000 A 
ATOM     15  C   UNL     1       1.628   9.203  18.128  0.00  0.00    +0.000 A 
ATOM     16  O   UNL     1      -0.066  10.784  18.457  0.00  0.00    +0.000 OA
ATOM     17  C   UNL     1      -0.266  11.766  19.465  0.00  0.00    +0.000 C 
ATOM     18  C   UNL     1      -0.824  11.179  20.758  0.00  0.00    +0.000 C 
ATOM     19  O   UNL     1      -0.241   9.947  21.204  0.00  0.00    +0.000 OA
ENDBRANCH   7  10
BRANCH   2  20
ATOM     20  C   UNL     1       5.449   4.636  19.341  0.00  0.00    +0.000 C 
BRANCH  20  21
ATOM     21  C   UNL     1       4.845   3.236  19.304  0.00  0.00    +0.000 C 
BRANCH  21  22
ATOM     22  C   UNL     1       3.349   3.319  19.477  0.00  0.00    +0.000 A 
ATOM     23  C   UNL     1       2.796   4.058  20.532  0.00  0.00    +0.000 A 
ATOM     24  C   UNL     1       1.415   4.082  20.730  0.00  0.00    +0.000 A 
ATOM     25  C   UNL     1       0.575   3.366  19.877  0.00  0.00    +0.000 A 
ATOM     26  C   UNL     1       1.115   2.628  18.827  0.00  0.00    +0.000 A 
ATOM     27  C   UNL     1       2.495   2.603  18.627  0.00  0.00    +0.000 A 
ENDBRANCH  21  22
ENDBRANCH  20  21
ENDBRANCH   2  20
TORSDOF 4
ENDMDL
MODEL 6
REMARK VINA RESULT:      -7.7      2.701      3.815
REMARK  Name = 
REMARK  4 active torsions:
REMARK  status: ('A' for Active; 'I' for Inactive)
REMARK    1  A    between atoms: C_2  and  C_3
REMARK    2  A    between atoms: C_3  and  C_4
REMARK    3  A    between atoms: C_4  and  C_5
REMARK    4  A    between atoms: C_15  and  C_16
REMARK                            x       y       z     vdW  Elec       q    Type
REMARK                         _______ _______ _______ _____ _____    ______ ____
ROOT
ATOM      1  O   UNL     1       7.617   5.792  15.773  0.00  0.00    +0.000 OA
ATOM      2  C   UNL     1       6.676   6.120  16.504  0.00  0.00    +0.000 C 
ATOM      3  N   UNL     1       5.617   5.271  16.618  0.00  0.00    +0.000 N 
ATOM      4  C   UNL     1       4.438   5.527  17.246  0.00  0.00    +0.000 A 
ATOM      5  N   UNL     1       3.516   4.657  17.586  0.00  0.00    +0.000 NA
ATOM      6  N   UNL     1       2.522   5.375  18.217  0.00  0.00    +0.000 NA
ATOM      7  C   UNL     1       2.879   6.640  18.142  0.00  0.00    +0.000 A 
ATOM      8  O   UNL     1       4.082   6.816  17.532  0.00  0.00    +0.000 OA
ATOM      9  H   UNL     1       5.724   4.352  16.222  0.00  0.00    +0.000 HD
ENDROOT
BRANCH   7  10
ATOM     10  C   UNL     1       2.238   7.816  18.696  0.00  0.00    +0.000 A 
ATOM     11  C   UNL     1       1.892   8.944  17.931  0.00  0.00    +0.000 A 
ATOM     12  C   UNL     1       1.136   9.976  18.510  0.00  0.00    +0.000 A 
ATOM     13  C   UNL     1       0.766   9.900  19.852  0.00  0.00    +0.000 A 
ATOM     14  C   UNL     1       1.228   8.848  20.631  0.00  0.00    +0.000 A 
ATOM     15  C   UNL     1       1.930   7.796  20.057  0.00  0.00    +0.000 A 
ATOM     16  O   UNL     1       1.046   8.792  21.982  0.00  0.00    +0.000 OA
ATOM     17  C   UNL     1      -0.251   9.288  22.284  0.00  0.00    +0.000 C 
ATOM     18  C   UNL     1      -0.510  10.665  21.682  0.00  0.00    +0.000 C 
ATOM     19  O   UNL     1      -0.073  10.865  20.331  0.00  0.00    +0.000 OA
ENDBRANCH   7  10
BRANCH   2  20
ATOM     20  C   UNL     1       6.712   7.393  17.327  0.00  0.00    +0.000 C 
BRANCH  20  21
ATOM     21  C   UNL     1       7.993   7.537  18.142  0.00  0.00    +0.000 C 
BRANCH  21  22
ATOM     22  C   UNL     1       8.342   8.997  18.293  0.00  0.00    +0.000 A 
ATOM     23  C   UNL     1       7.792   9.952  17.426  0.00  0.00    +0.000 A 
ATOM     24  C   UNL     1       8.164  11.293  17.525  0.00  0.00    +0.000 A 
ATOM     25  C   UNL     1       9.090  11.691  18.488  0.00  0.00    +0.000 A 
ATOM     26  C   UNL     1       9.644  10.750  19.353  0.00  0.00    +0.000 A 
ATOM     27  C   UNL     1       9.273   9.409  19.256  0.00  0.00    +0.000 A 
ENDBRANCH  21  22
ENDBRANCH  20  21
ENDBRANCH   2  20
TORSDOF 4
ENDMDL
MODEL 7
REMARK VINA RESULT:      -7.7      2.700      5.798
REMARK  Name = 
REMARK  4 active torsions:
REMARK  status: ('A' for Active; 'I' for Inactive)
REMARK    1  A    between atoms: C_2  and  C_3
REMARK    2  A    between atoms: C_3  and  C_4
REMARK    3  A    between atoms: C_4  and  C_5
REMARK    4  A    between atoms: C_15  and  C_16
REMARK                            x       y       z     vdW  Elec       q    Type
REMARK                         _______ _______ _______ _____ _____    ______ ____
ROOT
ATOM      1  O   UNL     1       1.423   2.396  22.461  0.00  0.00    +0.000 OA
ATOM      2  C   UNL     1       1.957   2.861  21.448  0.00  0.00    +0.000 C 
ATOM      3  N   UNL     1       2.228   2.018  20.413  0.00  0.00    +0.000 N 
ATOM      4  C   UNL     1       2.942   2.313  19.294  0.00  0.00    +0.000 A 
ATOM      5  N   UNL     1       3.002   1.614  18.185  0.00  0.00    +0.000 NA
ATOM      6  N   UNL     1       3.824   2.317  17.330  0.00  0.00    +0.000 NA
ATOM      7  C   UNL     1       4.265   3.353  18.012  0.00  0.00    +0.000 A 
ATOM      8  O   UNL     1       3.753   3.413  19.271  0.00  0.00    +0.000 OA
ATOM      9  H   UNL     1       1.841   1.090  20.467  0.00  0.00    +0.000 HD
ENDROOT
BRANCH   7  10
ATOM     10  C   UNL     1       5.106   4.452  17.584  0.00  0.00    +0.000 A 
ATOM     11  C   UNL     1       4.843   5.230  16.443  0.00  0.00    +0.000 A 
ATOM     12  C   UNL     1       5.619   6.372  16.181  0.00  0.00    +0.000 A 
ATOM     13  C   UNL     1       6.671   6.708  17.031  0.00  0.00    +0.000 A 
ATOM     14  C   UNL     1       7.005   5.858  18.076  0.00  0.00    +0.000 A 
ATOM     15  C   UNL     1       6.214   4.757  18.375  0.00  0.00    +0.000 A 
ATOM     16  O   UNL     1       8.118   6.034  18.846  0.00  0.00    +0.000 OA
ATOM     17  C   UNL     1       8.296   7.425  19.072  0.00  0.00    +0.000 C 
ATOM     18  C   UNL     1       8.303   8.237  17.781  0.00  0.00    +0.000 C 
ATOM     19  O   UNL     1       7.310   7.894  16.805  0.00  0.00    +0.000 OA
ENDBRANCH   7  10
BRANCH   2  20
ATOM     20  C   UNL     1       2.238   4.344  21.304  0.00  0.00    +0.000 C 
BRANCH  20  21
ATOM     21  C   UNL     1       1.036   5.130  20.792  0.00  0.00    +0.000 C 
BRANCH  21  22
ATOM     22  C   UNL     1       1.504   6.373  20.078  0.00  0.00    +0.000 A 
ATOM     23  C   UNL     1       1.220   7.642  20.601  0.00  0.00    +0.000 A 
ATOM     24  C   UNL     1       1.597   8.793  19.908  0.00  0.00    +0.000 A 
ATOM     25  C   UNL     1       2.257   8.685  18.684  0.00  0.00    +0.000 A 
ATOM     26  C   UNL     1       2.542   7.429  18.155  0.00  0.00    +0.000 A 
ATOM     27  C   UNL     1       2.167   6.278  18.847  0.00  0.00    +0.000 A 
ENDBRANCH  21  22
ENDBRANCH  20  21
ENDBRANCH   2  20
TORSDOF 4
ENDMDL
MODEL 8
REMARK VINA RESULT:      -7.7      2.433      7.592
REMARK  Name = 
REMARK  4 active torsions:
REMARK  status: ('A' for Active; 'I' for Inactive)
REMARK    1  A    between atoms: C_2  and  C_3
REMARK    2  A    between atoms: C_3  and  C_4
REMARK    3  A    between atoms: C_4  and  C_5
REMARK    4  A    between atoms: C_15  and  C_16
REMARK                            x       y       z     vdW  Elec       q    Type
REMARK                         _______ _______ _______ _____ _____    ______ ____
ROOT
ATOM      1  O   UNL     1       0.482   8.788  21.432  0.00  0.00    +0.000 OA
ATOM      2  C   UNL     1       1.168   8.122  20.647  0.00  0.00    +0.000 C 
ATOM      3  N   UNL     1       1.508   6.852  21.002  0.00  0.00    +0.000 N 
ATOM      4  C   UNL     1       2.375   6.034  20.346  0.00  0.00    +0.000 A 
ATOM      5  N   UNL     1       2.526   4.741  20.516  0.00  0.00    +0.000 NA
ATOM      6  N   UNL     1       3.493   4.344  19.618  0.00  0.00    +0.000 NA
ATOM      7  C   UNL     1       3.915   5.441  19.023  0.00  0.00    +0.000 A 
ATOM      8  O   UNL     1       3.255   6.555  19.440  0.00  0.00    +0.000 OA
ATOM      9  H   UNL     1       1.057   6.469  21.815  0.00  0.00    +0.000 HD
ENDROOT
BRANCH   7  10
ATOM     10  C   UNL     1       4.874   5.600  17.949  0.00  0.00    +0.000 A 
ATOM     11  C   UNL     1       6.110   6.252  18.104  0.00  0.00    +0.000 A 
ATOM     12  C   UNL     1       7.048   6.231  17.058  0.00  0.00    +0.000 A 
ATOM     13  C   UNL     1       6.736   5.597  15.857  0.00  0.00    +0.000 A 
ATOM     14  C   UNL     1       5.464   5.076  15.668  0.00  0.00    +0.000 A 
ATOM     15  C   UNL     1       4.548   5.044  16.711  0.00  0.00    +0.000 A 
ATOM     16  O   UNL     1       5.033   4.590  14.467  0.00  0.00    +0.000 OA
ATOM     17  C   UNL     1       6.108   3.893  13.851  0.00  0.00    +0.000 C 
ATOM     18  C   UNL     1       7.379   4.731  13.759  0.00  0.00    +0.000 C 
ATOM     19  O   UNL     1       7.727   5.494  14.922  0.00  0.00    +0.000 OA
ENDBRANCH   7  10
BRANCH   2  20
ATOM     20  C   UNL     1       1.565   8.656  19.285  0.00  0.00    +0.000 C 
BRANCH  20  21
ATOM     21  C   UNL     1       1.308  10.152  19.134  0.00  0.00    +0.000 C 
BRANCH  21  22
ATOM     22  C   UNL     1      -0.118  10.386  18.702  0.00  0.00    +0.000 A 
ATOM     23  C   UNL     1      -0.661   9.669  17.626  0.00  0.00    +0.000 A 
ATOM     24  C   UNL     1      -1.958   9.932  17.186  0.00  0.00    +0.000 A 
ATOM     25  C   UNL     1      -2.723  10.913  17.814  0.00  0.00    +0.000 A 
ATOM     26  C   UNL     1      -2.193  11.632  18.883  0.00  0.00    +0.000 A 
ATOM     27  C   UNL     1      -0.896  11.371  19.325  0.00  0.00    +0.000 A 
ENDBRANCH  21  22
ENDBRANCH  20  21
ENDBRANCH   2  20
TORSDOF 4
ENDMDL
MODEL 9
REMARK VINA RESULT:      -7.6      2.313      3.188
REMARK  Name = 
REMARK  4 active torsions:
REMARK  status: ('A' for Active; 'I' for Inactive)
REMARK    1  A    between atoms: C_2  and  C_3
REMARK    2  A    between atoms: C_3  and  C_4
REMARK    3  A    between atoms: C_4  and  C_5
REMARK    4  A    between atoms: C_15  and  C_16
REMARK                            x       y       z     vdW  Elec       q    Type
REMARK                         _______ _______ _______ _____ _____    ______ ____
ROOT
ATOM      1  O   UNL     1       7.970   4.409  16.401  0.00  0.00    +0.000 OA
ATOM      2  C   UNL     1       7.070   4.955  17.049  0.00  0.00    +0.000 C 
ATOM      3  N   UNL     1       6.106   4.171  17.608  0.00  0.00    +0.000 N 
ATOM      4  C   UNL     1       4.968   4.599  18.218  0.00  0.00    +0.000 A 
ATOM      5  N   UNL     1       4.162   3.893  18.975  0.00  0.00    +0.000 NA
ATOM      6  N   UNL     1       3.166   4.753  19.386  0.00  0.00    +0.000 NA
ATOM      7  C   UNL     1       3.399   5.900  18.782  0.00  0.00    +0.000 A 
ATOM      8  O   UNL     1       4.523   5.876  18.017  0.00  0.00    +0.000 OA
ATOM      9  H   UNL     1       6.261   3.177  17.593  0.00  0.00    +0.000 HD
ENDROOT
BRANCH   7  10
ATOM     10  C   UNL     1       2.704   7.165  18.902  0.00  0.00    +0.000 A 
ATOM     11  C   UNL     1       2.576   8.084  17.845  0.00  0.00    +0.000 A 
ATOM     12  C   UNL     1       1.759   9.216  17.997  0.00  0.00    +0.000 A 
ATOM     13  C   UNL     1       1.110   9.447  19.209  0.00  0.00    +0.000 A 
ATOM     14  C   UNL     1       1.351   8.607  20.287  0.00  0.00    +0.000 A 
ATOM     15  C   UNL     1       2.114   7.457  20.132  0.00  0.00    +0.000 A 
ATOM     16  O   UNL     1       0.884   8.863  21.543  0.00  0.00    +0.000 OA
ATOM     17  C   UNL     1      -0.426   9.404  21.436  0.00  0.00    +0.000 C 
ATOM     18  C   UNL     1      -0.493  10.603  20.496  0.00  0.00    +0.000 C 
ATOM     19  O   UNL     1       0.229  10.490  19.263  0.00  0.00    +0.000 OA
ENDBRANCH   7  10
BRANCH   2  20
ATOM     20  C   UNL     1       7.062   6.450  17.299  0.00  0.00    +0.000 C 
BRANCH  20  21
ATOM     21  C   UNL     1       7.947   6.862  18.471  0.00  0.00    +0.000 C 
BRANCH  21  22
ATOM     22  C   UNL     1       8.263   8.334  18.381  0.00  0.00    +0.000 A 
ATOM     23  C   UNL     1       9.114   8.936  19.319  0.00  0.00    +0.000 A 
ATOM     24  C   UNL     1       9.355  10.309  19.274  0.00  0.00    +0.000 A 
ATOM     25  C   UNL     1       8.746  11.093  18.295  0.00  0.00    +0.000 A 
ATOM     26  C   UNL     1       7.897  10.506  17.360  0.00  0.00    +0.000 A 
ATOM     27  C   UNL     1       7.656   9.133  17.403  0.00  0.00    +0.000 A 
ENDBRANCH  21  22
ENDBRANCH  20  21
ENDBRANCH   2  20
TORSDOF 4
ENDMDL
