MODEL 1
REMARK VINA RESULT:      -6.5      0.000      0.000
REMARK  Name = 
REMARK  4 active torsions:
REMARK  status: ('A' for Active; 'I' for Inactive)
REMARK    1  A    between atoms: C_1  and  N_2
REMARK    2  A    between atoms: N_2  and  C_3
REMARK    3  A    between atoms: N_2  and  C_4
REMARK    4  A    between atoms: C_4  and  C_5
REMARK                            x       y       z     vdW  Elec       q    Type
REMARK                         _______ _______ _______ _____ _____    ______ ____
ROOT
ATOM      1  C   UNL     1       5.566   4.350  15.844  0.00  0.00    +0.000 A 
ATOM      2  N   UNL     1       4.603   3.665  16.383  0.00  0.00    +0.000 NA
ATOM      3  C   UNL     1       3.892   4.359  17.377  0.00  0.00    +0.000 A 
ATOM      4  C   UNL     1       4.185   5.644  17.734  0.00  0.00    +0.000 A 
ATOM      5  S   UNL     1       3.185   6.209  18.974  0.00  0.00    +0.000 S 
ATOM      6  C   UNL     1       2.339   4.698  19.062  0.00  0.00    +0.000 A 
ATOM      7  C   UNL     1       1.282   4.361  19.931  0.00  0.00    +0.000 A 
ATOM      8  C   UNL     1       0.728   3.080  19.856  0.00  0.00    +0.000 A 
ATOM      9  C   UNL     1       1.208   2.150  18.944  0.00  0.00    +0.000 A 
ATOM     10  C   UNL     1       2.255   2.486  18.083  0.00  0.00    +0.000 A 
ATOM     11  C   UNL     1       2.834   3.777  18.130  0.00  0.00    +0.000 A 
ATOM     12  C   UNL     1       5.243   6.390  17.122  0.00  0.00    +0.000 A 
ATOM     13  O   UNL     1       5.598   7.532  17.402  0.00  0.00    +0.000 OA
ATOM     14  N   UNL     1       5.885   5.660  16.147  0.00  0.00    +0.000 N 
ATOM     15  H   UNL     1       6.712   6.074  15.737  0.00  0.00    +0.000 HD
ENDROOT
BRANCH   1  16
ATOM     16  C   UNL     1       6.469   3.697  14.807  0.00  0.00    +0.000 C 
BRANCH  16  18
ATOM     17  C   UNL     1       7.570   4.996  13.075  0.00  0.00    +0.000 C 
ATOM     18  N   UNL     1       6.306   4.377  13.502  0.00  0.00    +0.000 NA
ATOM     19  C   UNL     1       5.890   3.396  12.494  0.00  0.00    +0.000 C 
ENDBRANCH  16  18
ENDBRANCH   1  16
TORSDOF 2
ENDMDL
MODEL 2
REMARK VINA RESULT:      -6.5      2.961      4.110
REMARK  Name = 
REMARK  4 active torsions:
REMARK  status: ('A' for Active; 'I' for Inactive)
REMARK    1  A    between atoms: C_1  and  N_2
REMARK    2  A    between atoms: N_2  and  C_3
REMARK    3  A    between atoms: N_2  and  C_4
REMARK    4  A    between atoms: C_4  and  C_5
REMARK                            x       y       z     vdW  Elec       q    Type
REMARK                         _______ _______ _______ _____ _____    ______ ____
ROOT
ATOM      1  C   UNL     1       4.252   4.481  17.485  0.00  0.00    +0.000 A 
ATOM      2  N   UNL     1       3.835   5.708  17.397  0.00  0.00    +0.000 NA
ATOM      3  C   UNL     1       3.092   6.142  18.508  0.00  0.00    +0.000 A 
ATOM      4  C   UNL     1       2.841   5.344  19.587  0.00  0.00    +0.000 A 
ATOM      5  S   UNL     1       1.900   6.122  20.755  0.00  0.00    +0.000 S 
ATOM      6  C   UNL     1       1.799   7.566  19.800  0.00  0.00    +0.000 A 
ATOM      7  C   UNL     1       1.121   8.757  20.124  0.00  0.00    +0.000 A 
ATOM      8  C   UNL     1       1.149   9.819  19.215  0.00  0.00    +0.000 A 
ATOM      9  C   UNL     1       1.829   9.706  18.010  0.00  0.00    +0.000 A 
ATOM     10  C   UNL     1       2.501   8.524  17.692  0.00  0.00    +0.000 A 
ATOM     11  C   UNL     1       2.497   7.432  18.593  0.00  0.00    +0.000 A 
ATOM     12  C   UNL     1       3.319   3.997  19.674  0.00  0.00    +0.000 A 
ATOM     13  O   UNL     1       3.114   3.200  20.586  0.00  0.00    +0.000 OA
ATOM     14  N   UNL     1       4.053   3.642  18.564  0.00  0.00    +0.000 N 
ATOM     15  H   UNL     1       4.339   2.674  18.496  0.00  0.00    +0.000 HD
ENDROOT
BRANCH   1  16
ATOM     16  C   UNL     1       5.005   3.855  16.320  0.00  0.00    +0.000 C 
BRANCH  16  18
ATOM     17  C   UNL     1       7.257   4.569  16.886  0.00  0.00    +0.000 C 
ATOM     18  N   UNL     1       6.144   4.719  15.936  0.00  0.00    +0.000 NA
ATOM     19  C   UNL     1       6.605   4.345  14.595  0.00  0.00    +0.000 C 
ENDBRANCH  16  18
ENDBRANCH   1  16
TORSDOF 2
ENDMDL
MODEL 3
REMARK VINA RESULT:      -6.5      3.712      6.741
REMARK  Name = 
REMARK  4 active torsions:
REMARK  status: ('A' for Active; 'I' for Inactive)
REMARK    1  A    between atoms: C_1  and  N_2
REMARK    2  A    between atoms: N_2  and  C_3
REMARK    3  A    between atoms: N_2  and  C_4
REMARK    4  A    between atoms: C_4  and  C_5
REMARK                            x       y       z     vdW  Elec       q    Type
REMARK                         _______ _______ _______ _____ _____    ______ ____
ROOT
ATOM      1  C   UNL     1       2.164   7.175  19.851  0.00  0.00    +0.000 A 
ATOM      2  N   UNL     1       2.852   7.113  18.751  0.00  0.00    +0.000 NA
ATOM      3  C   UNL     1       3.422   5.853  18.502  0.00  0.00    +0.000 A 
ATOM      4  C   UNL     1       3.257   4.788  19.341  0.00  0.00    +0.000 A 
ATOM      5  S   UNL     1       4.080   3.414  18.803  0.00  0.00    +0.000 S 
ATOM      6  C   UNL     1       4.698   4.252  17.417  0.00  0.00    +0.000 A 
ATOM      7  C   UNL     1       5.540   3.735  16.412  0.00  0.00    +0.000 A 
ATOM      8  C   UNL     1       5.940   4.574  15.368  0.00  0.00    +0.000 A 
ATOM      9  C   UNL     1       5.520   5.896  15.318  0.00  0.00    +0.000 A 
ATOM     10  C   UNL     1       4.685   6.406  16.315  0.00  0.00    +0.000 A 
ATOM     11  C   UNL     1       4.257   5.581  17.382  0.00  0.00    +0.000 A 
ATOM     12  C   UNL     1       2.485   4.870  20.545  0.00  0.00    +0.000 A 
ATOM     13  O   UNL     1       2.312   3.979  21.372  0.00  0.00    +0.000 OA
ATOM     14  N   UNL     1       1.941   6.123  20.718  0.00  0.00    +0.000 N 
ATOM     15  H   UNL     1       1.468   6.298  21.595  0.00  0.00    +0.000 HD
ENDROOT
BRANCH   1  16
ATOM     16  C   UNL     1       1.552   8.500  20.284  0.00  0.00    +0.000 C 
BRANCH  16  18
ATOM     17  C   UNL     1       1.518   9.304  22.577  0.00  0.00    +0.000 C 
ATOM     18  N   UNL     1       0.931   8.353  21.620  0.00  0.00    +0.000 NA
ATOM     19  C   UNL     1      -0.510   8.608  21.514  0.00  0.00    +0.000 C 
ENDBRANCH  16  18
ENDBRANCH   1  16
TORSDOF 2
ENDMDL
MODEL 4
REMARK VINA RESULT:      -6.5      1.535      1.874
REMARK  Name = 
REMARK  4 active torsions:
REMARK  status: ('A' for Active; 'I' for Inactive)
REMARK    1  A    between atoms: C_1  and  N_2
REMARK    2  A    between atoms: N_2  and  C_3
REMARK    3  A    between atoms: N_2  and  C_4
REMARK    4  A    between atoms: C_4  and  C_5
REMARK                            x       y       z     vdW  Elec       q    Type
REMARK                         _______ _______ _______ _____ _____    ______ ____
ROOT
ATOM      1  C   UNL     1       6.275   4.634  14.691  0.00  0.00    +0.000 A 
ATOM      2  N   UNL     1       5.255   4.035  15.228  0.00  0.00    +0.000 NA
ATOM      3  C   UNL     1       5.094   4.296  16.600  0.00  0.00    +0.000 A 
ATOM      4  C   UNL     1       5.932   5.116  17.300  0.00  0.00    +0.000 A 
ATOM      5  S   UNL     1       5.513   5.218  18.934  0.00  0.00    +0.000 S 
ATOM      6  C   UNL     1       4.183   4.126  18.723  0.00  0.00    +0.000 A 
ATOM      7  C   UNL     1       3.284   3.676  19.710  0.00  0.00    +0.000 A 
ATOM      8  C   UNL     1       2.271   2.784  19.346  0.00  0.00    +0.000 A 
ATOM      9  C   UNL     1       2.150   2.343  18.035  0.00  0.00    +0.000 A 
ATOM     10  C   UNL     1       3.042   2.791  17.058  0.00  0.00    +0.000 A 
ATOM     11  C   UNL     1       4.075   3.699  17.394  0.00  0.00    +0.000 A 
ATOM     12  C   UNL     1       7.045   5.779  16.689  0.00  0.00    +0.000 A 
ATOM     13  O   UNL     1       7.867   6.503  17.246  0.00  0.00    +0.000 OA
ATOM     14  N   UNL     1       7.134   5.496  15.345  0.00  0.00    +0.000 N 
ATOM     15  H   UNL     1       7.953   5.840  14.859  0.00  0.00    +0.000 HD
ENDROOT
BRANCH   1  16
ATOM     16  C   UNL     1       6.614   4.382  13.229  0.00  0.00    +0.000 C 
BRANCH  16  18
ATOM     17  C   UNL     1       4.671   3.703  11.938  0.00  0.00    +0.000 C 
ATOM     18  N   UNL     1       5.825   3.236  12.722  0.00  0.00    +0.000 NA
ATOM     19  C   UNL     1       6.678   2.402  11.868  0.00  0.00    +0.000 C 
ENDBRANCH  16  18
ENDBRANCH   1  16
TORSDOF 2
ENDMDL
MODEL 5
REMARK VINA RESULT:      -6.5      2.197      6.013
REMARK  Name = 
REMARK  4 active torsions:
REMARK  status: ('A' for Active; 'I' for Inactive)
REMARK    1  A    between atoms: C_1  and  N_2
REMARK    2  A    between atoms: N_2  and  C_3
REMARK    3  A    between atoms: N_2  and  C_4
REMARK    4  A    between atoms: C_4  and  C_5
REMARK                            x       y       z     vdW  Elec       q    Type
REMARK                         _______ _______ _______ _____ _____    ______ ____
ROOT
ATOM      1  C   UNL     1       3.978   3.429  18.453  0.00  0.00    +0.000 A 
ATOM      2  N   UNL     1       4.206   3.308  17.180  0.00  0.00    +0.000 NA
ATOM      3  C   UNL     1       5.329   4.022  16.729  0.00  0.00    +0.000 A 
ATOM      4  C   UNL     1       6.116   4.767  17.561  0.00  0.00    +0.000 A 
ATOM      5  S   UNL     1       7.374   5.536  16.736  0.00  0.00    +0.000 S 
ATOM      6  C   UNL     1       6.861   4.879  15.216  0.00  0.00    +0.000 A 
ATOM      7  C   UNL     1       7.451   5.086  13.954  0.00  0.00    +0.000 A 
ATOM      8  C   UNL     1       6.885   4.472  12.833  0.00  0.00    +0.000 A 
ATOM      9  C   UNL     1       5.757   3.671  12.956  0.00  0.00    +0.000 A 
ATOM     10  C   UNL     1       5.174   3.467  14.208  0.00  0.00    +0.000 A 
ATOM     11  C   UNL     1       5.727   4.070  15.363  0.00  0.00    +0.000 A 
ATOM     12  C   UNL     1       5.857   4.880  18.965  0.00  0.00    +0.000 A 
ATOM     13  O   UNL     1       6.487   5.551  19.778  0.00  0.00    +0.000 OA
ATOM     14  N   UNL     1       4.756   4.144  19.343  0.00  0.00    +0.000 N 
ATOM     15  H   UNL     1       4.442   4.251  20.299  0.00  0.00    +0.000 HD
ENDROOT
BRANCH   1  16
ATOM     16  C   UNL     1       2.749   2.771  19.065  0.00  0.00    +0.000 C 
BRANCH  16  18
ATOM     17  C   UNL     1       1.009   4.141  20.065  0.00  0.00    +0.000 C 
ATOM     18  N   UNL     1       2.328   3.521  20.270  0.00  0.00    +0.000 NA
ATOM     19  C   UNL     1       2.251   2.601  21.410  0.00  0.00    +0.000 C 
ENDBRANCH  16  18
ENDBRANCH   1  16
TORSDOF 2
ENDMDL
MODEL 6
REMARK VINA RESULT:      -6.5      5.105      7.106
REMARK  Name = 
REMARK  4 active torsions:
REMARK  status: ('A' for Active; 'I' for Inactive)
REMARK    1  A    between atoms: C_1  and  N_2
REMARK    2  A    between atoms: N_2  and  C_3
REMARK    3  A    between atoms: N_2  and  C_4
REMARK    4  A    between atoms: C_4  and  C_5
REMARK                            x       y       z     vdW  Elec       q    Type
REMARK                         _______ _______ _______ _____ _____    ______ ____
ROOT
ATOM      1  C   UNL     1       2.155   6.643  19.957  0.00  0.00    +0.000 A 
ATOM      2  N   UNL     1       1.453   7.272  20.851  0.00  0.00    +0.000 NA
ATOM      3  C   UNL     1       1.068   8.568  20.471  0.00  0.00    +0.000 A 
ATOM      4  C   UNL     1       1.397   9.113  19.262  0.00  0.00    +0.000 A 
ATOM      5  S   UNL     1       0.826  10.694  19.093  0.00  0.00    +0.000 S 
ATOM      6  C   UNL     1       0.129  10.676  20.681  0.00  0.00    +0.000 A 
ATOM      7  C   UNL     1      -0.572  11.719  21.317  0.00  0.00    +0.000 A 
ATOM      8  C   UNL     1      -1.057  11.517  22.612  0.00  0.00    +0.000 A 
ATOM      9  C   UNL     1      -0.852  10.310  23.267  0.00  0.00    +0.000 A 
ATOM     10  C   UNL     1      -0.158   9.277  22.634  0.00  0.00    +0.000 A 
ATOM     11  C   UNL     1       0.341   9.448  21.321  0.00  0.00    +0.000 A 
ATOM     12  C   UNL     1       2.163   8.402  18.283  0.00  0.00    +0.000 A 
ATOM     13  O   UNL     1       2.532   8.822  17.189  0.00  0.00    +0.000 OA
ATOM     14  N   UNL     1       2.490   7.135  18.711  0.00  0.00    +0.000 N 
ATOM     15  H   UNL     1       3.118   6.602  18.123  0.00  0.00    +0.000 HD
ENDROOT
BRANCH   1  16
ATOM     16  C   UNL     1       2.704   5.258  20.266  0.00  0.00    +0.000 C 
BRANCH  16  18
ATOM     17  C   UNL     1       0.994   3.658  19.621  0.00  0.00    +0.000 C 
ATOM     18  N   UNL     1       1.612   4.381  20.744  0.00  0.00    +0.000 NA
ATOM     19  C   UNL     1       2.154   3.408  21.698  0.00  0.00    +0.000 C 
ENDBRANCH  16  18
ENDBRANCH   1  16
TORSDOF 2
ENDMDL
MODEL 7
REMARK VINA RESULT:      -6.4      2.574      3.538
REMARK  Name = 
REMARK  4 active torsions:
REMARK  status: ('A' for Active; 'I' for Inactive)
REMARK    1  A    between atoms: C_1  and  N_2
REMARK    2  A    between atoms: N_2  and  C_3
REMARK    3  A    between atoms: N_2  and  C_4
REMARK    4  A    between atoms: C_4  and  C_5
REMARK                            x       y       z     vdW  Elec       q    Type
REMARK                         _______ _______ _______ _____ _____    ______ ____
ROOT
ATOM      1  C   UNL     1       5.083   4.088  17.111  0.00  0.00    +0.000 A 
ATOM      2  N   UNL     1       4.555   5.275  17.088  0.00  0.00    +0.000 NA
ATOM      3  C   UNL     1       3.778   5.578  18.218  0.00  0.00    +0.000 A 
ATOM      4  C   UNL     1       3.604   4.703  19.253  0.00  0.00    +0.000 A 
ATOM      5  S   UNL     1       2.598   5.327  20.458  0.00  0.00    +0.000 S 
ATOM      6  C   UNL     1       2.363   6.805  19.583  0.00  0.00    +0.000 A 
ATOM      7  C   UNL     1       1.579   7.910  19.968  0.00  0.00    +0.000 A 
ATOM      8  C   UNL     1       1.508   9.018  19.119  0.00  0.00    +0.000 A 
ATOM      9  C   UNL     1       2.193   9.033  17.912  0.00  0.00    +0.000 A 
ATOM     10  C   UNL     1       2.970   7.936  17.531  0.00  0.00    +0.000 A 
ATOM     11  C   UNL     1       3.068   6.802  18.372  0.00  0.00    +0.000 A 
ATOM     12  C   UNL     1       4.203   3.402  19.267  0.00  0.00    +0.000 A 
ATOM     13  O   UNL     1       4.073   2.542  20.134  0.00  0.00    +0.000 OA
ATOM     14  N   UNL     1       4.964   3.177  18.142  0.00  0.00    +0.000 N 
ATOM     15  H   UNL     1       5.337   2.245  18.023  0.00  0.00    +0.000 HD
ENDROOT
BRANCH   1  16
ATOM     16  C   UNL     1       5.888   3.598  15.915  0.00  0.00    +0.000 C 
BRANCH  16  18
ATOM     17  C   UNL     1       7.205   5.161  14.603  0.00  0.00    +0.000 C 
ATOM     18  N   UNL     1       5.860   4.615  14.840  0.00  0.00    +0.000 NA
ATOM     19  C   UNL     1       5.369   3.999  13.603  0.00  0.00    +0.000 C 
ENDBRANCH  16  18
ENDBRANCH   1  16
TORSDOF 2
ENDMDL
MODEL 8
REMARK VINA RESULT:      -6.4      2.270      3.556
REMARK  Name = 
REMARK  4 active torsions:
REMARK  status: ('A' for Active; 'I' for Inactive)
REMARK    1  A    between atoms: C_1  and  N_2
REMARK    2  A    between atoms: N_2  and  C_3
REMARK    3  A    between atoms: N_2  and  C_4
REMARK    4  A    between atoms: C_4  and  C_5
REMARK                            x       y       z     vdW  Elec       q    Type
REMARK                         _______ _______ _______ _____ _____    ______ ____
ROOT
ATOM      1  C   UNL     1       5.517   6.259  17.257  0.00  0.00    +0.000 A 
ATOM      2  N   UNL     1       4.582   6.069  18.138  0.00  0.00    +0.000 NA
ATOM      3  C   UNL     1       4.021   4.781  18.110  0.00  0.00    +0.000 A 
ATOM      4  C   UNL     1       4.434   3.813  17.238  0.00  0.00    +0.000 A 
ATOM      5  S   UNL     1       3.561   2.377  17.414  0.00  0.00    +0.000 S 
ATOM      6  C   UNL     1       2.586   3.053  18.678  0.00  0.00    +0.000 A 
ATOM      7  C   UNL     1       1.544   2.419  19.383  0.00  0.00    +0.000 A 
ATOM      8  C   UNL     1       0.863   3.136  20.372  0.00  0.00    +0.000 A 
ATOM      9  C   UNL     1       1.202   4.452  20.656  0.00  0.00    +0.000 A 
ATOM     10  C   UNL     1       2.235   5.078  19.955  0.00  0.00    +0.000 A 
ATOM     11  C   UNL     1       2.948   4.378  18.953  0.00  0.00    +0.000 A 
ATOM     12  C   UNL     1       5.474   4.036  16.280  0.00  0.00    +0.000 A 
ATOM     13  O   UNL     1       5.884   3.240  15.439  0.00  0.00    +0.000 OA
ATOM     14  N   UNL     1       5.992   5.309  16.373  0.00  0.00    +0.000 N 
ATOM     15  H   UNL     1       6.659   5.583  15.664  0.00  0.00    +0.000 HD
ENDROOT
BRANCH   1  16
ATOM     16  C   UNL     1       6.160   7.632  17.123  0.00  0.00    +0.000 C 
BRANCH  16  18
ATOM     17  C   UNL     1       8.149   8.852  17.800  0.00  0.00    +0.000 C 
ATOM     18  N   UNL     1       7.608   7.538  17.416  0.00  0.00    +0.000 NA
ATOM     19  C   UNL     1       7.819   6.594  18.518  0.00  0.00    +0.000 C 
ENDBRANCH  16  18
ENDBRANCH   1  16
TORSDOF 2
ENDMDL
MODEL 9
REMARK VINA RESULT:      -6.4      3.955      6.957
REMARK  Name = 
REMARK  4 active torsions:
REMARK  status: ('A' for Active; 'I' for Inactive)
REMARK    1  A    between atoms: C_1  and  N_2
REMARK    2  A    between atoms: N_2  and  C_3
REMARK    3  A    between atoms: N_2  and  C_4
REMARK    4  A    between atoms: C_4  and  C_5
REMARK                            x       y       z     vdW  Elec       q    Type
REMARK                         _______ _______ _______ _____ _____    ______ ____
ROOT
ATOM      1  C   UNL     1       1.831   7.076  20.544  0.00  0.00    +0.000 A 
ATOM      2  N   UNL     1       2.607   7.177  19.508  0.00  0.00    +0.000 NA
ATOM      3  C   UNL     1       2.898   5.950  18.887  0.00  0.00    +0.000 A 
ATOM      4  C   UNL     1       2.397   4.759  19.332  0.00  0.00    +0.000 A 
ATOM      5  S   UNL     1       2.938   3.451  18.410  0.00  0.00    +0.000 S 
ATOM      6  C   UNL     1       3.886   4.484  17.390  0.00  0.00    +0.000 A 
ATOM      7  C   UNL     1       4.697   4.100  16.304  0.00  0.00    +0.000 A 
ATOM      8  C   UNL     1       5.396   5.085  15.600  0.00  0.00    +0.000 A 
ATOM      9  C   UNL     1       5.300   6.421  15.964  0.00  0.00    +0.000 A 
ATOM     10  C   UNL     1       4.496   6.800  17.041  0.00  0.00    +0.000 A 
ATOM     11  C   UNL     1       3.770   5.827  17.770  0.00  0.00    +0.000 A 
ATOM     12  C   UNL     1       1.532   4.667  20.470  0.00  0.00    +0.000 A 
ATOM     13  O   UNL     1       1.064   3.641  20.958  0.00  0.00    +0.000 OA
ATOM     14  N   UNL     1       1.274   5.903  21.018  0.00  0.00    +0.000 N 
ATOM     15  H   UNL     1       0.756   5.918  21.887  0.00  0.00    +0.000 HD
ENDROOT
BRANCH   1  16
ATOM     16  C   UNL     1       1.495   8.317  21.359  0.00  0.00    +0.000 C 
BRANCH  16  18
ATOM     17  C   UNL     1      -0.519   9.065  22.493  0.00  0.00    +0.000 C 
ATOM     18  N   UNL     1       0.059   8.643  21.208  0.00  0.00    +0.000 NA
ATOM     19  C   UNL     1      -0.090   9.731  20.235  0.00  0.00    +0.000 C 
ENDBRANCH  16  18
ENDBRANCH   1  16
TORSDOF 2
ENDMDL
