MODEL 1
REMARK VINA RESULT:      -8.2      0.000      0.000
REMARK  Name = 
REMARK  6 active torsions:
REMARK  status: ('A' for Active; 'I' for Inactive)
REMARK    1  A    between atoms: C_1  and  C_2
REMARK    2  A    between atoms: N_5  and  C_6
REMARK    3  A    between atoms: C_8  and  C_9
REMARK    4  A    between atoms: C_17  and  N_18
REMARK    5  A    between atoms: C_19  and  C_21
REMARK    6  A    between atoms: C_24  and  C_25
REMARK                            x       y       z     vdW  Elec       q    Type
REMARK                         _______ _______ _______ _____ _____    ______ ____
ROOT
ATOM      1  C   UNL     1       2.411   6.515  19.377  0.00  0.00    +0.000 A 
ATOM      2  C   UNL     1       1.679   7.348  20.260  0.00  0.00    +0.000 A 
ATOM      3  C   UNL     1       1.424   8.714  20.024  0.00  0.00    +0.000 A 
ATOM      4  C   UNL     1       1.954   9.282  18.867  0.00  0.00    +0.000 A 
ATOM      5  C   UNL     1       2.685   8.508  17.972  0.00  0.00    +0.000 A 
ATOM      6  C   UNL     1       2.919   7.144  18.212  0.00  0.00    +0.000 A 
ENDROOT
BRANCH   1  11
ATOM      7  C   UNL     1       3.576   1.316  18.246  0.00  0.00    +0.000 C 
ATOM      8  C   UNL     1       2.933   2.325  19.200  0.00  0.00    +0.000 C 
ATOM      9  C   UNL     1       1.826   3.090  18.461  0.00  0.00    +0.000 C 
ATOM     10  C   UNL     1       1.312   4.287  19.252  0.00  0.00    +0.000 C 
ATOM     11  N   UNL     1       2.455   5.140  19.607  0.00  0.00    +0.000 N 
ATOM     12  C   UNL     1       3.411   4.490  20.497  0.00  0.00    +0.000 C 
ATOM     13  C   UNL     1       4.004   3.269  19.786  0.00  0.00    +0.000 C 
ENDBRANCH   1  11
BRANCH   3  14
ATOM     14  C   UNL     1       0.539   9.508  20.914  0.00  0.00    +0.000 C 
ATOM     15  C   UNL     1       0.252  10.807  20.701  0.00  0.00    +0.000 C 
ATOM     16  C   UNL     1      -0.607  11.636  21.615  0.00  0.00    +0.000 C 
ATOM     17  N   UNL     1      -1.356  10.864  22.608  0.00  0.00    +0.000 NA
ATOM     18  C   UNL     1      -0.504   9.829  23.199  0.00  0.00    +0.000 C 
ATOM     19  C   UNL     1      -0.029   8.823  22.142  0.00  0.00    +0.000 C 
ATOM     20  H   UNL     1      -2.132  10.411  22.128  0.00  0.00    +0.000 HD
ENDBRANCH   3  14
BRANCH   6  21
ATOM     21  N   UNL     1       3.662   6.462  17.240  0.00  0.00    +0.000 N 
ATOM     22  C   UNL     1       4.968   6.033  17.425  0.00  0.00    +0.000 C 
ATOM     23  O   UNL     1       5.647   6.277  18.417  0.00  0.00    +0.000 OA
ATOM     24  H   UNL     1       3.260   6.333  16.325  0.00  0.00    +0.000 HD
BRANCH  22  25
ATOM     25  C   UNL     1       5.483   5.278  16.299  0.00  0.00    +0.000 A 
ATOM     26  C   UNL     1       5.198   3.995  15.862  0.00  0.00    +0.000 A 
ATOM     27  C   UNL     1       5.952   3.782  14.682  0.00  0.00    +0.000 A 
ATOM     28  C   UNL     1       6.660   4.943  14.474  0.00  0.00    +0.000 A 
ATOM     29  O   UNL     1       6.396   5.854  15.450  0.00  0.00    +0.000 OA
BRANCH  28  30
ATOM     30  C   UNL     1       7.568   5.323  13.449  0.00  0.00    +0.000 C 
ATOM     31  N   UNL     1       8.304   5.624  12.609  0.00  0.00    +0.000 NA
ENDBRANCH  28  30
ENDBRANCH  22  25
ENDBRANCH   6  21
TORSDOF 5
ENDMDL
MODEL 2
REMARK VINA RESULT:      -7.8      1.189      1.580
REMARK  Name = 
REMARK  6 active torsions:
REMARK  status: ('A' for Active; 'I' for Inactive)
REMARK    1  A    between atoms: C_1  and  C_2
REMARK    2  A    between atoms: N_5  and  C_6
REMARK    3  A    between atoms: C_8  and  C_9
REMARK    4  A    between atoms: C_17  and  N_18
REMARK    5  A    between atoms: C_19  and  C_21
REMARK    6  A    between atoms: C_24  and  C_25
REMARK                            x       y       z     vdW  Elec       q    Type
REMARK                         _______ _______ _______ _____ _____    ______ ____
ROOT
ATOM      1  C   UNL     1       2.841   6.570  19.258  0.00  0.00    +0.000 A 
ATOM      2  C   UNL     1       2.078   7.402  20.115  0.00  0.00    +0.000 A 
ATOM      3  C   UNL     1       1.596   8.676  19.751  0.00  0.00    +0.000 A 
ATOM      4  C   UNL     1       1.920   9.154  18.483  0.00  0.00    +0.000 A 
ATOM      5  C   UNL     1       2.672   8.377  17.607  0.00  0.00    +0.000 A 
ATOM      6  C   UNL     1       3.133   7.104  17.977  0.00  0.00    +0.000 A 
ENDROOT
BRANCH   1  11
ATOM      7  C   UNL     1       3.540   1.218  18.530  0.00  0.00    +0.000 C 
ATOM      8  C   UNL     1       3.488   2.401  19.499  0.00  0.00    +0.000 C 
ATOM      9  C   UNL     1       2.102   3.057  19.426  0.00  0.00    +0.000 C 
ATOM     10  C   UNL     1       2.046   4.392  20.160  0.00  0.00    +0.000 C 
ATOM     11  N   UNL     1       3.115   5.257  19.641  0.00  0.00    +0.000 N 
ATOM     12  C   UNL     1       4.455   4.745  19.904  0.00  0.00    +0.000 C 
ATOM     13  C   UNL     1       4.624   3.398  19.192  0.00  0.00    +0.000 C 
ENDBRANCH   1  11
BRANCH   3  14
ATOM     14  C   UNL     1       0.689   9.451  20.637  0.00  0.00    +0.000 C 
ATOM     15  C   UNL     1       0.311   9.026  21.858  0.00  0.00    +0.000 C 
ATOM     16  C   UNL     1      -0.640   9.777  22.749  0.00  0.00    +0.000 C 
ATOM     17  N   UNL     1      -0.909  11.152  22.325  0.00  0.00    +0.000 NA
ATOM     18  C   UNL     1      -1.117  11.209  20.876  0.00  0.00    +0.000 C 
ATOM     19  C   UNL     1       0.136  10.761  20.111  0.00  0.00    +0.000 C 
ATOM     20  H   UNL     1      -0.091  11.714  22.557  0.00  0.00    +0.000 HD
ENDBRANCH   3  14
BRANCH   6  21
ATOM     21  N   UNL     1       3.875   6.408  17.013  0.00  0.00    +0.000 N 
ATOM     22  C   UNL     1       5.252   6.508  16.877  0.00  0.00    +0.000 C 
ATOM     23  O   UNL     1       5.961   7.277  17.518  0.00  0.00    +0.000 OA
ATOM     24  H   UNL     1       3.383   5.856  16.329  0.00  0.00    +0.000 HD
BRANCH  22  25
ATOM     25  C   UNL     1       5.788   5.625  15.861  0.00  0.00    +0.000 A 
ATOM     26  C   UNL     1       7.034   5.029  15.743  0.00  0.00    +0.000 A 
ATOM     27  C   UNL     1       6.999   4.223  14.578  0.00  0.00    +0.000 A 
ATOM     28  C   UNL     1       5.739   4.381  14.050  0.00  0.00    +0.000 A 
ATOM     29  O   UNL     1       4.998   5.235  14.807  0.00  0.00    +0.000 OA
BRANCH  28  30
ATOM     30  C   UNL     1       5.121   3.815  12.902  0.00  0.00    +0.000 C 
ATOM     31  N   UNL     1       4.618   3.345  11.972  0.00  0.00    +0.000 NA
ENDBRANCH  28  30
ENDBRANCH  22  25
ENDBRANCH   6  21
TORSDOF 5
ENDMDL
MODEL 3
REMARK VINA RESULT:      -7.6      1.935      8.177
REMARK  Name = 
REMARK  6 active torsions:
REMARK  status: ('A' for Active; 'I' for Inactive)
REMARK    1  A    between atoms: C_1  and  C_2
REMARK    2  A    between atoms: N_5  and  C_6
REMARK    3  A    between atoms: C_8  and  C_9
REMARK    4  A    between atoms: C_17  and  N_18
REMARK    5  A    between atoms: C_19  and  C_21
REMARK    6  A    between atoms: C_24  and  C_25
REMARK                            x       y       z     vdW  Elec       q    Type
REMARK                         _______ _______ _______ _____ _____    ______ ____
ROOT
ATOM      1  C   UNL     1       3.560   4.844  17.304  0.00  0.00    +0.000 A 
ATOM      2  C   UNL     1       4.256   4.382  16.159  0.00  0.00    +0.000 A 
ATOM      3  C   UNL     1       5.101   5.190  15.372  0.00  0.00    +0.000 A 
ATOM      4  C   UNL     1       5.231   6.531  15.727  0.00  0.00    +0.000 A 
ATOM      5  C   UNL     1       4.564   7.035  16.840  0.00  0.00    +0.000 A 
ATOM      6  C   UNL     1       3.737   6.215  17.624  0.00  0.00    +0.000 A 
ENDROOT
BRANCH   1  11
ATOM      7  C   UNL     1       1.656   2.822  21.989  0.00  0.00    +0.000 C 
ATOM      8  C   UNL     1       1.836   2.652  20.479  0.00  0.00    +0.000 C 
ATOM      9  C   UNL     1       3.333   2.651  20.143  0.00  0.00    +0.000 C 
ATOM     10  C   UNL     1       3.597   2.749  18.644  0.00  0.00    +0.000 C 
ATOM     11  N   UNL     1       2.896   3.929  18.120  0.00  0.00    +0.000 N 
ATOM     12  C   UNL     1       1.444   3.841  18.236  0.00  0.00    +0.000 C 
ATOM     13  C   UNL     1       1.066   3.752  19.719  0.00  0.00    +0.000 C 
ENDBRANCH   1  11
BRANCH   3  14
ATOM     14  C   UNL     1       5.911   4.625  14.262  0.00  0.00    +0.000 C 
ATOM     15  C   UNL     1       7.111   5.118  13.899  0.00  0.00    +0.000 C 
ATOM     16  C   UNL     1       7.923   4.585  12.752  0.00  0.00    +0.000 C 
ATOM     17  N   UNL     1       7.459   3.299  12.227  0.00  0.00    +0.000 NA
ATOM     18  C   UNL     1       5.999   3.291  12.111  0.00  0.00    +0.000 C 
ATOM     19  C   UNL     1       5.327   3.464  13.481  0.00  0.00    +0.000 C 
ATOM     20  H   UNL     1       7.736   2.575  12.888  0.00  0.00    +0.000 HD
ENDBRANCH   3  14
BRANCH   6  21
ATOM     21  N   UNL     1       3.120   6.826  18.723  0.00  0.00    +0.000 N 
ATOM     22  C   UNL     1       2.225   7.881  18.621  0.00  0.00    +0.000 C 
ATOM     23  O   UNL     1       1.942   8.454  17.573  0.00  0.00    +0.000 OA
ATOM     24  H   UNL     1       3.389   6.539  19.651  0.00  0.00    +0.000 HD
BRANCH  22  25
ATOM     25  C   UNL     1       1.665   8.277  19.897  0.00  0.00    +0.000 A 
ATOM     26  C   UNL     1       1.543   7.581  21.089  0.00  0.00    +0.000 A 
ATOM     27  C   UNL     1       0.963   8.468  22.029  0.00  0.00    +0.000 A 
ATOM     28  C   UNL     1       0.758   9.649  21.355  0.00  0.00    +0.000 A 
ATOM     29  O   UNL     1       1.166   9.547  20.061  0.00  0.00    +0.000 OA
BRANCH  28  30
ATOM     30  C   UNL     1       0.223  10.895  21.778  0.00  0.00    +0.000 C 
ATOM     31  N   UNL     1      -0.214  11.907  22.132  0.00  0.00    +0.000 NA
ENDBRANCH  28  30
ENDBRANCH  22  25
ENDBRANCH   6  21
TORSDOF 5
ENDMDL
MODEL 4
REMARK VINA RESULT:      -7.5      0.877      1.430
REMARK  Name = 
REMARK  6 active torsions:
REMARK  status: ('A' for Active; 'I' for Inactive)
REMARK    1  A    between atoms: C_1  and  C_2
REMARK    2  A    between atoms: N_5  and  C_6
REMARK    3  A    between atoms: C_8  and  C_9
REMARK    4  A    between atoms: C_17  and  N_18
REMARK    5  A    between atoms: C_19  and  C_21
REMARK    6  A    between atoms: C_24  and  C_25
REMARK                            x       y       z     vdW  Elec       q    Type
REMARK                         _______ _______ _______ _____ _____    ______ ____
ROOT
ATOM      1  C   UNL     1       2.296   6.685  19.359  0.00  0.00    +0.000 A 
ATOM      2  C   UNL     1       1.574   7.544  20.225  0.00  0.00    +0.000 A 
ATOM      3  C   UNL     1       1.342   8.910  19.966  0.00  0.00    +0.000 A 
ATOM      4  C   UNL     1       1.886   9.451  18.802  0.00  0.00    +0.000 A 
ATOM      5  C   UNL     1       2.608   8.650  17.923  0.00  0.00    +0.000 A 
ATOM      6  C   UNL     1       2.818   7.287  18.186  0.00  0.00    +0.000 A 
ENDROOT
BRANCH   1  11
ATOM      7  C   UNL     1       1.194   2.117  22.113  0.00  0.00    +0.000 C 
ATOM      8  C   UNL     1       1.890   2.780  20.922  0.00  0.00    +0.000 C 
ATOM      9  C   UNL     1       2.901   3.815  21.436  0.00  0.00    +0.000 C 
ATOM     10  C   UNL     1       3.447   4.702  20.323  0.00  0.00    +0.000 C 
ATOM     11  N   UNL     1       2.316   5.314  19.612  0.00  0.00    +0.000 N 
ATOM     12  C   UNL     1       1.466   4.345  18.929  0.00  0.00    +0.000 C 
ATOM     13  C   UNL     1       0.849   3.403  19.969  0.00  0.00    +0.000 C 
ENDBRANCH   1  11
BRANCH   3  14
ATOM     14  C   UNL     1       0.466   9.734  20.839  0.00  0.00    +0.000 C 
ATOM     15  C   UNL     1       0.238  11.045  20.629  0.00  0.00    +0.000 C 
ATOM     16  C   UNL     1      -0.611  11.901  21.526  0.00  0.00    +0.000 C 
ATOM     17  N   UNL     1      -1.417  11.153  22.493  0.00  0.00    +0.000 NA
ATOM     18  C   UNL     1      -0.624  10.080  23.098  0.00  0.00    +0.000 C 
ATOM     19  C   UNL     1      -0.161   9.063  22.045  0.00  0.00    +0.000 C 
ATOM     20  H   UNL     1      -2.198  10.735  21.989  0.00  0.00    +0.000 HD
ENDBRANCH   3  14
BRANCH   6  21
ATOM     21  N   UNL     1       3.554   6.577  17.229  0.00  0.00    +0.000 N 
ATOM     22  C   UNL     1       4.897   6.255  17.367  0.00  0.00    +0.000 C 
ATOM     23  O   UNL     1       5.610   6.629  18.292  0.00  0.00    +0.000 OA
ATOM     24  H   UNL     1       3.113   6.343  16.354  0.00  0.00    +0.000 HD
BRANCH  22  25
ATOM     25  C   UNL     1       5.402   5.445  16.277  0.00  0.00    +0.000 A 
ATOM     26  C   UNL     1       5.085   4.154  15.885  0.00  0.00    +0.000 A 
ATOM     27  C   UNL     1       5.847   3.876  14.723  0.00  0.00    +0.000 A 
ATOM     28  C   UNL     1       6.588   5.008  14.479  0.00  0.00    +0.000 A 
ATOM     29  O   UNL     1       6.340   5.962  15.417  0.00  0.00    +0.000 OA
BRANCH  28  30
ATOM     30  C   UNL     1       7.518   5.323  13.452  0.00  0.00    +0.000 C 
ATOM     31  N   UNL     1       8.278   5.588  12.620  0.00  0.00    +0.000 NA
ENDBRANCH  28  30
ENDBRANCH  22  25
ENDBRANCH   6  21
TORSDOF 5
ENDMDL
MODEL 5
REMARK VINA RESULT:      -7.3      3.693      9.993
REMARK  Name = 
REMARK  6 active torsions:
REMARK  status: ('A' for Active; 'I' for Inactive)
REMARK    1  A    between atoms: C_1  and  C_2
REMARK    2  A    between atoms: N_5  and  C_6
REMARK    3  A    between atoms: C_8  and  C_9
REMARK    4  A    between atoms: C_17  and  N_18
REMARK    5  A    between atoms: C_19  and  C_21
REMARK    6  A    between atoms: C_24  and  C_25
REMARK                            x       y       z     vdW  Elec       q    Type
REMARK                         _______ _______ _______ _____ _____    ______ ____
ROOT
ATOM      1  C   UNL     1       0.254   9.703  19.288  0.00  0.00    +0.000 A 
ATOM      2  C   UNL     1       1.098   8.777  18.626  0.00  0.00    +0.000 A 
ATOM      3  C   UNL     1       1.954   7.875  19.290  0.00  0.00    +0.000 A 
ATOM      4  C   UNL     1       1.992   7.924  20.682  0.00  0.00    +0.000 A 
ATOM      5  C   UNL     1       1.188   8.820  21.379  0.00  0.00    +0.000 A 
ATOM      6  C   UNL     1       0.328   9.702  20.705  0.00  0.00    +0.000 A 
ENDROOT
BRANCH   1  11
ATOM      7  C   UNL     1      -4.666  11.737  18.143  0.00  0.00    +0.000 C 
ATOM      8  C   UNL     1      -3.204  11.564  17.728  0.00  0.00    +0.000 C 
ATOM      9  C   UNL     1      -2.890  10.068  17.586  0.00  0.00    +0.000 C 
ATOM     10  C   UNL     1      -1.398   9.796  17.431  0.00  0.00    +0.000 C 
ATOM     11  N   UNL     1      -0.687  10.423  18.554  0.00  0.00    +0.000 N 
ATOM     12  C   UNL     1      -0.798  11.878  18.571  0.00  0.00    +0.000 C 
ATOM     13  C   UNL     1      -2.271  12.264  18.738  0.00  0.00    +0.000 C 
ENDBRANCH   1  11
BRANCH   3  14
ATOM     14  C   UNL     1       2.717   6.835  18.553  0.00  0.00    +0.000 C 
ATOM     15  C   UNL     1       3.722   7.122  17.702  0.00  0.00    +0.000 C 
ATOM     16  C   UNL     1       4.475   6.084  16.917  0.00  0.00    +0.000 C 
ATOM     17  N   UNL     1       4.242   4.706  17.353  0.00  0.00    +0.000 NA
ATOM     18  C   UNL     1       2.817   4.486  17.612  0.00  0.00    +0.000 C 
ATOM     19  C   UNL     1       2.307   5.388  18.745  0.00  0.00    +0.000 C 
ATOM     20  H   UNL     1       4.755   4.564  18.222  0.00  0.00    +0.000 HD
ENDBRANCH   3  14
BRANCH   6  21
ATOM     21  N   UNL     1      -0.440  10.555  21.508  0.00  0.00    +0.000 N 
ATOM     22  C   UNL     1      -0.050  11.835  21.872  0.00  0.00    +0.000 C 
ATOM     23  O   UNL     1       1.041  12.331  21.609  0.00  0.00    +0.000 OA
ATOM     24  H   UNL     1      -1.294  10.203  21.910  0.00  0.00    +0.000 HD
BRANCH  22  25
ATOM     25  C   UNL     1      -1.058  12.542  22.636  0.00  0.00    +0.000 A 
ATOM     26  C   UNL     1      -1.125  13.864  23.045  0.00  0.00    +0.000 A 
ATOM     27  C   UNL     1      -2.358  14.026  23.723  0.00  0.00    +0.000 A 
ATOM     28  C   UNL     1      -2.967  12.794  23.696  0.00  0.00    +0.000 A 
ATOM     29  O   UNL     1      -2.189  11.881  23.052  0.00  0.00    +0.000 OA
BRANCH  28  30
ATOM     30  C   UNL     1      -4.219  12.349  24.200  0.00  0.00    +0.000 C 
ATOM     31  N   UNL     1      -5.234  11.984  24.619  0.00  0.00    +0.000 NA
ENDBRANCH  28  30
ENDBRANCH  22  25
ENDBRANCH   6  21
TORSDOF 5
ENDMDL
MODEL 6
REMARK VINA RESULT:      -7.1      3.705     10.225
REMARK  Name = 
REMARK  6 active torsions:
REMARK  status: ('A' for Active; 'I' for Inactive)
REMARK    1  A    between atoms: C_1  and  C_2
REMARK    2  A    between atoms: N_5  and  C_6
REMARK    3  A    between atoms: C_8  and  C_9
REMARK    4  A    between atoms: C_17  and  N_18
REMARK    5  A    between atoms: C_19  and  C_21
REMARK    6  A    between atoms: C_24  and  C_25
REMARK                            x       y       z     vdW  Elec       q    Type
REMARK                         _______ _______ _______ _____ _____    ______ ____
ROOT
ATOM      1  C   UNL     1       0.937   9.902  19.728  0.00  0.00    +0.000 A 
ATOM      2  C   UNL     1       1.787   8.876  19.244  0.00  0.00    +0.000 A 
ATOM      3  C   UNL     1       1.901   7.603  19.837  0.00  0.00    +0.000 A 
ATOM      4  C   UNL     1       1.156   7.355  20.989  0.00  0.00    +0.000 A 
ATOM      5  C   UNL     1       0.313   8.332  21.507  0.00  0.00    +0.000 A 
ATOM      6  C   UNL     1       0.197   9.591  20.897  0.00  0.00    +0.000 A 
ENDROOT
BRANCH   1  11
ATOM      7  C   UNL     1      -0.247  15.148  18.863  0.00  0.00    +0.000 C 
ATOM      8  C   UNL     1       0.129  13.787  18.274  0.00  0.00    +0.000 C 
ATOM      9  C   UNL     1      -0.951  12.759  18.638  0.00  0.00    +0.000 C 
ATOM     10  C   UNL     1      -0.532  11.329  18.316  0.00  0.00    +0.000 C 
ATOM     11  N   UNL     1       0.756  11.059  18.971  0.00  0.00    +0.000 N 
ATOM     12  C   UNL     1       1.847  11.887  18.469  0.00  0.00    +0.000 C 
ATOM     13  C   UNL     1       1.530  13.359  18.757  0.00  0.00    +0.000 C 
ENDBRANCH   1  11
BRANCH   3  14
ATOM     14  C   UNL     1       2.704   6.519  19.213  0.00  0.00    +0.000 C 
ATOM     15  C   UNL     1       3.290   6.637  18.006  0.00  0.00    +0.000 C 
ATOM     16  C   UNL     1       4.069   5.536  17.342  0.00  0.00    +0.000 C 
ATOM     17  N   UNL     1       4.398   4.412  18.221  0.00  0.00    +0.000 NA
ATOM     18  C   UNL     1       3.241   4.050  19.044  0.00  0.00    +0.000 C 
ATOM     19  C   UNL     1       2.824   5.207  19.963  0.00  0.00    +0.000 C 
ATOM     20  H   UNL     1       5.154   4.710  18.836  0.00  0.00    +0.000 HD
ENDBRANCH   3  14
BRANCH   6  21
ATOM     21  N   UNL     1      -0.687  10.494  21.502  0.00  0.00    +0.000 N 
ATOM     22  C   UNL     1      -0.678  10.796  22.856  0.00  0.00    +0.000 C 
ATOM     23  O   UNL     1       0.037  10.247  23.687  0.00  0.00    +0.000 OA
ATOM     24  H   UNL     1      -1.422  10.900  20.944  0.00  0.00    +0.000 HD
BRANCH  22  25
ATOM     25  C   UNL     1      -1.637  11.822  23.215  0.00  0.00    +0.000 A 
ATOM     26  C   UNL     1      -1.503  13.199  23.297  0.00  0.00    +0.000 A 
ATOM     27  C   UNL     1      -2.773  13.718  23.648  0.00  0.00    +0.000 A 
ATOM     28  C   UNL     1      -3.604  12.630  23.769  0.00  0.00    +0.000 A 
ATOM     29  O   UNL     1      -2.930  11.474  23.522  0.00  0.00    +0.000 OA
BRANCH  28  30
ATOM     30  C   UNL     1      -4.986  12.529  24.086  0.00  0.00    +0.000 C 
ATOM     31  N   UNL     1      -6.109  12.449  24.354  0.00  0.00    +0.000 NA
ENDBRANCH  28  30
ENDBRANCH  22  25
ENDBRANCH   6  21
TORSDOF 5
ENDMDL
MODEL 7
REMARK VINA RESULT:      -7.1      1.448      2.074
REMARK  Name = 
REMARK  6 active torsions:
REMARK  status: ('A' for Active; 'I' for Inactive)
REMARK    1  A    between atoms: C_1  and  C_2
REMARK    2  A    between atoms: N_5  and  C_6
REMARK    3  A    between atoms: C_8  and  C_9
REMARK    4  A    between atoms: C_17  and  N_18
REMARK    5  A    between atoms: C_19  and  C_21
REMARK    6  A    between atoms: C_24  and  C_25
REMARK                            x       y       z     vdW  Elec       q    Type
REMARK                         _______ _______ _______ _____ _____    ______ ____
ROOT
ATOM      1  C   UNL     1       2.478   6.675  19.007  0.00  0.00    +0.000 A 
ATOM      2  C   UNL     1       1.729   7.594  19.785  0.00  0.00    +0.000 A 
ATOM      3  C   UNL     1       1.544   8.949  19.443  0.00  0.00    +0.000 A 
ATOM      4  C   UNL     1       2.165   9.416  18.286  0.00  0.00    +0.000 A 
ATOM      5  C   UNL     1       2.916   8.556  17.492  0.00  0.00    +0.000 A 
ATOM      6  C   UNL     1       3.079   7.204  17.836  0.00  0.00    +0.000 A 
ENDROOT
BRANCH   1  11
ATOM      7  C   UNL     1       1.252   2.299  22.008  0.00  0.00    +0.000 C 
ATOM      8  C   UNL     1       1.953   2.874  20.775  0.00  0.00    +0.000 C 
ATOM      9  C   UNL     1       3.009   3.895  21.220  0.00  0.00    +0.000 C 
ATOM     10  C   UNL     1       3.570   4.702  20.055  0.00  0.00    +0.000 C 
ATOM     11  N   UNL     1       2.451   5.319  19.329  0.00  0.00    +0.000 N 
ATOM     12  C   UNL     1       1.556   4.349  18.710  0.00  0.00    +0.000 C 
ATOM     13  C   UNL     1       0.920   3.485  19.806  0.00  0.00    +0.000 C 
ENDBRANCH   1  11
BRANCH   3  14
ATOM     14  C   UNL     1       0.640   9.834  20.222  0.00  0.00    +0.000 C 
ATOM     15  C   UNL     1       0.334   9.621  21.516  0.00  0.00    +0.000 C 
ATOM     16  C   UNL     1      -0.611  10.483  22.306  0.00  0.00    +0.000 C 
ATOM     17  N   UNL     1      -0.962  11.749  21.658  0.00  0.00    +0.000 NA
ATOM     18  C   UNL     1      -1.234  11.537  20.235  0.00  0.00    +0.000 C 
ATOM     19  C   UNL     1       0.005  11.006  19.500  0.00  0.00    +0.000 C 
ATOM     20  H   UNL     1      -0.162  12.374  21.746  0.00  0.00    +0.000 HD
ENDBRANCH   3  14
BRANCH   6  21
ATOM     21  N   UNL     1       3.850   6.430  16.959  0.00  0.00    +0.000 N 
ATOM     22  C   UNL     1       5.231   6.521  16.857  0.00  0.00    +0.000 C 
ATOM     23  O   UNL     1       5.920   7.344  17.451  0.00  0.00    +0.000 OA
ATOM     24  H   UNL     1       3.380   5.819  16.311  0.00  0.00    +0.000 HD
BRANCH  22  25
ATOM     25  C   UNL     1       5.798   5.554  15.939  0.00  0.00    +0.000 A 
ATOM     26  C   UNL     1       6.968   4.815  16.008  0.00  0.00    +0.000 A 
ATOM     27  C   UNL     1       7.004   3.987  14.859  0.00  0.00    +0.000 A 
ATOM     28  C   UNL     1       5.861   4.275  14.152  0.00  0.00    +0.000 A 
ATOM     29  O   UNL     1       5.125   5.229  14.785  0.00  0.00    +0.000 OA
BRANCH  28  30
ATOM     30  C   UNL     1       5.350   3.754  12.933  0.00  0.00    +0.000 C 
ATOM     31  N   UNL     1       4.933   3.338  11.937  0.00  0.00    +0.000 NA
ENDBRANCH  28  30
ENDBRANCH  22  25
ENDBRANCH   6  21
TORSDOF 5
ENDMDL
MODEL 8
REMARK VINA RESULT:      -7.0      1.066      1.174
REMARK  Name = 
REMARK  6 active torsions:
REMARK  status: ('A' for Active; 'I' for Inactive)
REMARK    1  A    between atoms: C_1  and  C_2
REMARK    2  A    between atoms: N_5  and  C_6
REMARK    3  A    between atoms: C_8  and  C_9
REMARK    4  A    between atoms: C_17  and  N_18
REMARK    5  A    between atoms: C_19  and  C_21
REMARK    6  A    between atoms: C_24  and  C_25
REMARK                            x       y       z     vdW  Elec       q    Type
REMARK                         _______ _______ _______ _____ _____    ______ ____
ROOT
ATOM      1  C   UNL     1       2.506   6.346  19.182  0.00  0.00    +0.000 A 
ATOM      2  C   UNL     1       1.730   7.153  20.051  0.00  0.00    +0.000 A 
ATOM      3  C   UNL     1       1.527   8.536  19.871  0.00  0.00    +0.000 A 
ATOM      4  C   UNL     1       2.157   9.148  18.789  0.00  0.00    +0.000 A 
ATOM      5  C   UNL     1       2.935   8.401  17.911  0.00  0.00    +0.000 A 
ATOM      6  C   UNL     1       3.116   7.020  18.094  0.00  0.00    +0.000 A 
ENDROOT
BRANCH   1  11
ATOM      7  C   UNL     1       3.972   1.209  18.121  0.00  0.00    +0.000 C 
ATOM      8  C   UNL     1       3.090   2.169  18.922  0.00  0.00    +0.000 C 
ATOM      9  C   UNL     1       2.214   2.980  17.957  0.00  0.00    +0.000 C 
ATOM     10  C   UNL     1       1.498   4.136  18.647  0.00  0.00    +0.000 C 
ATOM     11  N   UNL     1       2.498   4.961  19.340  0.00  0.00    +0.000 N 
ATOM     12  C   UNL     1       3.186   4.256  20.416  0.00  0.00    +0.000 C 
ATOM     13  C   UNL     1       3.957   3.071  19.824  0.00  0.00    +0.000 C 
ENDBRANCH   1  11
BRANCH   3  14
ATOM     14  C   UNL     1       0.597   9.308  20.734  0.00  0.00    +0.000 C 
ATOM     15  C   UNL     1      -0.106  10.370  20.295  0.00  0.00    +0.000 C 
ATOM     16  C   UNL     1      -1.019  11.188  21.166  0.00  0.00    +0.000 C 
ATOM     17  N   UNL     1      -1.323  10.582  22.464  0.00  0.00    +0.000 NA
ATOM     18  C   UNL     1      -0.110  10.016  23.061  0.00  0.00    +0.000 C 
ATOM     19  C   UNL     1       0.474   8.897  22.188  0.00  0.00    +0.000 C 
ATOM     20  H   UNL     1      -1.988   9.827  22.305  0.00  0.00    +0.000 HD
ENDBRANCH   3  14
BRANCH   6  21
ATOM     21  N   UNL     1       3.914   6.368  17.144  0.00  0.00    +0.000 N 
ATOM     22  C   UNL     1       5.111   5.735  17.444  0.00  0.00    +0.000 C 
ATOM     23  O   UNL     1       5.650   5.750  18.546  0.00  0.00    +0.000 OA
ATOM     24  H   UNL     1       3.648   6.416  16.174  0.00  0.00    +0.000 HD
BRANCH  22  25
ATOM     25  C   UNL     1       5.701   5.065  16.302  0.00  0.00    +0.000 A 
ATOM     26  C   UNL     1       6.973   4.549  16.111  0.00  0.00    +0.000 A 
ATOM     27  C   UNL     1       6.991   3.959  14.823  0.00  0.00    +0.000 A 
ATOM     28  C   UNL     1       5.734   4.157  14.301  0.00  0.00    +0.000 A 
ATOM     29  O   UNL     1       4.945   4.834  15.178  0.00  0.00    +0.000 OA
BRANCH  28  30
ATOM     30  C   UNL     1       5.159   3.776  13.059  0.00  0.00    +0.000 C 
ATOM     31  N   UNL     1       4.681   3.466  12.051  0.00  0.00    +0.000 NA
ENDBRANCH  28  30
ENDBRANCH  22  25
ENDBRANCH   6  21
TORSDOF 5
ENDMDL
MODEL 9
REMARK VINA RESULT:      -7.0      3.919     10.137
REMARK  Name = 
REMARK  6 active torsions:
REMARK  status: ('A' for Active; 'I' for Inactive)
REMARK    1  A    between atoms: C_1  and  C_2
REMARK    2  A    between atoms: N_5  and  C_6
REMARK    3  A    between atoms: C_8  and  C_9
REMARK    4  A    between atoms: C_17  and  N_18
REMARK    5  A    between atoms: C_19  and  C_21
REMARK    6  A    between atoms: C_24  and  C_25
REMARK                            x       y       z     vdW  Elec       q    Type
REMARK                         _______ _______ _______ _____ _____    ______ ____
ROOT
ATOM      1  C   UNL     1       0.069   9.822  19.310  0.00  0.00    +0.000 A 
ATOM      2  C   UNL     1       0.970   8.956  18.642  0.00  0.00    +0.000 A 
ATOM      3  C   UNL     1       1.857   8.081  19.300  0.00  0.00    +0.000 A 
ATOM      4  C   UNL     1       1.868   8.096  20.694  0.00  0.00    +0.000 A 
ATOM      5  C   UNL     1       1.007   8.933  21.397  0.00  0.00    +0.000 A 
ATOM      6  C   UNL     1       0.117   9.789  20.728  0.00  0.00    +0.000 A 
ENDROOT
BRANCH   1  11
ATOM      7  C   UNL     1      -4.941  11.553  18.059  0.00  0.00    +0.000 C 
ATOM      8  C   UNL     1      -3.454  11.512  17.702  0.00  0.00    +0.000 C 
ATOM      9  C   UNL     1      -3.021  10.055  17.491  0.00  0.00    +0.000 C 
ATOM     10  C   UNL     1      -1.508   9.902  17.388  0.00  0.00    +0.000 C 
ATOM     11  N   UNL     1      -0.893  10.513  18.575  0.00  0.00    +0.000 N 
ATOM     12  C   UNL     1      -1.115  11.952  18.669  0.00  0.00    +0.000 C 
ATOM     13  C   UNL     1      -2.620  12.218  18.791  0.00  0.00    +0.000 C 
ENDBRANCH   1  11
BRANCH   3  14
ATOM     14  C   UNL     1       2.685   7.099  18.553  0.00  0.00    +0.000 C 
ATOM     15  C   UNL     1       3.621   7.457  17.653  0.00  0.00    +0.000 C 
ATOM     16  C   UNL     1       4.437   6.475  16.858  0.00  0.00    +0.000 C 
ATOM     17  N   UNL     1       4.353   5.093  17.334  0.00  0.00    +0.000 NA
ATOM     18  C   UNL     1       2.968   4.747  17.659  0.00  0.00    +0.000 C 
ATOM     19  C   UNL     1       2.422   5.625  18.794  0.00  0.00    +0.000 C 
ATOM     20  H   UNL     1       4.913   5.022  18.182  0.00  0.00    +0.000 HD
ENDBRANCH   3  14
BRANCH   6  21
ATOM     21  N   UNL     1      -0.707  10.582  21.537  0.00  0.00    +0.000 N 
ATOM     22  C   UNL     1      -0.374  11.859  21.964  0.00  0.00    +0.000 C 
ATOM     23  O   UNL     1       0.708  12.400  21.761  0.00  0.00    +0.000 OA
ATOM     24  H   UNL     1      -1.562  10.185  21.893  0.00  0.00    +0.000 HD
BRANCH  22  25
ATOM     25  C   UNL     1      -1.432  12.499  22.720  0.00  0.00    +0.000 A 
ATOM     26  C   UNL     1      -2.764  12.155  22.885  0.00  0.00    +0.000 A 
ATOM     27  C   UNL     1      -3.331  13.107  23.768  0.00  0.00    +0.000 A 
ATOM     28  C   UNL     1      -2.316  13.979  24.082  0.00  0.00    +0.000 A 
ATOM     29  O   UNL     1      -1.164  13.633  23.448  0.00  0.00    +0.000 OA
BRANCH  28  30
ATOM     30  C   UNL     1      -2.283  15.120  24.929  0.00  0.00    +0.000 C 
ATOM     31  N   UNL     1      -2.261  16.054  25.612  0.00  0.00    +0.000 NA
ENDBRANCH  28  30
ENDBRANCH  22  25
ENDBRANCH   6  21
TORSDOF 5
ENDMDL
