MODEL 1
REMARK VINA RESULT:      -8.0      0.000      0.000
REMARK  Name = 
REMARK  7 active torsions:
REMARK  status: ('A' for Active; 'I' for Inactive)
REMARK    1  A    between atoms: C_2  and  C_3
REMARK    2  A    between atoms: C_3  and  N_4
REMARK    3  A    between atoms: C_5  and  C_7
REMARK    4  A    between atoms: C_7  and  C_8
REMARK    5  A    between atoms: C_7  and  N_16
REMARK    6  A    between atoms: C_8  and  C_9
REMARK    7  A    between atoms: C_17  and  C_19
REMARK                            x       y       z     vdW  Elec       q    Type
REMARK                         _______ _______ _______ _____ _____    ______ ____
ROOT
ATOM      1  C   UNL     1       4.461   5.442  17.772  0.00  0.00    +0.000 C 
ENDROOT
BRANCH   1   3
ATOM      2  N   UNL     1       3.750   3.622  19.342  0.00  0.00    +0.000 N 
ATOM      3  C   UNL     1       4.825   4.296  18.793  0.00  0.00    +0.000 C 
ATOM      4  O   UNL     1       5.987   4.002  19.070  0.00  0.00    +0.000 OA
ATOM      5  H   UNL     1       2.817   3.974  19.116  0.00  0.00    +0.000 HD
BRANCH   2   6
ATOM      6  C   UNL     1       3.867   2.607  20.399  0.00  0.00    +0.000 C 
BRANCH   6   8
ATOM      7  N   UNL     1       1.655   2.609  22.084  0.00  0.00    +0.000 NA
ATOM      8  C   UNL     1       2.657   2.608  21.320  0.00  0.00    +0.000 C 
ENDBRANCH   6   8
ENDBRANCH   2   6
ENDBRANCH   1   3
BRANCH   1   9
ATOM      9  N   UNL     1       4.915   5.025  16.434  0.00  0.00    +0.000 N 
ATOM     10  C   UNL     1       6.091   5.507  15.896  0.00  0.00    +0.000 C 
ATOM     11  O   UNL     1       6.817   6.292  16.495  0.00  0.00    +0.000 OA
ATOM     12  H   UNL     1       4.269   4.512  15.847  0.00  0.00    +0.000 HD
BRANCH  10  13
ATOM     13  C   UNL     1       6.469   5.003  14.560  0.00  0.00    +0.000 A 
ATOM     14  C   UNL     1       7.647   5.426  13.933  0.00  0.00    +0.000 A 
ATOM     15  C   UNL     1       7.948   4.976  12.646  0.00  0.00    +0.000 A 
ATOM     16  C   UNL     1       7.073   4.108  11.989  0.00  0.00    +0.000 A 
ATOM     17  C   UNL     1       5.895   3.699  12.615  0.00  0.00    +0.000 A 
ATOM     18 CL   UNL     1       4.818   2.636  11.797  0.00  0.00    +0.000 Cl
ATOM     19  C   UNL     1       5.583   4.148  13.896  0.00  0.00    +0.000 A 
ENDBRANCH  10  13
ENDBRANCH   1   9
BRANCH   1  20
ATOM     20  C   UNL     1       2.941   5.767  17.795  0.00  0.00    +0.000 C 
BRANCH  20  21
ATOM     21  C   UNL     1       2.464   7.118  18.328  0.00  0.00    +0.000 A 
ATOM     22  C   UNL     1       2.313   8.266  17.535  0.00  0.00    +0.000 A 
ATOM     23  C   UNL     1       1.763   9.442  18.058  0.00  0.00    +0.000 A 
ATOM     24  C   UNL     1       1.386   9.513  19.397  0.00  0.00    +0.000 A 
ATOM     25  C   UNL     1       1.590   8.411  20.215  0.00  0.00    +0.000 A 
ATOM     26 CL   UNL     1       1.185   8.510  21.887  0.00  0.00    +0.000 Cl
ATOM     27  C   UNL     1       2.118   7.221  19.692  0.00  0.00    +0.000 A 
ENDBRANCH  20  21
ENDBRANCH   1  20
TORSDOF 7
ENDMDL
MODEL 2
REMARK VINA RESULT:      -7.8      3.277      4.495
REMARK  Name = 
REMARK  7 active torsions:
REMARK  status: ('A' for Active; 'I' for Inactive)
REMARK    1  A    between atoms: C_2  and  C_3
REMARK    2  A    between atoms: C_3  and  N_4
REMARK    3  A    between atoms: C_5  and  C_7
REMARK    4  A    between atoms: C_7  and  C_8
REMARK    5  A    between atoms: C_7  and  N_16
REMARK    6  A    between atoms: C_8  and  C_9
REMARK    7  A    between atoms: C_17  and  C_19
REMARK                            x       y       z     vdW  Elec       q    Type
REMARK                         _______ _______ _______ _____ _____    ______ ____
ROOT
ATOM      1  C   UNL     1       5.549   4.971  18.044  0.00  0.00    +0.000 C 
ENDROOT
BRANCH   1   3
ATOM      2  N   UNL     1       7.239   6.821  18.116  0.00  0.00    +0.000 N 
ATOM      3  C   UNL     1       6.728   5.720  18.778  0.00  0.00    +0.000 C 
ATOM      4  O   UNL     1       7.155   5.365  19.876  0.00  0.00    +0.000 OA
ATOM      5  H   UNL     1       6.879   7.007  17.177  0.00  0.00    +0.000 HD
BRANCH   2   6
ATOM      6  C   UNL     1       8.414   7.581  18.568  0.00  0.00    +0.000 C 
BRANCH   6   8
ATOM      7  N   UNL     1       8.252  10.260  17.842  0.00  0.00    +0.000 NA
ATOM      8  C   UNL     1       8.325   9.046  18.171  0.00  0.00    +0.000 C 
ENDBRANCH   6   8
ENDBRANCH   2   6
ENDBRANCH   1   3
BRANCH   1   9
ATOM      9  N   UNL     1       6.024   4.568  16.709  0.00  0.00    +0.000 N 
ATOM     10  C   UNL     1       5.796   5.359  15.601  0.00  0.00    +0.000 C 
ATOM     11  O   UNL     1       5.203   6.429  15.665  0.00  0.00    +0.000 OA
ATOM     12  H   UNL     1       6.369   3.624  16.587  0.00  0.00    +0.000 HD
BRANCH  10  13
ATOM     13  C   UNL     1       6.339   4.877  14.314  0.00  0.00    +0.000 A 
ATOM     14  C   UNL     1       7.484   5.451  13.750  0.00  0.00    +0.000 A 
ATOM     15  C   UNL     1       7.939   5.012  12.506  0.00  0.00    +0.000 A 
ATOM     16  C   UNL     1       7.251   4.004  11.828  0.00  0.00    +0.000 A 
ATOM     17  C   UNL     1       6.104   3.444  12.391  0.00  0.00    +0.000 A 
ATOM     18 CL   UNL     1       5.257   2.207  11.546  0.00  0.00    +0.000 Cl
ATOM     19  C   UNL     1       5.638   3.880  13.628  0.00  0.00    +0.000 A 
ENDBRANCH  10  13
ENDBRANCH   1   9
BRANCH   1  20
ATOM     20  C   UNL     1       5.039   3.757  18.871  0.00  0.00    +0.000 C 
BRANCH  20  21
ATOM     21  C   UNL     1       3.536   3.549  19.061  0.00  0.00    +0.000 A 
ATOM     22  C   UNL     1       2.588   3.686  18.036  0.00  0.00    +0.000 A 
ATOM     23  C   UNL     1       1.241   3.370  18.247  0.00  0.00    +0.000 A 
ATOM     24  C   UNL     1       0.801   2.946  19.498  0.00  0.00    +0.000 A 
ATOM     25  C   UNL     1       1.710   2.869  20.544  0.00  0.00    +0.000 A 
ATOM     26 CL   UNL     1       1.163   2.404  22.110  0.00  0.00    +0.000 Cl
ATOM     27  C   UNL     1       3.066   3.160  20.333  0.00  0.00    +0.000 A 
ENDBRANCH  20  21
ENDBRANCH   1  20
TORSDOF 7
ENDMDL
MODEL 3
REMARK VINA RESULT:      -7.6      2.558      4.139
REMARK  Name = 
REMARK  7 active torsions:
REMARK  status: ('A' for Active; 'I' for Inactive)
REMARK    1  A    between atoms: C_2  and  C_3
REMARK    2  A    between atoms: C_3  and  N_4
REMARK    3  A    between atoms: C_5  and  C_7
REMARK    4  A    between atoms: C_7  and  C_8
REMARK    5  A    between atoms: C_7  and  N_16
REMARK    6  A    between atoms: C_8  and  C_9
REMARK    7  A    between atoms: C_17  and  C_19
REMARK                            x       y       z     vdW  Elec       q    Type
REMARK                         _______ _______ _______ _____ _____    ______ ____
ROOT
ATOM      1  C   UNL     1       5.355   4.920  17.903  0.00  0.00    +0.000 C 
ENDROOT
BRANCH   1   3
ATOM      2  N   UNL     1       7.114   6.694  18.106  0.00  0.00    +0.000 N 
ATOM      3  C   UNL     1       6.555   5.573  18.691  0.00  0.00    +0.000 C 
ATOM      4  O   UNL     1       6.959   5.131  19.766  0.00  0.00    +0.000 OA
ATOM      5  H   UNL     1       6.770   6.954  17.179  0.00  0.00    +0.000 HD
BRANCH   2   6
ATOM      6  C   UNL     1       8.313   7.377  18.614  0.00  0.00    +0.000 C 
BRANCH   6   8
ATOM      7  N   UNL     1       8.349  10.066  17.906  0.00  0.00    +0.000 NA
ATOM      8  C   UNL     1       8.332   8.847  18.227  0.00  0.00    +0.000 C 
ENDBRANCH   6   8
ENDBRANCH   2   6
ENDBRANCH   1   3
BRANCH   1   9
ATOM      9  N   UNL     1       5.849   4.506  16.579  0.00  0.00    +0.000 N 
ATOM     10  C   UNL     1       5.785   5.356  15.494  0.00  0.00    +0.000 C 
ATOM     11  O   UNL     1       5.328   6.490  15.571  0.00  0.00    +0.000 OA
ATOM     12  H   UNL     1       6.080   3.530  16.437  0.00  0.00    +0.000 HD
BRANCH  10  13
ATOM     13  C   UNL     1       6.334   4.852  14.217  0.00  0.00    +0.000 A 
ATOM     14  C   UNL     1       7.463   5.438  13.633  0.00  0.00    +0.000 A 
ATOM     15  C   UNL     1       7.924   4.976  12.399  0.00  0.00    +0.000 A 
ATOM     16  C   UNL     1       7.257   3.935  11.751  0.00  0.00    +0.000 A 
ATOM     17  C   UNL     1       6.125   3.363  12.334  0.00  0.00    +0.000 A 
ATOM     18 CL   UNL     1       5.304   2.085  11.527  0.00  0.00    +0.000 Cl
ATOM     19  C   UNL     1       5.654   3.821  13.562  0.00  0.00    +0.000 A 
ENDBRANCH  10  13
ENDBRANCH   1   9
BRANCH   1  20
ATOM     20  C   UNL     1       4.732   3.732  18.689  0.00  0.00    +0.000 C 
BRANCH  20  21
ATOM     21  C   UNL     1       3.356   3.893  19.337  0.00  0.00    +0.000 A 
ATOM     22  C   UNL     1       2.463   2.833  19.557  0.00  0.00    +0.000 A 
ATOM     23  C   UNL     1       1.267   3.025  20.258  0.00  0.00    +0.000 A 
ATOM     24  C   UNL     1       0.916   4.289  20.725  0.00  0.00    +0.000 A 
ATOM     25  C   UNL     1       1.752   5.364  20.459  0.00  0.00    +0.000 A 
ATOM     26 CL   UNL     1       1.296   6.942  20.978  0.00  0.00    +0.000 Cl
ATOM     27  C   UNL     1       2.964   5.174  19.778  0.00  0.00    +0.000 A 
ENDBRANCH  20  21
ENDBRANCH   1  20
TORSDOF 7
ENDMDL
MODEL 4
REMARK VINA RESULT:      -7.6      0.947      1.365
REMARK  Name = 
REMARK  7 active torsions:
REMARK  status: ('A' for Active; 'I' for Inactive)
REMARK    1  A    between atoms: C_2  and  C_3
REMARK    2  A    between atoms: C_3  and  N_4
REMARK    3  A    between atoms: C_5  and  C_7
REMARK    4  A    between atoms: C_7  and  C_8
REMARK    5  A    between atoms: C_7  and  N_16
REMARK    6  A    between atoms: C_8  and  C_9
REMARK    7  A    between atoms: C_17  and  C_19
REMARK                            x       y       z     vdW  Elec       q    Type
REMARK                         _______ _______ _______ _____ _____    ______ ____
ROOT
ATOM      1  C   UNL     1       4.399   5.271  17.680  0.00  0.00    +0.000 C 
ENDROOT
BRANCH   1   3
ATOM      2  N   UNL     1       3.558   3.229  18.865  0.00  0.00    +0.000 N 
ATOM      3  C   UNL     1       4.625   4.094  18.705  0.00  0.00    +0.000 C 
ATOM      4  O   UNL     1       5.685   3.938  19.310  0.00  0.00    +0.000 OA
ATOM      5  H   UNL     1       2.689   3.469  18.382  0.00  0.00    +0.000 HD
BRANCH   2   6
ATOM      6  C   UNL     1       3.520   2.144  19.857  0.00  0.00    +0.000 C 
BRANCH   6   8
ATOM      7  N   UNL     1       2.294   2.946  22.220  0.00  0.00    +0.000 NA
ATOM      8  C   UNL     1       2.850   2.582  21.149  0.00  0.00    +0.000 C 
ENDBRANCH   6   8
ENDBRANCH   2   6
ENDBRANCH   1   3
BRANCH   1   9
ATOM      9  N   UNL     1       4.937   4.851  16.375  0.00  0.00    +0.000 N 
ATOM     10  C   UNL     1       5.949   5.558  15.758  0.00  0.00    +0.000 C 
ATOM     11  O   UNL     1       6.455   6.556  16.257  0.00  0.00    +0.000 OA
ATOM     12  H   UNL     1       4.439   4.136  15.858  0.00  0.00    +0.000 HD
BRANCH  10  13
ATOM     13  C   UNL     1       6.436   5.035  14.465  0.00  0.00    +0.000 A 
ATOM     14  C   UNL     1       7.594   5.546  13.867  0.00  0.00    +0.000 A 
ATOM     15  C   UNL     1       7.997   5.071  12.618  0.00  0.00    +0.000 A 
ATOM     16  C   UNL     1       7.243   4.091  11.968  0.00  0.00    +0.000 A 
ATOM     17  C   UNL     1       6.083   3.595  12.565  0.00  0.00    +0.000 A 
ATOM     18 CL   UNL     1       5.155   2.393  11.756  0.00  0.00    +0.000 Cl
ATOM     19  C   UNL     1       5.670   4.067  13.808  0.00  0.00    +0.000 A 
ENDBRANCH  10  13
ENDBRANCH   1   9
BRANCH   1  20
ATOM     20  C   UNL     1       2.898   5.670  17.589  0.00  0.00    +0.000 C 
BRANCH  20  21
ATOM     21  C   UNL     1       2.325   6.688  18.576  0.00  0.00    +0.000 A 
ATOM     22  C   UNL     1       2.055   6.409  19.924  0.00  0.00    +0.000 A 
ATOM     23  C   UNL     1       1.640   7.414  20.804  0.00  0.00    +0.000 A 
ATOM     24  C   UNL     1       1.446   8.716  20.350  0.00  0.00    +0.000 A 
ATOM     25  C   UNL     1       1.641   9.000  19.006  0.00  0.00    +0.000 A 
ATOM     26 CL   UNL     1       1.344  10.594  18.423  0.00  0.00    +0.000 Cl
ATOM     27  C   UNL     1       2.082   8.002  18.123  0.00  0.00    +0.000 A 
ENDBRANCH  20  21
ENDBRANCH   1  20
TORSDOF 7
ENDMDL
MODEL 5
REMARK VINA RESULT:      -7.6      2.515      7.593
REMARK  Name = 
REMARK  7 active torsions:
REMARK  status: ('A' for Active; 'I' for Inactive)
REMARK    1  A    between atoms: C_2  and  C_3
REMARK    2  A    between atoms: C_3  and  N_4
REMARK    3  A    between atoms: C_5  and  C_7
REMARK    4  A    between atoms: C_7  and  C_8
REMARK    5  A    between atoms: C_7  and  N_16
REMARK    6  A    between atoms: C_8  and  C_9
REMARK    7  A    between atoms: C_17  and  C_19
REMARK                            x       y       z     vdW  Elec       q    Type
REMARK                         _______ _______ _______ _____ _____    ______ ____
ROOT
ATOM      1  C   UNL     1       2.905   6.311  18.296  0.00  0.00    +0.000 C 
ENDROOT
BRANCH   1   3
ATOM      2  N   UNL     1       1.544   4.674  19.619  0.00  0.00    +0.000 N 
ATOM      3  C   UNL     1       2.054   4.985  18.372  0.00  0.00    +0.000 C 
ATOM      4  O   UNL     1       1.836   4.281  17.387  0.00  0.00    +0.000 OA
ATOM      5  H   UNL     1       1.830   5.270  20.400  0.00  0.00    +0.000 HD
BRANCH   2   6
ATOM      6  C   UNL     1       0.829   3.427  19.929  0.00  0.00    +0.000 C 
BRANCH   6   8
ATOM      7  N   UNL     1       1.744   2.270  22.287  0.00  0.00    +0.000 NA
ATOM      8  C   UNL     1       1.329   2.794  21.218  0.00  0.00    +0.000 C 
ENDBRANCH   6   8
ENDBRANCH   2   6
ENDBRANCH   1   3
BRANCH   1   9
ATOM      9  N   UNL     1       2.201   7.351  19.065  0.00  0.00    +0.000 N 
ATOM     10  C   UNL     1       1.895   8.572  18.500  0.00  0.00    +0.000 C 
ATOM     11  O   UNL     1       2.180   8.853  17.342  0.00  0.00    +0.000 OA
ATOM     12  H   UNL     1       2.096   7.222  20.064  0.00  0.00    +0.000 HD
BRANCH  10  13
ATOM     13  C   UNL     1       1.162   9.535  19.349  0.00  0.00    +0.000 A 
ATOM     14  C   UNL     1       0.862  10.823  18.890  0.00  0.00    +0.000 A 
ATOM     15  C   UNL     1       0.220  11.729  19.736  0.00  0.00    +0.000 A 
ATOM     16  C   UNL     1      -0.120  11.348  21.036  0.00  0.00    +0.000 A 
ATOM     17  C   UNL     1       0.192  10.066  21.490  0.00  0.00    +0.000 A 
ATOM     18 CL   UNL     1      -0.223   9.606  23.095  0.00  0.00    +0.000 Cl
ATOM     19  C   UNL     1       0.839   9.158  20.656  0.00  0.00    +0.000 A 
ENDBRANCH  10  13
ENDBRANCH   1   9
BRANCH   1  20
ATOM     20  C   UNL     1       4.356   6.089  18.811  0.00  0.00    +0.000 C 
BRANCH  20  21
ATOM     21  C   UNL     1       5.414   5.518  17.867  0.00  0.00    +0.000 A 
ATOM     22  C   UNL     1       6.733   5.225  18.249  0.00  0.00    +0.000 A 
ATOM     23  C   UNL     1       7.621   4.597  17.368  0.00  0.00    +0.000 A 
ATOM     24  C   UNL     1       7.226   4.281  16.071  0.00  0.00    +0.000 A 
ATOM     25  C   UNL     1       5.949   4.623  15.650  0.00  0.00    +0.000 A 
ATOM     26 CL   UNL     1       5.472   4.291  14.028  0.00  0.00    +0.000 Cl
ATOM     27  C   UNL     1       5.045   5.230  16.536  0.00  0.00    +0.000 A 
ENDBRANCH  20  21
ENDBRANCH   1  20
TORSDOF 7
ENDMDL
MODEL 6
REMARK VINA RESULT:      -7.5      2.454      7.780
REMARK  Name = 
REMARK  7 active torsions:
REMARK  status: ('A' for Active; 'I' for Inactive)
REMARK    1  A    between atoms: C_2  and  C_3
REMARK    2  A    between atoms: C_3  and  N_4
REMARK    3  A    between atoms: C_5  and  C_7
REMARK    4  A    between atoms: C_7  and  C_8
REMARK    5  A    between atoms: C_7  and  N_16
REMARK    6  A    between atoms: C_8  and  C_9
REMARK    7  A    between atoms: C_17  and  C_19
REMARK                            x       y       z     vdW  Elec       q    Type
REMARK                         _______ _______ _______ _____ _____    ______ ____
ROOT
ATOM      1  C   UNL     1       2.885   6.609  18.022  0.00  0.00    +0.000 C 
ENDROOT
BRANCH   1   3
ATOM      2  N   UNL     1       3.354   4.699  19.577  0.00  0.00    +0.000 N 
ATOM      3  C   UNL     1       2.857   5.064  18.339  0.00  0.00    +0.000 C 
ATOM      4  O   UNL     1       2.405   4.235  17.550  0.00  0.00    +0.000 OA
ATOM      5  H   UNL     1       3.777   5.438  20.143  0.00  0.00    +0.000 HD
BRANCH   2   6
ATOM      6  C   UNL     1       3.528   3.307  20.017  0.00  0.00    +0.000 C 
BRANCH   6   8
ATOM      7  N   UNL     1       1.751   2.636  22.047  0.00  0.00    +0.000 NA
ATOM      8  C   UNL     1       2.557   2.940  21.127  0.00  0.00    +0.000 C 
ENDBRANCH   6   8
ENDBRANCH   2   6
ENDBRANCH   1   3
BRANCH   1   9
ATOM      9  N   UNL     1       2.270   7.320  19.156  0.00  0.00    +0.000 N 
ATOM     10  C   UNL     1       1.626   8.527  18.977  0.00  0.00    +0.000 C 
ATOM     11  O   UNL     1       1.524   9.064  17.881  0.00  0.00    +0.000 OA
ATOM     12  H   UNL     1       2.473   6.995  20.094  0.00  0.00    +0.000 HD
BRANCH  10  13
ATOM     13  C   UNL     1       1.018   9.143  20.175  0.00  0.00    +0.000 A 
ATOM     14  C   UNL     1       1.272   8.640  21.456  0.00  0.00    +0.000 A 
ATOM     15  C   UNL     1       0.638   9.207  22.563  0.00  0.00    +0.000 A 
ATOM     16  C   UNL     1      -0.249  10.271  22.388  0.00  0.00    +0.000 A 
ATOM     17  C   UNL     1      -0.507  10.760  21.108  0.00  0.00    +0.000 A 
ATOM     18 CL   UNL     1      -1.606  12.067  20.899  0.00  0.00    +0.000 Cl
ATOM     19  C   UNL     1       0.116  10.197  19.996  0.00  0.00    +0.000 A 
ENDBRANCH  10  13
ENDBRANCH   1   9
BRANCH   1  20
ATOM     20  C   UNL     1       4.331   7.108  17.738  0.00  0.00    +0.000 C 
BRANCH  20  21
ATOM     21  C   UNL     1       5.365   6.142  17.160  0.00  0.00    +0.000 A 
ATOM     22  C   UNL     1       6.494   5.688  17.859  0.00  0.00    +0.000 A 
ATOM     23  C   UNL     1       7.341   4.715  17.317  0.00  0.00    +0.000 A 
ATOM     24  C   UNL     1       7.102   4.199  16.045  0.00  0.00    +0.000 A 
ATOM     25  C   UNL     1       6.030   4.683  15.309  0.00  0.00    +0.000 A 
ATOM     26 CL   UNL     1       5.764   4.094  13.712  0.00  0.00    +0.000 Cl
ATOM     27  C   UNL     1       5.163   5.640  15.857  0.00  0.00    +0.000 A 
ENDBRANCH  20  21
ENDBRANCH   1  20
TORSDOF 7
ENDMDL
MODEL 7
REMARK VINA RESULT:      -7.4      2.725      7.480
REMARK  Name = 
REMARK  7 active torsions:
REMARK  status: ('A' for Active; 'I' for Inactive)
REMARK    1  A    between atoms: C_2  and  C_3
REMARK    2  A    between atoms: C_3  and  N_4
REMARK    3  A    between atoms: C_5  and  C_7
REMARK    4  A    between atoms: C_7  and  C_8
REMARK    5  A    between atoms: C_7  and  N_16
REMARK    6  A    between atoms: C_8  and  C_9
REMARK    7  A    between atoms: C_17  and  C_19
REMARK                            x       y       z     vdW  Elec       q    Type
REMARK                         _______ _______ _______ _____ _____    ______ ____
ROOT
ATOM      1  C   UNL     1       2.822   6.226  18.142  0.00  0.00    +0.000 C 
ENDROOT
BRANCH   1   3
ATOM      2  N   UNL     1       1.474   4.585  19.473  0.00  0.00    +0.000 N 
ATOM      3  C   UNL     1       2.093   4.832  18.262  0.00  0.00    +0.000 C 
ATOM      4  O   UNL     1       2.057   4.023  17.335  0.00  0.00    +0.000 OA
ATOM      5  H   UNL     1       1.611   5.275  20.214  0.00  0.00    +0.000 HD
BRANCH   2   6
ATOM      6  C   UNL     1       0.846   3.304  19.830  0.00  0.00    +0.000 C 
BRANCH   6   8
ATOM      7  N   UNL     1       1.757   2.354  22.280  0.00  0.00    +0.000 NA
ATOM      8  C   UNL     1       1.345   2.785  21.169  0.00  0.00    +0.000 C 
ENDBRANCH   6   8
ENDBRANCH   2   6
ENDBRANCH   1   3
BRANCH   1   9
ATOM      9  N   UNL     1       2.003   7.232  18.841  0.00  0.00    +0.000 N 
ATOM     10  C   UNL     1       1.865   8.512  18.344  0.00  0.00    +0.000 C 
ATOM     11  O   UNL     1       2.402   8.877  17.305  0.00  0.00    +0.000 OA
ATOM     12  H   UNL     1       1.681   7.022  19.778  0.00  0.00    +0.000 HD
BRANCH  10  13
ATOM     13  C   UNL     1       0.999   9.434  19.107  0.00  0.00    +0.000 A 
ATOM     14  C   UNL     1       1.052   9.489  20.504  0.00  0.00    +0.000 A 
ATOM     15  C   UNL     1       0.181  10.329  21.199  0.00  0.00    +0.000 A 
ATOM     16  C   UNL     1      -0.742  11.109  20.499  0.00  0.00    +0.000 A 
ATOM     17  C   UNL     1      -0.798  11.041  19.107  0.00  0.00    +0.000 A 
ATOM     18 CL   UNL     1      -1.942  12.000  18.251  0.00  0.00    +0.000 Cl
ATOM     19  C   UNL     1       0.063  10.201  18.405  0.00  0.00    +0.000 A 
ENDBRANCH  10  13
ENDBRANCH   1   9
BRANCH   1  20
ATOM     20  C   UNL     1       4.271   6.165  18.703  0.00  0.00    +0.000 C 
BRANCH  20  21
ATOM     21  C   UNL     1       5.389   5.573  17.845  0.00  0.00    +0.000 A 
ATOM     22  C   UNL     1       6.673   5.271  18.326  0.00  0.00    +0.000 A 
ATOM     23  C   UNL     1       7.616   4.624  17.520  0.00  0.00    +0.000 A 
ATOM     24  C   UNL     1       7.315   4.299  16.200  0.00  0.00    +0.000 A 
ATOM     25  C   UNL     1       6.076   4.650  15.683  0.00  0.00    +0.000 A 
ATOM     26 CL   UNL     1       5.716   4.307  14.033  0.00  0.00    +0.000 Cl
ATOM     27  C   UNL     1       5.116   5.276  16.493  0.00  0.00    +0.000 A 
ENDBRANCH  20  21
ENDBRANCH   1  20
TORSDOF 7
ENDMDL
MODEL 8
REMARK VINA RESULT:      -7.3      1.306      1.520
REMARK  Name = 
REMARK  7 active torsions:
REMARK  status: ('A' for Active; 'I' for Inactive)
REMARK    1  A    between atoms: C_2  and  C_3
REMARK    2  A    between atoms: C_3  and  N_4
REMARK    3  A    between atoms: C_5  and  C_7
REMARK    4  A    between atoms: C_7  and  C_8
REMARK    5  A    between atoms: C_7  and  N_16
REMARK    6  A    between atoms: C_8  and  C_9
REMARK    7  A    between atoms: C_17  and  C_19
REMARK                            x       y       z     vdW  Elec       q    Type
REMARK                         _______ _______ _______ _____ _____    ______ ____
ROOT
ATOM      1  C   UNL     1       5.029   4.015  17.926  0.00  0.00    +0.000 C 
ENDROOT
BRANCH   1   3
ATOM      2  N   UNL     1       3.282   2.878  19.318  0.00  0.00    +0.000 N 
ATOM      3  C   UNL     1       3.557   3.476  18.102  0.00  0.00    +0.000 C 
ATOM      4  O   UNL     1       2.700   3.594  17.227  0.00  0.00    +0.000 OA
ATOM      5  H   UNL     1       4.067   2.754  19.962  0.00  0.00    +0.000 HD
BRANCH   2   6
ATOM      6  C   UNL     1       2.014   2.206  19.637  0.00  0.00    +0.000 C 
BRANCH   6   8
ATOM      7  N   UNL     1       1.237   2.661  22.268  0.00  0.00    +0.000 NA
ATOM      8  C   UNL     1       1.589   2.455  21.076  0.00  0.00    +0.000 C 
ENDBRANCH   6   8
ENDBRANCH   2   6
ENDBRANCH   1   3
BRANCH   1   9
ATOM      9  N   UNL     1       5.324   4.076  16.484  0.00  0.00    +0.000 N 
ATOM     10  C   UNL     1       6.605   4.314  16.027  0.00  0.00    +0.000 C 
ATOM     11  O   UNL     1       7.555   4.477  16.782  0.00  0.00    +0.000 OA
ATOM     12  H   UNL     1       4.547   4.110  15.836  0.00  0.00    +0.000 HD
BRANCH  10  13
ATOM     13  C   UNL     1       6.798   4.327  14.561  0.00  0.00    +0.000 A 
ATOM     14  C   UNL     1       7.672   5.235  13.954  0.00  0.00    +0.000 A 
ATOM     15  C   UNL     1       7.790   5.262  12.564  0.00  0.00    +0.000 A 
ATOM     16  C   UNL     1       7.034   4.384  11.784  0.00  0.00    +0.000 A 
ATOM     17  C   UNL     1       6.156   3.488  12.395  0.00  0.00    +0.000 A 
ATOM     18 CL   UNL     1       5.222   2.415  11.427  0.00  0.00    +0.000 Cl
ATOM     19  C   UNL     1       6.026   3.459  13.781  0.00  0.00    +0.000 A 
ENDBRANCH  10  13
ENDBRANCH   1   9
BRANCH   1  20
ATOM     20  C   UNL     1       5.220   5.394  18.617  0.00  0.00    +0.000 C 
BRANCH  20  21
ATOM     21  C   UNL     1       4.091   6.424  18.574  0.00  0.00    +0.000 A 
ATOM     22  C   UNL     1       3.794   7.218  17.455  0.00  0.00    +0.000 A 
ATOM     23  C   UNL     1       2.676   8.060  17.439  0.00  0.00    +0.000 A 
ATOM     24  C   UNL     1       1.848   8.159  18.555  0.00  0.00    +0.000 A 
ATOM     25  C   UNL     1       2.162   7.434  19.696  0.00  0.00    +0.000 A 
ATOM     26 CL   UNL     1       1.179   7.598  21.101  0.00  0.00    +0.000 Cl
ATOM     27  C   UNL     1       3.267   6.570  19.710  0.00  0.00    +0.000 A 
ENDBRANCH  20  21
ENDBRANCH   1  20
TORSDOF 7
ENDMDL
MODEL 9
REMARK VINA RESULT:      -7.3      1.027      6.959
REMARK  Name = 
REMARK  7 active torsions:
REMARK  status: ('A' for Active; 'I' for Inactive)
REMARK    1  A    between atoms: C_2  and  C_3
REMARK    2  A    between atoms: C_3  and  N_4
REMARK    3  A    between atoms: C_5  and  C_7
REMARK    4  A    between atoms: C_7  and  C_8
REMARK    5  A    between atoms: C_7  and  N_16
REMARK    6  A    between atoms: C_8  and  C_9
REMARK    7  A    between atoms: C_17  and  C_19
REMARK                            x       y       z     vdW  Elec       q    Type
REMARK                         _______ _______ _______ _____ _____    ______ ____
ROOT
ATOM      1  C   UNL     1       4.994   4.842  17.154  0.00  0.00    +0.000 C 
ENDROOT
BRANCH   1   3
ATOM      2  N   UNL     1       4.276   2.858  18.506  0.00  0.00    +0.000 N 
ATOM      3  C   UNL     1       5.133   3.941  18.441  0.00  0.00    +0.000 C 
ATOM      4  O   UNL     1       5.961   4.169  19.323  0.00  0.00    +0.000 OA
ATOM      5  H   UNL     1       3.570   2.779  17.771  0.00  0.00    +0.000 HD
BRANCH   2   6
ATOM      6  C   UNL     1       4.161   1.968  19.672  0.00  0.00    +0.000 C 
BRANCH   6   8
ATOM      7  N   UNL     1       2.362   2.952  21.549  0.00  0.00    +0.000 NA
ATOM      8  C   UNL     1       3.178   2.506  20.699  0.00  0.00    +0.000 C 
ENDBRANCH   6   8
ENDBRANCH   2   6
ENDBRANCH   1   3
BRANCH   1   9
ATOM      9  N   UNL     1       4.293   6.080  17.535  0.00  0.00    +0.000 N 
ATOM     10  C   UNL     1       2.987   6.053  17.980  0.00  0.00    +0.000 C 
ATOM     11  O   UNL     1       2.349   5.013  18.089  0.00  0.00    +0.000 OA
ATOM     12  H   UNL     1       4.725   6.966  17.306  0.00  0.00    +0.000 HD
BRANCH  10  13
ATOM     13  C   UNL     1       2.386   7.347  18.365  0.00  0.00    +0.000 A 
ATOM     14  C   UNL     1       2.292   8.402  17.450  0.00  0.00    +0.000 A 
ATOM     15  C   UNL     1       1.772   9.631  17.859  0.00  0.00    +0.000 A 
ATOM     16  C   UNL     1       1.350   9.804  19.179  0.00  0.00    +0.000 A 
ATOM     17  C   UNL     1       1.458   8.752  20.089  0.00  0.00    +0.000 A 
ATOM     18 CL   UNL     1       0.943   8.975  21.715  0.00  0.00    +0.000 Cl
ATOM     19  C   UNL     1       1.981   7.525  19.692  0.00  0.00    +0.000 A 
ENDBRANCH  10  13
ENDBRANCH   1   9
BRANCH   1  20
ATOM     20  C   UNL     1       6.378   5.133  16.507  0.00  0.00    +0.000 C 
BRANCH  20  21
ATOM     21  C   UNL     1       6.562   4.952  15.000  0.00  0.00    +0.000 A 
ATOM     22  C   UNL     1       7.668   5.429  14.281  0.00  0.00    +0.000 A 
ATOM     23  C   UNL     1       7.834   5.131  12.923  0.00  0.00    +0.000 A 
ATOM     24  C   UNL     1       6.879   4.381  12.242  0.00  0.00    +0.000 A 
ATOM     25  C   UNL     1       5.744   3.957  12.917  0.00  0.00    +0.000 A 
ATOM     26 CL   UNL     1       4.528   3.081  12.067  0.00  0.00    +0.000 Cl
ATOM     27  C   UNL     1       5.583   4.231  14.284  0.00  0.00    +0.000 A 
ENDBRANCH  20  21
ENDBRANCH   1  20
TORSDOF 7
ENDMDL
