MODEL 1
REMARK VINA RESULT:      -8.4      0.000      0.000
REMARK  Name = 
REMARK  6 active torsions:
REMARK  status: ('A' for Active; 'I' for Inactive)
REMARK    1  A    between atoms: C_1  and  C_2
REMARK    2  A    between atoms: C_9  and  C_10
REMARK    3  A    between atoms: C_10  and  C_11
REMARK    4  A    between atoms: C_11  and  O_12
REMARK    5  A    between atoms: N_13  and  C_14
REMARK    6  A    between atoms: C_17  and  C_18
REMARK                            x       y       z     vdW  Elec       q    Type
REMARK                         _______ _______ _______ _____ _____    ______ ____
ROOT
ATOM      1  C   UNL     1       3.532   1.465  18.566  0.00  0.00    +0.000 C 
ATOM      2  C   UNL     1       2.822   2.674  19.096  0.00  0.00    +0.000 A 
ATOM      3  C   UNL     1       1.826   2.530  20.086  0.00  0.00    +0.000 A 
ATOM      4  C   UNL     1       1.147   3.639  20.593  0.00  0.00    +0.000 A 
ATOM      5  C   UNL     1       1.434   4.922  20.148  0.00  0.00    +0.000 A 
ATOM      6  C   UNL     1       2.431   5.074  19.165  0.00  0.00    +0.000 A 
ATOM      7  C   UNL     1       3.107   3.980  18.633  0.00  0.00    +0.000 A 
ATOM      8  N   UNL     1       3.997   4.368  17.670  0.00  0.00    +0.000 NA
ATOM      9  C   UNL     1       3.889   5.688  17.572  0.00  0.00    +0.000 A 
ATOM     10  N   UNL     1       2.912   6.170  18.459  0.00  0.00    +0.000 N 
ENDROOT
BRANCH  10  11
ATOM     11  C   UNL     1       2.431   7.482  18.615  0.00  0.00    +0.000 A 
ATOM     12  C   UNL     1       2.272   8.445  17.645  0.00  0.00    +0.000 A 
ATOM     13  C   UNL     1       1.643   9.560  18.252  0.00  0.00    +0.000 A 
ATOM     14  C   UNL     1       1.474   9.242  19.583  0.00  0.00    +0.000 A 
ATOM     15  O   UNL     1       1.935   7.974  19.795  0.00  0.00    +0.000 OA
BRANCH  14  16
ATOM     16  C   UNL     1       0.775   9.956  20.636  0.00  0.00    +0.000 C 
ATOM     17  O   UNL     1       1.272  10.049  21.761  0.00  0.00    +0.000 OA
ATOM     18  N   UNL     1      -0.456  10.543  20.357  0.00  0.00    +0.000 N 
ATOM     19  C   UNL     1      -1.239  10.412  19.124  0.00  0.00    +0.000 C 
ATOM     20  C   UNL     1      -1.588  11.798  18.572  0.00  0.00    +0.000 C 
ATOM     21  O   UNL     1      -2.250  12.598  19.565  0.00  0.00    +0.000 OA
ATOM     22  C   UNL     1      -1.429  12.753  20.737  0.00  0.00    +0.000 C 
ATOM     23  C   UNL     1      -1.099  11.393  21.360  0.00  0.00    +0.000 C 
ENDBRANCH  14  16
ENDBRANCH  10  11
BRANCH   9  24
ATOM     24  C   UNL     1       4.757   6.546  16.702  0.00  0.00    +0.000 C 
BRANCH  24  25
ATOM     25  C   UNL     1       6.256   6.243  16.796  0.00  0.00    +0.000 C 
BRANCH  25  26
ATOM     26  O   UNL     1       7.037   7.421  16.973  0.00  0.00    +0.000 OA
ATOM     27  H   UNL     1       6.536   8.136  16.530  0.00  0.00    +0.000 HD
ENDBRANCH  25  26
ENDBRANCH  24  25
ENDBRANCH   9  24
TORSDOF 5
ENDMDL
MODEL 2
REMARK VINA RESULT:      -8.0      2.223      7.292
REMARK  Name = 
REMARK  6 active torsions:
REMARK  status: ('A' for Active; 'I' for Inactive)
REMARK    1  A    between atoms: C_1  and  C_2
REMARK    2  A    between atoms: C_9  and  C_10
REMARK    3  A    between atoms: C_10  and  C_11
REMARK    4  A    between atoms: C_11  and  O_12
REMARK    5  A    between atoms: N_13  and  C_14
REMARK    6  A    between atoms: C_17  and  C_18
REMARK                            x       y       z     vdW  Elec       q    Type
REMARK                         _______ _______ _______ _____ _____    ______ ____
ROOT
ATOM      1  C   UNL     1      -0.881  12.736  22.773  0.00  0.00    +0.000 C 
ATOM      2  C   UNL     1      -0.544  11.334  22.362  0.00  0.00    +0.000 A 
ATOM      3  C   UNL     1      -0.978  10.244  23.147  0.00  0.00    +0.000 A 
ATOM      4  C   UNL     1      -0.673   8.931  22.788  0.00  0.00    +0.000 A 
ATOM      5  C   UNL     1       0.059   8.650  21.643  0.00  0.00    +0.000 A 
ATOM      6  C   UNL     1       0.490   9.732  20.852  0.00  0.00    +0.000 A 
ATOM      7  C   UNL     1       0.213  11.050  21.201  0.00  0.00    +0.000 A 
ATOM      8  N   UNL     1       0.765  11.926  20.307  0.00  0.00    +0.000 NA
ATOM      9  C   UNL     1       1.398  11.188  19.404  0.00  0.00    +0.000 A 
ATOM     10  N   UNL     1       1.280   9.822  19.712  0.00  0.00    +0.000 N 
ENDROOT
BRANCH  10  11
ATOM     11  C   UNL     1       1.864   8.718  19.067  0.00  0.00    +0.000 A 
ATOM     12  C   UNL     1       2.153   8.576  17.729  0.00  0.00    +0.000 A 
ATOM     13  C   UNL     1       2.844   7.349  17.572  0.00  0.00    +0.000 A 
ATOM     14  C   UNL     1       2.919   6.774  18.822  0.00  0.00    +0.000 A 
ATOM     15  O   UNL     1       2.341   7.616  19.729  0.00  0.00    +0.000 OA
BRANCH  14  16
ATOM     16  C   UNL     1       3.624   5.586  19.267  0.00  0.00    +0.000 C 
ATOM     17  O   UNL     1       4.834   5.630  19.501  0.00  0.00    +0.000 OA
ATOM     18  N   UNL     1       2.915   4.399  19.436  0.00  0.00    +0.000 N 
ATOM     19  C   UNL     1       1.515   4.147  19.077  0.00  0.00    +0.000 C 
ATOM     20  C   UNL     1       0.751   3.598  20.286  0.00  0.00    +0.000 C 
ATOM     21  O   UNL     1       1.403   2.436  20.825  0.00  0.00    +0.000 OA
ATOM     22  C   UNL     1       2.753   2.736  21.220  0.00  0.00    +0.000 C 
ATOM     23  C   UNL     1       3.576   3.236  20.028  0.00  0.00    +0.000 C 
ENDBRANCH  14  16
ENDBRANCH  10  11
BRANCH   9  24
ATOM     24  C   UNL     1       2.063  11.737  18.178  0.00  0.00    +0.000 C 
BRANCH  24  25
ATOM     25  C   UNL     1       2.385  13.233  18.239  0.00  0.00    +0.000 C 
BRANCH  25  26
ATOM     26  O   UNL     1       1.233  14.025  18.507  0.00  0.00    +0.000 OA
ATOM     27  H   UNL     1       0.467  13.464  18.267  0.00  0.00    +0.000 HD
ENDBRANCH  25  26
ENDBRANCH  24  25
ENDBRANCH   9  24
TORSDOF 5
ENDMDL
MODEL 3
REMARK VINA RESULT:      -8.0      1.605      1.657
REMARK  Name = 
REMARK  6 active torsions:
REMARK  status: ('A' for Active; 'I' for Inactive)
REMARK    1  A    between atoms: C_1  and  C_2
REMARK    2  A    between atoms: C_9  and  C_10
REMARK    3  A    between atoms: C_10  and  C_11
REMARK    4  A    between atoms: C_11  and  O_12
REMARK    5  A    between atoms: N_13  and  C_14
REMARK    6  A    between atoms: C_17  and  C_18
REMARK                            x       y       z     vdW  Elec       q    Type
REMARK                         _______ _______ _______ _____ _____    ______ ____
ROOT
ATOM      1  C   UNL     1       4.482   1.836  19.881  0.00  0.00    +0.000 C 
ATOM      2  C   UNL     1       3.519   2.970  20.063  0.00  0.00    +0.000 A 
ATOM      3  C   UNL     1       2.372   2.800  20.869  0.00  0.00    +0.000 A 
ATOM      4  C   UNL     1       1.459   3.839  21.049  0.00  0.00    +0.000 A 
ATOM      5  C   UNL     1       1.650   5.077  20.451  0.00  0.00    +0.000 A 
ATOM      6  C   UNL     1       2.794   5.255  19.651  0.00  0.00    +0.000 A 
ATOM      7  C   UNL     1       3.709   4.228  19.442  0.00  0.00    +0.000 A 
ATOM      8  N   UNL     1       4.714   4.621  18.602  0.00  0.00    +0.000 NA
ATOM      9  C   UNL     1       4.447   5.877  18.264  0.00  0.00    +0.000 A 
ATOM     10  N   UNL     1       3.253   6.307  18.867  0.00  0.00    +0.000 N 
ENDROOT
BRANCH  10  11
ATOM     11  C   UNL     1       2.574   7.528  18.709  0.00  0.00    +0.000 A 
ATOM     12  C   UNL     1       2.328   8.214  17.542  0.00  0.00    +0.000 A 
ATOM     13  C   UNL     1       1.507   9.322  17.865  0.00  0.00    +0.000 A 
ATOM     14  C   UNL     1       1.312   9.285  19.229  0.00  0.00    +0.000 A 
ATOM     15  O   UNL     1       1.944   8.185  19.735  0.00  0.00    +0.000 OA
BRANCH  14  16
ATOM     16  C   UNL     1       0.456  10.096  20.076  0.00  0.00    +0.000 C 
ATOM     17  O   UNL     1      -0.276   9.563  20.913  0.00  0.00    +0.000 OA
ATOM     18  N   UNL     1       0.480  11.481  19.939  0.00  0.00    +0.000 N 
ATOM     19  C   UNL     1       1.186  12.256  18.913  0.00  0.00    +0.000 C 
ATOM     20  C   UNL     1       2.078  13.314  19.572  0.00  0.00    +0.000 C 
ATOM     21  O   UNL     1       1.320  14.143  20.469  0.00  0.00    +0.000 OA
ATOM     22  C   UNL     1       0.690  13.356  21.495  0.00  0.00    +0.000 C 
ATOM     23  C   UNL     1      -0.258  12.317  20.886  0.00  0.00    +0.000 C 
ENDBRANCH  14  16
ENDBRANCH  10  11
BRANCH   9  24
ATOM     24  C   UNL     1       5.346   6.738  17.430  0.00  0.00    +0.000 C 
BRANCH  24  25
ATOM     25  C   UNL     1       6.844   6.516  17.664  0.00  0.00    +0.000 C 
BRANCH  25  26
ATOM     26  O   UNL     1       7.363   5.450  16.875  0.00  0.00    +0.000 OA
ATOM     27  H   UNL     1       6.583   5.022  16.466  0.00  0.00    +0.000 HD
ENDBRANCH  25  26
ENDBRANCH  24  25
ENDBRANCH   9  24
TORSDOF 5
ENDMDL
MODEL 4
REMARK VINA RESULT:      -7.9      2.187      7.917
REMARK  Name = 
REMARK  6 active torsions:
REMARK  status: ('A' for Active; 'I' for Inactive)
REMARK    1  A    between atoms: C_1  and  C_2
REMARK    2  A    between atoms: C_9  and  C_10
REMARK    3  A    between atoms: C_10  and  C_11
REMARK    4  A    between atoms: C_11  and  O_12
REMARK    5  A    between atoms: N_13  and  C_14
REMARK    6  A    between atoms: C_17  and  C_18
REMARK                            x       y       z     vdW  Elec       q    Type
REMARK                         _______ _______ _______ _____ _____    ______ ____
ROOT
ATOM      1  C   UNL     1      -0.573  14.117  20.626  0.00  0.00    +0.000 C 
ATOM      2  C   UNL     1       0.347  13.284  19.785  0.00  0.00    +0.000 A 
ATOM      3  C   UNL     1       1.114  13.889  18.766  0.00  0.00    +0.000 A 
ATOM      4  C   UNL     1       1.974  13.135  17.967  0.00  0.00    +0.000 A 
ATOM      5  C   UNL     1       2.112  11.766  18.152  0.00  0.00    +0.000 A 
ATOM      6  C   UNL     1       1.354  11.157  19.171  0.00  0.00    +0.000 A 
ATOM      7  C   UNL     1       0.477  11.887  19.967  0.00  0.00    +0.000 A 
ATOM      8  N   UNL     1      -0.174  11.078  20.857  0.00  0.00    +0.000 NA
ATOM      9  C   UNL     1       0.264   9.846  20.631  0.00  0.00    +0.000 A 
ATOM     10  N   UNL     1       1.193   9.837  19.578  0.00  0.00    +0.000 N 
ENDROOT
BRANCH  10  11
ATOM     11  C   UNL     1       1.832   8.742  18.971  0.00  0.00    +0.000 A 
ATOM     12  C   UNL     1       2.214   8.608  17.655  0.00  0.00    +0.000 A 
ATOM     13  C   UNL     1       2.928   7.391  17.542  0.00  0.00    +0.000 A 
ATOM     14  C   UNL     1       2.924   6.811  18.793  0.00  0.00    +0.000 A 
ATOM     15  O   UNL     1       2.275   7.642  19.661  0.00  0.00    +0.000 OA
BRANCH  14  16
ATOM     16  C   UNL     1       3.609   5.628  19.281  0.00  0.00    +0.000 C 
ATOM     17  O   UNL     1       4.812   5.672  19.550  0.00  0.00    +0.000 OA
ATOM     18  N   UNL     1       2.890   4.449  19.452  0.00  0.00    +0.000 N 
ATOM     19  C   UNL     1       1.500   4.195  19.058  0.00  0.00    +0.000 C 
ATOM     20  C   UNL     1       0.698   3.674  20.255  0.00  0.00    +0.000 C 
ATOM     21  O   UNL     1       1.328   2.520  20.835  0.00  0.00    +0.000 OA
ATOM     22  C   UNL     1       2.668   2.822  21.263  0.00  0.00    +0.000 C 
ATOM     23  C   UNL     1       3.528   3.295  20.087  0.00  0.00    +0.000 C 
ENDBRANCH  14  16
ENDBRANCH  10  11
BRANCH   9  24
ATOM     24  C   UNL     1      -0.113   8.649  21.451  0.00  0.00    +0.000 C 
BRANCH  24  25
ATOM     25  C   UNL     1      -0.626   8.973  22.858  0.00  0.00    +0.000 C 
BRANCH  25  26
ATOM     26  O   UNL     1       0.324   9.703  23.628  0.00  0.00    +0.000 OA
ATOM     27  H   UNL     1      -0.171  10.044  24.400  0.00  0.00    +0.000 HD
ENDBRANCH  25  26
ENDBRANCH  24  25
ENDBRANCH   9  24
TORSDOF 5
ENDMDL
MODEL 5
REMARK VINA RESULT:      -7.8      2.063      4.110
REMARK  Name = 
REMARK  6 active torsions:
REMARK  status: ('A' for Active; 'I' for Inactive)
REMARK    1  A    between atoms: C_1  and  C_2
REMARK    2  A    between atoms: C_9  and  C_10
REMARK    3  A    between atoms: C_10  and  C_11
REMARK    4  A    between atoms: C_11  and  O_12
REMARK    5  A    between atoms: N_13  and  C_14
REMARK    6  A    between atoms: C_17  and  C_18
REMARK                            x       y       z     vdW  Elec       q    Type
REMARK                         _______ _______ _______ _____ _____    ______ ____
ROOT
ATOM      1  C   UNL     1       6.293   3.443  15.204  0.00  0.00    +0.000 C 
ATOM      2  C   UNL     1       5.918   4.615  16.060  0.00  0.00    +0.000 A 
ATOM      3  C   UNL     1       6.820   5.689  16.220  0.00  0.00    +0.000 A 
ATOM      4  C   UNL     1       6.497   6.789  17.015  0.00  0.00    +0.000 A 
ATOM      5  C   UNL     1       5.275   6.870  17.668  0.00  0.00    +0.000 A 
ATOM      6  C   UNL     1       4.368   5.805  17.508  0.00  0.00    +0.000 A 
ATOM      7  C   UNL     1       4.677   4.690  16.735  0.00  0.00    +0.000 A 
ATOM      8  N   UNL     1       3.662   3.774  16.759  0.00  0.00    +0.000 NA
ATOM      9  C   UNL     1       2.720   4.281  17.545  0.00  0.00    +0.000 A 
ATOM     10  N   UNL     1       3.120   5.527  18.055  0.00  0.00    +0.000 N 
ENDROOT
BRANCH  10  11
ATOM     11  C   UNL     1       2.462   6.356  18.980  0.00  0.00    +0.000 A 
ATOM     12  C   UNL     1       2.188   6.095  20.304  0.00  0.00    +0.000 A 
ATOM     13  C   UNL     1       1.625   7.270  20.860  0.00  0.00    +0.000 A 
ATOM     14  C   UNL     1       1.546   8.193  19.839  0.00  0.00    +0.000 A 
ATOM     15  O   UNL     1       2.073   7.642  18.706  0.00  0.00    +0.000 OA
BRANCH  14  16
ATOM     16  C   UNL     1       1.171   9.595  19.869  0.00  0.00    +0.000 C 
ATOM     17  O   UNL     1       1.107  10.245  18.824  0.00  0.00    +0.000 OA
ATOM     18  N   UNL     1       0.874  10.192  21.092  0.00  0.00    +0.000 N 
ATOM     19  C   UNL     1       1.030   9.602  22.426  0.00  0.00    +0.000 C 
ATOM     20  C   UNL     1      -0.287   9.698  23.202  0.00  0.00    +0.000 C 
ATOM     21  O   UNL     1      -0.762  11.054  23.248  0.00  0.00    +0.000 OA
ATOM     22  C   UNL     1      -0.959  11.579  21.923  0.00  0.00    +0.000 C 
ATOM     23  C   UNL     1       0.348  11.557  21.123  0.00  0.00    +0.000 C 
ENDBRANCH  14  16
ENDBRANCH  10  11
BRANCH   9  24
ATOM     24  C   UNL     1       1.380   3.650  17.775  0.00  0.00    +0.000 C 
BRANCH  24  25
ATOM     25  C   UNL     1       1.279   2.808  19.050  0.00  0.00    +0.000 C 
BRANCH  25  26
ATOM     26  O   UNL     1      -0.037   2.803  19.595  0.00  0.00    +0.000 OA
ATOM     27  H   UNL     1      -0.022   3.458  20.322  0.00  0.00    +0.000 HD
ENDBRANCH  25  26
ENDBRANCH  24  25
ENDBRANCH   9  24
TORSDOF 5
ENDMDL
MODEL 6
REMARK VINA RESULT:      -7.7      1.271      2.152
REMARK  Name = 
REMARK  6 active torsions:
REMARK  status: ('A' for Active; 'I' for Inactive)
REMARK    1  A    between atoms: C_1  and  C_2
REMARK    2  A    between atoms: C_9  and  C_10
REMARK    3  A    between atoms: C_10  and  C_11
REMARK    4  A    between atoms: C_11  and  O_12
REMARK    5  A    between atoms: N_13  and  C_14
REMARK    6  A    between atoms: C_17  and  C_18
REMARK                            x       y       z     vdW  Elec       q    Type
REMARK                         _______ _______ _______ _____ _____    ______ ____
ROOT
ATOM      1  C   UNL     1       3.592   1.357  18.944  0.00  0.00    +0.000 C 
ATOM      2  C   UNL     1       2.890   2.622  19.337  0.00  0.00    +0.000 A 
ATOM      3  C   UNL     1       1.869   2.589  20.312  0.00  0.00    +0.000 A 
ATOM      4  C   UNL     1       1.198   3.752  20.692  0.00  0.00    +0.000 A 
ATOM      5  C   UNL     1       1.516   4.981  20.132  0.00  0.00    +0.000 A 
ATOM      6  C   UNL     1       2.537   5.022  19.164  0.00  0.00    +0.000 A 
ATOM      7  C   UNL     1       3.207   3.873  18.757  0.00  0.00    +0.000 A 
ATOM      8  N   UNL     1       4.126   4.153  17.783  0.00  0.00    +0.000 NA
ATOM      9  C   UNL     1       4.042   5.458  17.555  0.00  0.00    +0.000 A 
ATOM     10  N   UNL     1       3.053   6.038  18.367  0.00  0.00    +0.000 N 
ENDROOT
BRANCH  10  11
ATOM     11  C   UNL     1       2.591   7.366  18.384  0.00  0.00    +0.000 A 
ATOM     12  C   UNL     1       2.884   8.374  17.494  0.00  0.00    +0.000 A 
ATOM     13  C   UNL     1       2.092   9.494  17.846  0.00  0.00    +0.000 A 
ATOM     14  C   UNL     1       1.369   9.133  18.963  0.00  0.00    +0.000 A 
ATOM     15  O   UNL     1       1.659   7.835  19.274  0.00  0.00    +0.000 OA
BRANCH  14  16
ATOM     16  C   UNL     1       0.313   9.839  19.666  0.00  0.00    +0.000 C 
ATOM     17  O   UNL     1      -0.730  10.141  19.083  0.00  0.00    +0.000 OA
ATOM     18  N   UNL     1       0.490  10.161  21.009  0.00  0.00    +0.000 N 
ATOM     19  C   UNL     1       1.711   9.995  21.805  0.00  0.00    +0.000 C 
ATOM     20  C   UNL     1       1.407   9.196  23.077  0.00  0.00    +0.000 C 
ATOM     21  O   UNL     1       0.337   9.801  23.823  0.00  0.00    +0.000 OA
ATOM     22  C   UNL     1      -0.860   9.894  23.030  0.00  0.00    +0.000 C 
ATOM     23  C   UNL     1      -0.620  10.733  21.771  0.00  0.00    +0.000 C 
ENDBRANCH  14  16
ENDBRANCH  10  11
BRANCH   9  24
ATOM     24  C   UNL     1       4.943   6.215  16.628  0.00  0.00    +0.000 C 
BRANCH  24  25
ATOM     25  C   UNL     1       6.311   6.576  17.217  0.00  0.00    +0.000 C 
BRANCH  25  26
ATOM     26  O   UNL     1       6.521   5.990  18.498  0.00  0.00    +0.000 OA
ATOM     27  H   UNL     1       5.628   5.785  18.842  0.00  0.00    +0.000 HD
ENDBRANCH  25  26
ENDBRANCH  24  25
ENDBRANCH   9  24
TORSDOF 5
ENDMDL
MODEL 7
REMARK VINA RESULT:      -7.7      1.547      1.970
REMARK  Name = 
REMARK  6 active torsions:
REMARK  status: ('A' for Active; 'I' for Inactive)
REMARK    1  A    between atoms: C_1  and  C_2
REMARK    2  A    between atoms: C_9  and  C_10
REMARK    3  A    between atoms: C_10  and  C_11
REMARK    4  A    between atoms: C_11  and  O_12
REMARK    5  A    between atoms: N_13  and  C_14
REMARK    6  A    between atoms: C_17  and  C_18
REMARK                            x       y       z     vdW  Elec       q    Type
REMARK                         _______ _______ _______ _____ _____    ______ ____
ROOT
ATOM      1  C   UNL     1       4.529   1.960  20.202  0.00  0.00    +0.000 C 
ATOM      2  C   UNL     1       3.512   3.061  20.245  0.00  0.00    +0.000 A 
ATOM      3  C   UNL     1       2.317   2.890  20.977  0.00  0.00    +0.000 A 
ATOM      4  C   UNL     1       1.354   3.897  21.029  0.00  0.00    +0.000 A 
ATOM      5  C   UNL     1       1.540   5.105  20.371  0.00  0.00    +0.000 A 
ATOM      6  C   UNL     1       2.732   5.285  19.644  0.00  0.00    +0.000 A 
ATOM      7  C   UNL     1       3.698   4.287  19.563  0.00  0.00    +0.000 A 
ATOM      8  N   UNL     1       4.746   4.673  18.774  0.00  0.00    +0.000 NA
ATOM      9  C   UNL     1       4.456   5.894  18.340  0.00  0.00    +0.000 A 
ATOM     10  N   UNL     1       3.206   6.308  18.830  0.00  0.00    +0.000 N 
ENDROOT
BRANCH  10  11
ATOM     11  C   UNL     1       2.493   7.487  18.550  0.00  0.00    +0.000 A 
ATOM     12  C   UNL     1       1.753   7.781  17.427  0.00  0.00    +0.000 A 
ATOM     13  C   UNL     1       1.121   9.029  17.651  0.00  0.00    +0.000 A 
ATOM     14  C   UNL     1       1.530   9.463  18.893  0.00  0.00    +0.000 A 
ATOM     15  O   UNL     1       2.346   8.517  19.444  0.00  0.00    +0.000 OA
BRANCH  14  16
ATOM     16  C   UNL     1       1.099  10.607  19.676  0.00  0.00    +0.000 C 
ATOM     17  O   UNL     1       1.015  11.722  19.155  0.00  0.00    +0.000 OA
ATOM     18  N   UNL     1       0.772  10.428  21.017  0.00  0.00    +0.000 N 
ATOM     19  C   UNL     1       0.944   9.208  21.814  0.00  0.00    +0.000 C 
ATOM     20  C   UNL     1      -0.380   8.823  22.481  0.00  0.00    +0.000 C 
ATOM     21  O   UNL     1      -0.909   9.916  23.250  0.00  0.00    +0.000 OA
ATOM     22  C   UNL     1      -1.119  11.076  22.424  0.00  0.00    +0.000 C 
ATOM     23  C   UNL     1       0.191  11.535  21.777  0.00  0.00    +0.000 C 
ENDBRANCH  14  16
ENDBRANCH  10  11
BRANCH   9  24
ATOM     24  C   UNL     1       5.380   6.743  17.521  0.00  0.00    +0.000 C 
BRANCH  24  25
ATOM     25  C   UNL     1       6.848   6.306  17.550  0.00  0.00    +0.000 C 
BRANCH  25  26
ATOM     26  O   UNL     1       7.480   6.442  16.281  0.00  0.00    +0.000 OA
ATOM     27  H   UNL     1       7.050   7.212  15.856  0.00  0.00    +0.000 HD
ENDBRANCH  25  26
ENDBRANCH  24  25
ENDBRANCH   9  24
TORSDOF 5
ENDMDL
MODEL 8
REMARK VINA RESULT:      -7.7      2.026      7.413
REMARK  Name = 
REMARK  6 active torsions:
REMARK  status: ('A' for Active; 'I' for Inactive)
REMARK    1  A    between atoms: C_1  and  C_2
REMARK    2  A    between atoms: C_9  and  C_10
REMARK    3  A    between atoms: C_10  and  C_11
REMARK    4  A    between atoms: C_11  and  O_12
REMARK    5  A    between atoms: N_13  and  C_14
REMARK    6  A    between atoms: C_17  and  C_18
REMARK                            x       y       z     vdW  Elec       q    Type
REMARK                         _______ _______ _______ _____ _____    ______ ____
ROOT
ATOM      1  C   UNL     1      -1.981  11.723  22.847  0.00  0.00    +0.000 C 
ATOM      2  C   UNL     1      -0.905  10.718  22.564  0.00  0.00    +0.000 A 
ATOM      3  C   UNL     1      -0.195  10.125  23.630  0.00  0.00    +0.000 A 
ATOM      4  C   UNL     1       0.814   9.191  23.392  0.00  0.00    +0.000 A 
ATOM      5  C   UNL     1       1.147   8.806  22.101  0.00  0.00    +0.000 A 
ATOM      6  C   UNL     1       0.439   9.390  21.033  0.00  0.00    +0.000 A 
ATOM      7  C   UNL     1      -0.558  10.336  21.246  0.00  0.00    +0.000 A 
ATOM      8  N   UNL     1      -1.075  10.787  20.063  0.00  0.00    +0.000 NA
ATOM      9  C   UNL     1      -0.415  10.153  19.102  0.00  0.00    +0.000 A 
ATOM     10  N   UNL     1       0.553   9.295  19.651  0.00  0.00    +0.000 N 
ENDROOT
BRANCH  10  11
ATOM     11  C   UNL     1       1.513   8.508  18.990  0.00  0.00    +0.000 A 
ATOM     12  C   UNL     1       2.223   8.819  17.853  0.00  0.00    +0.000 A 
ATOM     13  C   UNL     1       3.157   7.776  17.637  0.00  0.00    +0.000 A 
ATOM     14  C   UNL     1       2.955   6.850  18.638  0.00  0.00    +0.000 A 
ATOM     15  O   UNL     1       1.970   7.307  19.468  0.00  0.00    +0.000 OA
BRANCH  14  16
ATOM     16  C   UNL     1       3.707   5.657  18.978  0.00  0.00    +0.000 C 
ATOM     17  O   UNL     1       4.923   5.722  19.172  0.00  0.00    +0.000 OA
ATOM     18  N   UNL     1       3.038   4.441  19.092  0.00  0.00    +0.000 N 
ATOM     19  C   UNL     1       1.633   4.171  18.766  0.00  0.00    +0.000 C 
ATOM     20  C   UNL     1       0.930   3.522  19.963  0.00  0.00    +0.000 C 
ATOM     21  O   UNL     1       1.633   2.347  20.400  0.00  0.00    +0.000 OA
ATOM     22  C   UNL     1       2.988   2.661  20.767  0.00  0.00    +0.000 C 
ATOM     23  C   UNL     1       3.752   3.262  19.583  0.00  0.00    +0.000 C 
ENDBRANCH  14  16
ENDBRANCH  10  11
BRANCH   9  24
ATOM     24  C   UNL     1      -0.727  10.271  17.641  0.00  0.00    +0.000 C 
BRANCH  24  25
ATOM     25  C   UNL     1      -2.130  10.798  17.326  0.00  0.00    +0.000 C 
BRANCH  25  26
ATOM     26  O   UNL     1      -2.149  11.634  16.172  0.00  0.00    +0.000 OA
ATOM     27  H   UNL     1      -1.301  12.122  16.189  0.00  0.00    +0.000 HD
ENDBRANCH  25  26
ENDBRANCH  24  25
ENDBRANCH   9  24
TORSDOF 5
ENDMDL
MODEL 9
REMARK VINA RESULT:      -7.6      1.489      1.885
REMARK  Name = 
REMARK  6 active torsions:
REMARK  status: ('A' for Active; 'I' for Inactive)
REMARK    1  A    between atoms: C_1  and  C_2
REMARK    2  A    between atoms: C_9  and  C_10
REMARK    3  A    between atoms: C_10  and  C_11
REMARK    4  A    between atoms: C_11  and  O_12
REMARK    5  A    between atoms: N_13  and  C_14
REMARK    6  A    between atoms: C_17  and  C_18
REMARK                            x       y       z     vdW  Elec       q    Type
REMARK                         _______ _______ _______ _____ _____    ______ ____
ROOT
ATOM      1  C   UNL     1       3.525   1.689  18.190  0.00  0.00    +0.000 C 
ATOM      2  C   UNL     1       2.752   2.680  19.006  0.00  0.00    +0.000 A 
ATOM      3  C   UNL     1       1.853   2.231  19.997  0.00  0.00    +0.000 A 
ATOM      4  C   UNL     1       1.119   3.134  20.767  0.00  0.00    +0.000 A 
ATOM      5  C   UNL     1       1.253   4.504  20.592  0.00  0.00    +0.000 A 
ATOM      6  C   UNL     1       2.152   4.959  19.609  0.00  0.00    +0.000 A 
ATOM      7  C   UNL     1       2.881   4.077  18.818  0.00  0.00    +0.000 A 
ATOM      8  N   UNL     1       3.656   4.747  17.911  0.00  0.00    +0.000 NA
ATOM      9  C   UNL     1       3.421   6.040  18.104  0.00  0.00    +0.000 A 
ATOM     10  N   UNL     1       2.477   6.223  19.128  0.00  0.00    +0.000 N 
ENDROOT
BRANCH  10  11
ATOM     11  C   UNL     1       1.893   7.416  19.589  0.00  0.00    +0.000 A 
ATOM     12  C   UNL     1       1.748   7.838  20.891  0.00  0.00    +0.000 A 
ATOM     13  C   UNL     1       1.218   9.151  20.855  0.00  0.00    +0.000 A 
ATOM     14  C   UNL     1       1.029   9.465  19.526  0.00  0.00    +0.000 A 
ATOM     15  O   UNL     1       1.457   8.418  18.761  0.00  0.00    +0.000 OA
BRANCH  14  16
ATOM     16  C   UNL     1       0.633  10.716  18.905  0.00  0.00    +0.000 C 
ATOM     17  O   UNL     1       1.486  11.540  18.566  0.00  0.00    +0.000 OA
ATOM     18  N   UNL     1      -0.719  10.969  18.689  0.00  0.00    +0.000 N 
ATOM     19  C   UNL     1      -1.854  10.164  19.151  0.00  0.00    +0.000 C 
ATOM     20  C   UNL     1      -2.765   9.811  17.970  0.00  0.00    +0.000 C 
ATOM     21  O   UNL     1      -3.176  10.993  17.263  0.00  0.00    +0.000 OA
ATOM     22  C   UNL     1      -2.038  11.727  16.776  0.00  0.00    +0.000 C 
ATOM     23  C   UNL     1      -1.123  12.152  17.929  0.00  0.00    +0.000 C 
ENDBRANCH  14  16
ENDBRANCH  10  11
BRANCH   9  24
ATOM     24  C   UNL     1       4.138   7.146  17.391  0.00  0.00    +0.000 C 
BRANCH  24  25
ATOM     25  C   UNL     1       5.266   6.684  16.462  0.00  0.00    +0.000 C 
BRANCH  25  26
ATOM     26  O   UNL     1       6.356   6.111  17.176  0.00  0.00    +0.000 OA
ATOM     27  H   UNL     1       7.152   6.591  16.868  0.00  0.00    +0.000 HD
ENDBRANCH  25  26
ENDBRANCH  24  25
ENDBRANCH   9  24
TORSDOF 5
ENDMDL
