MODEL 1
REMARK VINA RESULT:      -9.4      0.000      0.000
REMARK  Name = 
REMARK  1 active torsions:
REMARK  status: ('A' for Active; 'I' for Inactive)
REMARK    1  A    between atoms: C_17  and  C_18
REMARK                            x       y       z     vdW  Elec       q    Type
REMARK                         _______ _______ _______ _____ _____    ______ ____
ROOT
ATOM      1  O   UNL     1       4.088   2.354  18.186  0.00  0.00    +0.000 OA
ATOM      2  C   UNL     1       4.012   3.562  18.016  0.00  0.00    +0.000 C 
ATOM      3  C   UNL     1       4.730   4.210  16.900  0.00  0.00    +0.000 A 
ATOM      4  C   UNL     1       5.509   3.427  16.038  0.00  0.00    +0.000 A 
ATOM      5  C   UNL     1       6.190   4.023  14.976  0.00  0.00    +0.000 A 
ATOM      6  C   UNL     1       6.096   5.400  14.772  0.00  0.00    +0.000 A 
ATOM      7  C   UNL     1       5.325   6.184  15.630  0.00  0.00    +0.000 A 
ATOM      8  C   UNL     1       4.640   5.588  16.698  0.00  0.00    +0.000 A 
ATOM      9  C   UNL     1       3.830   6.421  17.605  0.00  0.00    +0.000 C 
ATOM     10  O   UNL     1       3.747   7.635  17.449  0.00  0.00    +0.000 OA
ATOM     11  C   UNL     1       3.118   5.770  18.717  0.00  0.00    +0.000 A 
ATOM     12  C   UNL     1       3.199   4.394  18.931  0.00  0.00    +0.000 A 
ATOM     13  C   UNL     1       2.521   3.787  19.999  0.00  0.00    +0.000 A 
ATOM     14  C   UNL     1       1.757   4.553  20.890  0.00  0.00    +0.000 A 
ATOM     15  C   UNL     1       1.671   5.936  20.685  0.00  0.00    +0.000 A 
ATOM     16  N   UNL     1       0.996   6.890  21.401  0.00  0.00    +0.000 NA
ATOM     17  C   UNL     1       1.207   8.036  20.777  0.00  0.00    +0.000 A 
ATOM     18  N   UNL     1       2.021   7.835  19.686  0.00  0.00    +0.000 N 
ATOM     19  C   UNL     1       2.336   6.505  19.610  0.00  0.00    +0.000 A 
ATOM     20  H   UNL     1       2.327   8.548  19.033  0.00  0.00    +0.000 HD
ENDROOT
BRANCH  17  21
ATOM     21  C   UNL     1       0.665   9.341  21.151  0.00  0.00    +0.000 A 
ATOM     22  C   UNL     1      -0.021   9.493  22.364  0.00  0.00    +0.000 A 
ATOM     23  C   UNL     1      -0.546  10.736  22.735  0.00  0.00    +0.000 A 
ATOM     24  C   UNL     1      -0.397  11.837  21.892  0.00  0.00    +0.000 A 
ATOM     25  C   UNL     1       0.276  11.699  20.681  0.00  0.00    +0.000 A 
ATOM     26  C   UNL     1       0.802  10.462  20.324  0.00  0.00    +0.000 A 
ATOM     27  F   UNL     1       1.448  10.367  19.150  0.00  0.00    +0.000 F 
ENDBRANCH  17  21
TORSDOF 1
ENDMDL
MODEL 2
REMARK VINA RESULT:      -9.4      0.922      1.319
REMARK  Name = 
REMARK  1 active torsions:
REMARK  status: ('A' for Active; 'I' for Inactive)
REMARK    1  A    between atoms: C_17  and  C_18
REMARK                            x       y       z     vdW  Elec       q    Type
REMARK                         _______ _______ _______ _____ _____    ______ ____
ROOT
ATOM      1  O   UNL     1       4.044   2.469  18.369  0.00  0.00    +0.000 OA
ATOM      2  C   UNL     1       3.976   3.669  18.144  0.00  0.00    +0.000 C 
ATOM      3  C   UNL     1       4.697   4.260  16.999  0.00  0.00    +0.000 A 
ATOM      4  C   UNL     1       5.470   3.434  16.174  0.00  0.00    +0.000 A 
ATOM      5  C   UNL     1       6.154   3.976  15.086  0.00  0.00    +0.000 A 
ATOM      6  C   UNL     1       6.070   5.343  14.819  0.00  0.00    +0.000 A 
ATOM      7  C   UNL     1       5.303   6.171  15.641  0.00  0.00    +0.000 A 
ATOM      8  C   UNL     1       4.615   5.628  16.735  0.00  0.00    +0.000 A 
ATOM      9  C   UNL     1       3.811   6.507  17.603  0.00  0.00    +0.000 C 
ATOM     10  O   UNL     1       3.736   7.713  17.392  0.00  0.00    +0.000 OA
ATOM     11  C   UNL     1       3.096   5.912  18.744  0.00  0.00    +0.000 A 
ATOM     12  C   UNL     1       3.168   4.546  19.020  0.00  0.00    +0.000 A 
ATOM     13  C   UNL     1       2.487   3.994  20.115  0.00  0.00    +0.000 A 
ATOM     14  C   UNL     1       1.728   4.804  20.971  0.00  0.00    +0.000 A 
ATOM     15  C   UNL     1       1.650   6.177  20.702  0.00  0.00    +0.000 A 
ATOM     16  N   UNL     1       0.982   7.167  21.375  0.00  0.00    +0.000 NA
ATOM     17  C   UNL     1       1.200   8.282  20.699  0.00  0.00    +0.000 A 
ATOM     18  N   UNL     1       2.012   8.026  19.617  0.00  0.00    +0.000 N 
ATOM     19  C   UNL     1       2.319   6.692  19.603  0.00  0.00    +0.000 A 
ATOM     20  H   UNL     1       2.322   8.707  18.933  0.00  0.00    +0.000 HD
ENDROOT
BRANCH  17  21
ATOM     21  C   UNL     1       0.666   9.606  21.012  0.00  0.00    +0.000 A 
ATOM     22  C   UNL     1       0.856  10.668  20.115  0.00  0.00    +0.000 A 
ATOM     23  C   UNL     1       0.351  11.940  20.401  0.00  0.00    +0.000 A 
ATOM     24  C   UNL     1      -0.340  12.168  21.592  0.00  0.00    +0.000 A 
ATOM     25  C   UNL     1      -0.529  11.124  22.495  0.00  0.00    +0.000 A 
ATOM     26  C   UNL     1      -0.032   9.860  22.199  0.00  0.00    +0.000 A 
ATOM     27  F   UNL     1      -0.236   8.877  23.091  0.00  0.00    +0.000 F 
ENDBRANCH  17  21
TORSDOF 1
ENDMDL
MODEL 3
REMARK VINA RESULT:      -9.1      2.875      7.741
REMARK  Name = 
REMARK  1 active torsions:
REMARK  status: ('A' for Active; 'I' for Inactive)
REMARK    1  A    between atoms: C_17  and  C_18
REMARK                            x       y       z     vdW  Elec       q    Type
REMARK                         _______ _______ _______ _____ _____    ______ ____
ROOT
ATOM      1  O   UNL     1       1.831   5.068  21.485  0.00  0.00    +0.000 OA
ATOM      2  C   UNL     1       2.164   5.662  20.470  0.00  0.00    +0.000 C 
ATOM      3  C   UNL     1       1.766   7.068  20.257  0.00  0.00    +0.000 A 
ATOM      4  C   UNL     1       0.993   7.717  21.228  0.00  0.00    +0.000 A 
ATOM      5  C   UNL     1       0.612   9.046  21.045  0.00  0.00    +0.000 A 
ATOM      6  C   UNL     1       1.000   9.731  19.892  0.00  0.00    +0.000 A 
ATOM      7  C   UNL     1       1.767   9.087  18.920  0.00  0.00    +0.000 A 
ATOM      8  C   UNL     1       2.151   7.751  19.103  0.00  0.00    +0.000 A 
ATOM      9  C   UNL     1       2.956   7.073  18.070  0.00  0.00    +0.000 C 
ATOM     10  O   UNL     1       3.295   7.655  17.045  0.00  0.00    +0.000 OA
ATOM     11  C   UNL     1       3.348   5.671  18.287  0.00  0.00    +0.000 A 
ATOM     12  C   UNL     1       2.971   4.975  19.437  0.00  0.00    +0.000 A 
ATOM     13  C   UNL     1       3.346   3.637  19.627  0.00  0.00    +0.000 A 
ATOM     14  C   UNL     1       4.097   2.958  18.658  0.00  0.00    +0.000 A 
ATOM     15  C   UNL     1       4.479   3.647  17.499  0.00  0.00    +0.000 A 
ATOM     16  N   UNL     1       5.206   3.216  16.420  0.00  0.00    +0.000 NA
ATOM     17  C   UNL     1       5.320   4.257  15.614  0.00  0.00    +0.000 A 
ATOM     18  N   UNL     1       4.661   5.341  16.148  0.00  0.00    +0.000 N 
ATOM     19  C   UNL     1       4.110   4.975  17.347  0.00  0.00    +0.000 A 
ATOM     20  H   UNL     1       4.603   6.264  15.734  0.00  0.00    +0.000 HD
ENDROOT
BRANCH  17  21
ATOM     21  C   UNL     1       6.039   4.297  14.342  0.00  0.00    +0.000 A 
ATOM     22  C   UNL     1       5.580   3.541  13.254  0.00  0.00    +0.000 A 
ATOM     23  C   UNL     1       6.257   3.568  12.031  0.00  0.00    +0.000 A 
ATOM     24  C   UNL     1       7.408   4.344  11.886  0.00  0.00    +0.000 A 
ATOM     25  C   UNL     1       7.880   5.094  12.961  0.00  0.00    +0.000 A 
ATOM     26  C   UNL     1       7.194   5.068  14.170  0.00  0.00    +0.000 A 
ATOM     27  F   UNL     1       7.676   5.806  15.184  0.00  0.00    +0.000 F 
ENDBRANCH  17  21
TORSDOF 1
ENDMDL
MODEL 4
REMARK VINA RESULT:      -9.1      3.328      8.144
REMARK  Name = 
REMARK  1 active torsions:
REMARK  status: ('A' for Active; 'I' for Inactive)
REMARK    1  A    between atoms: C_17  and  C_18
REMARK                            x       y       z     vdW  Elec       q    Type
REMARK                         _______ _______ _______ _____ _____    ______ ____
ROOT
ATOM      1  O   UNL     1       0.277  12.632  18.734  0.00  0.00    +0.000 OA
ATOM      2  C   UNL     1       0.254  11.725  19.554  0.00  0.00    +0.000 C 
ATOM      3  C   UNL     1      -0.449  11.894  20.842  0.00  0.00    +0.000 A 
ATOM      4  C   UNL     1      -1.086  13.110  21.122  0.00  0.00    +0.000 A 
ATOM      5  C   UNL     1      -1.758  13.284  22.331  0.00  0.00    +0.000 A 
ATOM      6  C   UNL     1      -1.796  12.247  23.264  0.00  0.00    +0.000 A 
ATOM      7  C   UNL     1      -1.159  11.036  22.991  0.00  0.00    +0.000 A 
ATOM      8  C   UNL     1      -0.484  10.858  21.776  0.00  0.00    +0.000 A 
ATOM      9  C   UNL     1       0.192   9.578  21.494  0.00  0.00    +0.000 C 
ATOM     10  O   UNL     1       0.180   8.661  22.308  0.00  0.00    +0.000 OA
ATOM     11  C   UNL     1       0.893   9.417  20.210  0.00  0.00    +0.000 A 
ATOM     12  C   UNL     1       0.935  10.443  19.265  0.00  0.00    +0.000 A 
ATOM     13  C   UNL     1       1.613  10.278  18.048  0.00  0.00    +0.000 A 
ATOM     14  C   UNL     1       2.280   9.080  17.756  0.00  0.00    +0.000 A 
ATOM     15  C   UNL     1       2.244   8.044  18.698  0.00  0.00    +0.000 A 
ATOM     16  N   UNL     1       2.805   6.794  18.651  0.00  0.00    +0.000 NA
ATOM     17  C   UNL     1       2.451   6.190  19.772  0.00  0.00    +0.000 A 
ATOM     18  N   UNL     1       1.690   7.038  20.545  0.00  0.00    +0.000 N 
ATOM     19  C   UNL     1       1.551   8.229  19.885  0.00  0.00    +0.000 A 
ATOM     20  H   UNL     1       1.285   6.817  21.447  0.00  0.00    +0.000 HD
ENDROOT
BRANCH  17  21
ATOM     21  C   UNL     1       2.785   4.822  20.165  0.00  0.00    +0.000 A 
ATOM     22  C   UNL     1       2.042   4.179  21.165  0.00  0.00    +0.000 A 
ATOM     23  C   UNL     1       2.350   2.871  21.552  0.00  0.00    +0.000 A 
ATOM     24  C   UNL     1       3.411   2.195  20.949  0.00  0.00    +0.000 A 
ATOM     25  C   UNL     1       4.163   2.825  19.960  0.00  0.00    +0.000 A 
ATOM     26  C   UNL     1       3.844   4.122  19.575  0.00  0.00    +0.000 A 
ATOM     27  F   UNL     1       4.588   4.696  18.615  0.00  0.00    +0.000 F 
ENDBRANCH  17  21
TORSDOF 1
ENDMDL
MODEL 5
REMARK VINA RESULT:      -8.9      0.991      1.163
REMARK  Name = 
REMARK  1 active torsions:
REMARK  status: ('A' for Active; 'I' for Inactive)
REMARK    1  A    between atoms: C_17  and  C_18
REMARK                            x       y       z     vdW  Elec       q    Type
REMARK                         _______ _______ _______ _____ _____    ______ ____
ROOT
ATOM      1  O   UNL     1       4.312   2.917  18.859  0.00  0.00    +0.000 OA
ATOM      2  C   UNL     1       4.160   4.047  18.418  0.00  0.00    +0.000 C 
ATOM      3  C   UNL     1       4.839   4.466  17.176  0.00  0.00    +0.000 A 
ATOM      4  C   UNL     1       5.669   3.557  16.507  0.00  0.00    +0.000 A 
ATOM      5  C   UNL     1       6.315   3.936  15.330  0.00  0.00    +0.000 A 
ATOM      6  C   UNL     1       6.134   5.221  14.817  0.00  0.00    +0.000 A 
ATOM      7  C   UNL     1       5.311   6.131  15.482  0.00  0.00    +0.000 A 
ATOM      8  C   UNL     1       4.662   5.753  16.665  0.00  0.00    +0.000 A 
ATOM      9  C   UNL     1       3.797   6.719  17.367  0.00  0.00    +0.000 C 
ATOM     10  O   UNL     1       3.638   7.857  16.938  0.00  0.00    +0.000 OA
ATOM     11  C   UNL     1       3.125   6.296  18.606  0.00  0.00    +0.000 A 
ATOM     12  C   UNL     1       3.292   5.013  19.128  0.00  0.00    +0.000 A 
ATOM     13  C   UNL     1       2.651   4.626  20.314  0.00  0.00    +0.000 A 
ATOM     14  C   UNL     1       1.836   5.526  21.015  0.00  0.00    +0.000 A 
ATOM     15  C   UNL     1       1.663   6.817  20.500  0.00  0.00    +0.000 A 
ATOM     16  N   UNL     1       0.926   7.866  20.987  0.00  0.00    +0.000 NA
ATOM     17  C   UNL     1       1.066   8.849  20.114  0.00  0.00    +0.000 A 
ATOM     18  N   UNL     1       1.894   8.455  19.089  0.00  0.00    +0.000 N 
ATOM     19  C   UNL     1       2.295   7.166  19.316  0.00  0.00    +0.000 A 
ATOM     20  H   UNL     1       2.156   9.018  18.287  0.00  0.00    +0.000 HD
ENDROOT
BRANCH  17  21
ATOM     21  C   UNL     1       0.440  10.168  20.186  0.00  0.00    +0.000 A 
ATOM     22  C   UNL     1       0.690  11.003  21.284  0.00  0.00    +0.000 A 
ATOM     23  C   UNL     1       0.099  12.268  21.367  0.00  0.00    +0.000 A 
ATOM     24  C   UNL     1      -0.756  12.708  20.356  0.00  0.00    +0.000 A 
ATOM     25  C   UNL     1      -1.018  11.886  19.262  0.00  0.00    +0.000 A 
ATOM     26  C   UNL     1      -0.419  10.634  19.184  0.00  0.00    +0.000 A 
ATOM     27  F   UNL     1      -0.692   9.870  18.113  0.00  0.00    +0.000 F 
ENDBRANCH  17  21
TORSDOF 1
ENDMDL
MODEL 6
REMARK VINA RESULT:      -8.9      3.163      8.218
REMARK  Name = 
REMARK  1 active torsions:
REMARK  status: ('A' for Active; 'I' for Inactive)
REMARK    1  A    between atoms: C_17  and  C_18
REMARK                            x       y       z     vdW  Elec       q    Type
REMARK                         _______ _______ _______ _____ _____    ______ ____
ROOT
ATOM      1  O   UNL     1       0.121  12.689  18.859  0.00  0.00    +0.000 OA
ATOM      2  C   UNL     1       0.160  11.740  19.628  0.00  0.00    +0.000 C 
ATOM      3  C   UNL     1      -0.521  11.806  20.937  0.00  0.00    +0.000 A 
ATOM      4  C   UNL     1      -1.208  12.973  21.295  0.00  0.00    +0.000 A 
ATOM      5  C   UNL     1      -1.860  13.050  22.526  0.00  0.00    +0.000 A 
ATOM      6  C   UNL     1      -1.828  11.964  23.402  0.00  0.00    +0.000 A 
ATOM      7  C   UNL     1      -1.142  10.801  23.050  0.00  0.00    +0.000 A 
ATOM      8  C   UNL     1      -0.486  10.721  21.814  0.00  0.00    +0.000 A 
ATOM      9  C   UNL     1       0.242   9.492  21.450  0.00  0.00    +0.000 C 
ATOM     10  O   UNL     1       0.292   8.533  22.212  0.00  0.00    +0.000 OA
ATOM     11  C   UNL     1       0.920   9.433  20.145  0.00  0.00    +0.000 A 
ATOM     12  C   UNL     1       0.893  10.509  19.257  0.00  0.00    +0.000 A 
ATOM     13  C   UNL     1       1.551  10.442  18.019  0.00  0.00    +0.000 A 
ATOM     14  C   UNL     1       2.266   9.295  17.649  0.00  0.00    +0.000 A 
ATOM     15  C   UNL     1       2.300   8.209  18.534  0.00  0.00    +0.000 A 
ATOM     16  N   UNL     1       2.918   6.992  18.408  0.00  0.00    +0.000 NA
ATOM     17  C   UNL     1       2.618   6.313  19.501  0.00  0.00    +0.000 A 
ATOM     18  N   UNL     1       1.836   7.081  20.334  0.00  0.00    +0.000 N 
ATOM     19  C   UNL     1       1.626   8.298  19.743  0.00  0.00    +0.000 A 
ATOM     20  H   UNL     1       1.462   6.792  21.231  0.00  0.00    +0.000 HD
ENDROOT
BRANCH  17  21
ATOM     21  C   UNL     1       3.025   4.944  19.812  0.00  0.00    +0.000 A 
ATOM     22  C   UNL     1       4.268   4.466  19.372  0.00  0.00    +0.000 A 
ATOM     23  C   UNL     1       4.671   3.158  19.662  0.00  0.00    +0.000 A 
ATOM     24  C   UNL     1       3.832   2.312  20.387  0.00  0.00    +0.000 A 
ATOM     25  C   UNL     1       2.592   2.771  20.824  0.00  0.00    +0.000 A 
ATOM     26  C   UNL     1       2.202   4.075  20.540  0.00  0.00    +0.000 A 
ATOM     27  F   UNL     1       1.002   4.485  20.980  0.00  0.00    +0.000 F 
ENDBRANCH  17  21
TORSDOF 1
ENDMDL
MODEL 7
REMARK VINA RESULT:      -8.7      2.578      7.500
REMARK  Name = 
REMARK  1 active torsions:
REMARK  status: ('A' for Active; 'I' for Inactive)
REMARK    1  A    between atoms: C_17  and  C_18
REMARK                            x       y       z     vdW  Elec       q    Type
REMARK                         _______ _______ _______ _____ _____    ______ ____
ROOT
ATOM      1  O   UNL     1       0.033   8.160  22.045  0.00  0.00    +0.000 OA
ATOM      2  C   UNL     1       0.585   8.424  20.985  0.00  0.00    +0.000 C 
ATOM      3  C   UNL     1       0.360   9.726  20.326  0.00  0.00    +0.000 A 
ATOM      4  C   UNL     1      -0.499  10.657  20.921  0.00  0.00    +0.000 A 
ATOM      5  C   UNL     1      -0.719  11.894  20.313  0.00  0.00    +0.000 A 
ATOM      6  C   UNL     1      -0.082  12.203  19.111  0.00  0.00    +0.000 A 
ATOM      7  C   UNL     1       0.772  11.276  18.512  0.00  0.00    +0.000 A 
ATOM      8  C   UNL     1       0.994  10.033  19.121  0.00  0.00    +0.000 A 
ATOM      9  C   UNL     1       1.893   9.054  18.482  0.00  0.00    +0.000 C 
ATOM     10  O   UNL     1       2.450   9.304  17.419  0.00  0.00    +0.000 OA
ATOM     11  C   UNL     1       2.111   7.758  19.144  0.00  0.00    +0.000 A 
ATOM     12  C   UNL     1       1.485   7.437  20.349  0.00  0.00    +0.000 A 
ATOM     13  C   UNL     1       1.697   6.194  20.965  0.00  0.00    +0.000 A 
ATOM     14  C   UNL     1       2.531   5.235  20.375  0.00  0.00    +0.000 A 
ATOM     15  C   UNL     1       3.164   5.547  19.164  0.00  0.00    +0.000 A 
ATOM     16  N   UNL     1       4.017   4.795  18.399  0.00  0.00    +0.000 NA
ATOM     17  C   UNL     1       4.359   5.556  17.374  0.00  0.00    +0.000 A 
ATOM     18  N   UNL     1       3.725   6.774  17.459  0.00  0.00    +0.000 N 
ATOM     19  C   UNL     1       2.950   6.790  18.588  0.00  0.00    +0.000 A 
ATOM     20  H   UNL     1       3.823   7.542  16.805  0.00  0.00    +0.000 HD
ENDROOT
BRANCH  17  21
ATOM     21  C   UNL     1       5.281   5.200  16.297  0.00  0.00    +0.000 A 
ATOM     22  C   UNL     1       4.828   4.434  15.213  0.00  0.00    +0.000 A 
ATOM     23  C   UNL     1       5.697   4.085  14.175  0.00  0.00    +0.000 A 
ATOM     24  C   UNL     1       7.032   4.489  14.214  0.00  0.00    +0.000 A 
ATOM     25  C   UNL     1       7.497   5.243  15.289  0.00  0.00    +0.000 A 
ATOM     26  C   UNL     1       6.624   5.594  16.313  0.00  0.00    +0.000 A 
ATOM     27  F   UNL     1       7.106   6.325  17.331  0.00  0.00    +0.000 F 
ENDBRANCH  17  21
TORSDOF 1
ENDMDL
MODEL 8
REMARK VINA RESULT:      -8.6      3.061      7.835
REMARK  Name = 
REMARK  1 active torsions:
REMARK  status: ('A' for Active; 'I' for Inactive)
REMARK    1  A    between atoms: C_17  and  C_18
REMARK                            x       y       z     vdW  Elec       q    Type
REMARK                         _______ _______ _______ _____ _____    ______ ____
ROOT
ATOM      1  O   UNL     1       1.868   5.321  21.277  0.00  0.00    +0.000 OA
ATOM      2  C   UNL     1       2.220   5.912  20.266  0.00  0.00    +0.000 C 
ATOM      3  C   UNL     1       1.814   7.312  20.034  0.00  0.00    +0.000 A 
ATOM      4  C   UNL     1       1.012   7.960  20.982  0.00  0.00    +0.000 A 
ATOM      5  C   UNL     1       0.624   9.285  20.781  0.00  0.00    +0.000 A 
ATOM      6  C   UNL     1       1.033   9.966  19.634  0.00  0.00    +0.000 A 
ATOM      7  C   UNL     1       1.829   9.322  18.684  0.00  0.00    +0.000 A 
ATOM      8  C   UNL     1       2.220   7.992  18.885  0.00  0.00    +0.000 A 
ATOM      9  C   UNL     1       3.056   7.314  17.877  0.00  0.00    +0.000 C 
ATOM     10  O   UNL     1       3.414   7.892  16.856  0.00  0.00    +0.000 OA
ATOM     11  C   UNL     1       3.456   5.917  18.112  0.00  0.00    +0.000 A 
ATOM     12  C   UNL     1       3.058   5.226  19.257  0.00  0.00    +0.000 A 
ATOM     13  C   UNL     1       3.440   3.892  19.465  0.00  0.00    +0.000 A 
ATOM     14  C   UNL     1       4.220   3.214  18.519  0.00  0.00    +0.000 A 
ATOM     15  C   UNL     1       4.624   3.899  17.365  0.00  0.00    +0.000 A 
ATOM     16  N   UNL     1       5.380   3.468  16.307  0.00  0.00    +0.000 NA
ATOM     17  C   UNL     1       5.504   4.505  15.496  0.00  0.00    +0.000 A 
ATOM     18  N   UNL     1       4.822   5.586  16.007  0.00  0.00    +0.000 N 
ATOM     19  C   UNL     1       4.246   5.222  17.195  0.00  0.00    +0.000 A 
ATOM     20  H   UNL     1       4.766   6.506  15.586  0.00  0.00    +0.000 HD
ENDROOT
BRANCH  17  21
ATOM     21  C   UNL     1       6.253   4.543  14.242  0.00  0.00    +0.000 A 
ATOM     22  C   UNL     1       7.403   5.337  14.137  0.00  0.00    +0.000 A 
ATOM     23  C   UNL     1       8.131   5.384  12.944  0.00  0.00    +0.000 A 
ATOM     24  C   UNL     1       7.710   4.643  11.839  0.00  0.00    +0.000 A 
ATOM     25  C   UNL     1       6.565   3.855  11.926  0.00  0.00    +0.000 A 
ATOM     26  C   UNL     1       5.853   3.808  13.120  0.00  0.00    +0.000 A 
ATOM     27  F   UNL     1       4.756   3.034  13.169  0.00  0.00    +0.000 F 
ENDBRANCH  17  21
TORSDOF 1
ENDMDL
MODEL 9
REMARK VINA RESULT:      -8.6      2.622      7.577
REMARK  Name = 
REMARK  1 active torsions:
REMARK  status: ('A' for Active; 'I' for Inactive)
REMARK    1  A    between atoms: C_17  and  C_18
REMARK                            x       y       z     vdW  Elec       q    Type
REMARK                         _______ _______ _______ _____ _____    ______ ____
ROOT
ATOM      1  O   UNL     1      -0.603   9.153  22.040  0.00  0.00    +0.000 OA
ATOM      2  C   UNL     1       0.043   9.306  21.013  0.00  0.00    +0.000 C 
ATOM      3  C   UNL     1      -0.067  10.556  20.235  0.00  0.00    +0.000 A 
ATOM      4  C   UNL     1      -0.927  11.568  20.680  0.00  0.00    +0.000 A 
ATOM      5  C   UNL     1      -1.039  12.757  19.960  0.00  0.00    +0.000 A 
ATOM      6  C   UNL     1      -0.295  12.939  18.793  0.00  0.00    +0.000 A 
ATOM      7  C   UNL     1       0.560  11.932  18.344  0.00  0.00    +0.000 A 
ATOM      8  C   UNL     1       0.674  10.737  19.067  0.00  0.00    +0.000 A 
ATOM      9  C   UNL     1       1.575   9.673  18.585  0.00  0.00    +0.000 C 
ATOM     10  O   UNL     1       2.227   9.811  17.555  0.00  0.00    +0.000 OA
ATOM     11  C   UNL     1       1.679   8.428  19.364  0.00  0.00    +0.000 A 
ATOM     12  C   UNL     1       0.945   8.234  20.534  0.00  0.00    +0.000 A 
ATOM     13  C   UNL     1       1.048   7.039  21.262  0.00  0.00    +0.000 A 
ATOM     14  C   UNL     1       1.882   6.002  20.823  0.00  0.00    +0.000 A 
ATOM     15  C   UNL     1       2.623   6.187  19.648  0.00  0.00    +0.000 A 
ATOM     16  N   UNL     1       3.498   5.340  19.020  0.00  0.00    +0.000 NA
ATOM     17  C   UNL     1       3.957   5.999  17.969  0.00  0.00    +0.000 A 
ATOM     18  N   UNL     1       3.375   7.245  17.904  0.00  0.00    +0.000 N 
ATOM     19  C   UNL     1       2.514   7.385  18.959  0.00  0.00    +0.000 A 
ATOM     20  H   UNL     1       3.561   7.951  17.201  0.00  0.00    +0.000 HD
ENDROOT
BRANCH  17  21
ATOM     21  C   UNL     1       4.944   5.518  17.005  0.00  0.00    +0.000 A 
ATOM     22  C   UNL     1       6.122   6.247  16.785  0.00  0.00    +0.000 A 
ATOM     23  C   UNL     1       7.075   5.799  15.865  0.00  0.00    +0.000 A 
ATOM     24  C   UNL     1       6.858   4.622  15.149  0.00  0.00    +0.000 A 
ATOM     25  C   UNL     1       5.689   3.892  15.352  0.00  0.00    +0.000 A 
ATOM     26  C   UNL     1       4.750   4.339  16.275  0.00  0.00    +0.000 A 
ATOM     27  F   UNL     1       3.637   3.608  16.447  0.00  0.00    +0.000 F 
ENDBRANCH  17  21
TORSDOF 1
ENDMDL
