MODEL 1
REMARK VINA RESULT:      -7.2      0.000      0.000
REMARK  Name = 
REMARK  3 active torsions:
REMARK  status: ('A' for Active; 'I' for Inactive)
REMARK    1  A    between atoms: N_5  and  O_6
REMARK    2  A    between atoms: C_9  and  C_10
REMARK    3  A    between atoms: C_14  and  N_15
REMARK                            x       y       z     vdW  Elec       q    Type
REMARK                         _______ _______ _______ _____ _____    ______ ____
ROOT
ATOM      1  O   UNL     1       6.498   5.196  17.795  0.00  0.00    +0.000 OA
ATOM      2  C   UNL     1       6.456   4.976  16.592  0.00  0.00    +0.000 C 
ATOM      3  N   UNL     1       7.485   5.263  15.724  0.00  0.00    +0.000 NA
ATOM      4  C   UNL     1       7.236   4.897  14.511  0.00  0.00    +0.000 C 
ATOM      5  N   UNL     1       8.054   5.074  13.427  0.00  0.00    +0.000 N 
ATOM      6  S   UNL     1       5.701   4.107  14.234  0.00  0.00    +0.000 S 
ATOM      7  C   UNL     1       5.281   4.364  15.890  0.00  0.00    +0.000 C 
ATOM      8  C   UNL     1       4.070   4.085  16.398  0.00  0.00    +0.000 C 
ATOM      9  H   UNL     1       7.591   5.001  12.526  0.00  0.00    +0.000 HD
ENDROOT
BRANCH   8  10
ATOM     10  C   UNL     1       3.646   4.404  17.764  0.00  0.00    +0.000 A 
ATOM     11  C   UNL     1       3.063   5.640  18.070  0.00  0.00    +0.000 A 
ATOM     12  C   UNL     1       2.619   5.912  19.368  0.00  0.00    +0.000 A 
ATOM     13  C   UNL     1       2.747   4.951  20.371  0.00  0.00    +0.000 A 
ATOM     14  C   UNL     1       3.337   3.718  20.068  0.00  0.00    +0.000 A 
ATOM     15  C   UNL     1       3.798   3.444  18.772  0.00  0.00    +0.000 A 
BRANCH  14  16
ATOM     16  N   UNL     1       3.465   2.694  21.112  0.00  0.00    +0.000 N 
ATOM     17  O   UNL     1       4.447   1.939  21.062  0.00  0.00    +0.000 OA
ATOM     18  O   UNL     1       2.581   2.639  21.979  0.00  0.00    +0.000 OA
ENDBRANCH  14  16
ENDBRANCH   8  10
BRANCH   5  19
ATOM     19  O   UNL     1       8.873   6.210  13.530  0.00  0.00    +0.000 OA
ATOM     20  H   UNL     1       9.489   5.988  14.259  0.00  0.00    +0.000 HD
ENDBRANCH   5  19
TORSDOF 3
ENDMDL
MODEL 2
REMARK VINA RESULT:      -6.7      2.623      3.070
REMARK  Name = 
REMARK  3 active torsions:
REMARK  status: ('A' for Active; 'I' for Inactive)
REMARK    1  A    between atoms: N_5  and  O_6
REMARK    2  A    between atoms: C_9  and  C_10
REMARK    3  A    between atoms: C_14  and  N_15
REMARK                            x       y       z     vdW  Elec       q    Type
REMARK                         _______ _______ _______ _____ _____    ______ ____
ROOT
ATOM      1  O   UNL     1       6.123   4.306  19.218  0.00  0.00    +0.000 OA
ATOM      2  C   UNL     1       6.220   5.218  18.409  0.00  0.00    +0.000 C 
ATOM      3  N   UNL     1       7.198   6.186  18.457  0.00  0.00    +0.000 NA
ATOM      4  C   UNL     1       7.133   7.016  17.472  0.00  0.00    +0.000 C 
ATOM      5  N   UNL     1       7.950   8.095  17.265  0.00  0.00    +0.000 N 
ATOM      6  S   UNL     1       5.873   6.731  16.293  0.00  0.00    +0.000 S 
ATOM      7  C   UNL     1       5.290   5.415  17.249  0.00  0.00    +0.000 C 
ATOM      8  C   UNL     1       4.159   4.746  16.976  0.00  0.00    +0.000 C 
ATOM      9  H   UNL     1       7.583   8.793  16.625  0.00  0.00    +0.000 HD
ENDROOT
BRANCH   8  10
ATOM     10  C   UNL     1       3.576   3.710  17.833  0.00  0.00    +0.000 A 
ATOM     11  C   UNL     1       3.862   2.355  17.625  0.00  0.00    +0.000 A 
ATOM     12  C   UNL     1       3.337   1.380  18.480  0.00  0.00    +0.000 A 
ATOM     13  C   UNL     1       2.525   1.751  19.554  0.00  0.00    +0.000 A 
ATOM     14  C   UNL     1       2.233   3.104  19.757  0.00  0.00    +0.000 A 
ATOM     15  C   UNL     1       2.744   4.085  18.895  0.00  0.00    +0.000 A 
BRANCH  14  16
ATOM     16  N   UNL     1       1.391   3.506  20.891  0.00  0.00    +0.000 N 
ATOM     17  O   UNL     1       1.386   2.776  21.893  0.00  0.00    +0.000 OA
ATOM     18  O   UNL     1       0.729   4.547  20.778  0.00  0.00    +0.000 OA
ENDBRANCH  14  16
ENDBRANCH   8  10
BRANCH   5  19
ATOM     19  O   UNL     1       8.443   8.653  18.456  0.00  0.00    +0.000 OA
ATOM     20  H   UNL     1       7.655   8.694  19.038  0.00  0.00    +0.000 HD
ENDBRANCH   5  19
TORSDOF 3
ENDMDL
MODEL 3
REMARK VINA RESULT:      -6.7      2.187      2.778
REMARK  Name = 
REMARK  3 active torsions:
REMARK  status: ('A' for Active; 'I' for Inactive)
REMARK    1  A    between atoms: N_5  and  O_6
REMARK    2  A    between atoms: C_9  and  C_10
REMARK    3  A    between atoms: C_14  and  N_15
REMARK                            x       y       z     vdW  Elec       q    Type
REMARK                         _______ _______ _______ _____ _____    ______ ____
ROOT
ATOM      1  O   UNL     1       6.508   5.356  17.664  0.00  0.00    +0.000 OA
ATOM      2  C   UNL     1       6.494   5.083  16.472  0.00  0.00    +0.000 C 
ATOM      3  N   UNL     1       7.535   5.350  15.612  0.00  0.00    +0.000 NA
ATOM      4  C   UNL     1       7.316   4.927  14.412  0.00  0.00    +0.000 C 
ATOM      5  N   UNL     1       8.152   5.071  13.337  0.00  0.00    +0.000 N 
ATOM      6  S   UNL     1       5.801   4.097  14.141  0.00  0.00    +0.000 S 
ATOM      7  C   UNL     1       5.344   4.418  15.775  0.00  0.00    +0.000 C 
ATOM      8  C   UNL     1       4.128   4.141  16.272  0.00  0.00    +0.000 C 
ATOM      9  H   UNL     1       7.709   4.949  12.431  0.00  0.00    +0.000 HD
ENDROOT
BRANCH   8  10
ATOM     10  C   UNL     1       3.671   4.512  17.614  0.00  0.00    +0.000 A 
ATOM     11  C   UNL     1       3.775   3.617  18.686  0.00  0.00    +0.000 A 
ATOM     12  C   UNL     1       3.379   4.002  19.971  0.00  0.00    +0.000 A 
ATOM     13  C   UNL     1       2.881   5.286  20.199  0.00  0.00    +0.000 A 
ATOM     14  C   UNL     1       2.769   6.178  19.126  0.00  0.00    +0.000 A 
ATOM     15  C   UNL     1       3.151   5.794  17.832  0.00  0.00    +0.000 A 
BRANCH  14  16
ATOM     16  N   UNL     1       2.258   7.535  19.356  0.00  0.00    +0.000 N 
ATOM     17  O   UNL     1       1.806   7.798  20.479  0.00  0.00    +0.000 OA
ATOM     18  O   UNL     1       2.303   8.336  18.411  0.00  0.00    +0.000 OA
ENDBRANCH  14  16
ENDBRANCH   8  10
BRANCH   5  19
ATOM     19  O   UNL     1       8.949   6.225  13.404  0.00  0.00    +0.000 OA
ATOM     20  H   UNL     1       9.572   6.123  12.654  0.00  0.00    +0.000 HD
ENDBRANCH   5  19
TORSDOF 3
ENDMDL
MODEL 4
REMARK VINA RESULT:      -6.6      0.941      1.075
REMARK  Name = 
REMARK  3 active torsions:
REMARK  status: ('A' for Active; 'I' for Inactive)
REMARK    1  A    between atoms: N_5  and  O_6
REMARK    2  A    between atoms: C_9  and  C_10
REMARK    3  A    between atoms: C_14  and  N_15
REMARK                            x       y       z     vdW  Elec       q    Type
REMARK                         _______ _______ _______ _____ _____    ______ ____
ROOT
ATOM      1  O   UNL     1       6.109   5.722  17.947  0.00  0.00    +0.000 OA
ATOM      2  C   UNL     1       6.156   5.314  16.795  0.00  0.00    +0.000 C 
ATOM      3  N   UNL     1       7.226   5.517  15.952  0.00  0.00    +0.000 NA
ATOM      4  C   UNL     1       7.073   4.953  14.801  0.00  0.00    +0.000 C 
ATOM      5  N   UNL     1       7.951   5.002  13.751  0.00  0.00    +0.000 N 
ATOM      6  S   UNL     1       5.597   4.045  14.567  0.00  0.00    +0.000 S 
ATOM      7  C   UNL     1       5.058   4.535  16.133  0.00  0.00    +0.000 C 
ATOM      8  C   UNL     1       3.831   4.274  16.609  0.00  0.00    +0.000 C 
ATOM      9  H   UNL     1       7.552   4.762  12.848  0.00  0.00    +0.000 HD
ENDROOT
BRANCH   8  10
ATOM     10  C   UNL     1       3.304   4.780  17.880  0.00  0.00    +0.000 A 
ATOM     11  C   UNL     1       3.119   6.152  18.091  0.00  0.00    +0.000 A 
ATOM     12  C   UNL     1       2.570   6.617  19.290  0.00  0.00    +0.000 A 
ATOM     13  C   UNL     1       2.196   5.715  20.288  0.00  0.00    +0.000 A 
ATOM     14  C   UNL     1       2.389   4.345  20.082  0.00  0.00    +0.000 A 
ATOM     15  C   UNL     1       2.952   3.873  18.887  0.00  0.00    +0.000 A 
BRANCH  14  16
ATOM     16  N   UNL     1       1.987   3.387  21.119  0.00  0.00    +0.000 N 
ATOM     17  O   UNL     1       1.092   2.575  20.840  0.00  0.00    +0.000 OA
ATOM     18  O   UNL     1       2.560   3.449  22.216  0.00  0.00    +0.000 OA
ENDBRANCH  14  16
ENDBRANCH   8  10
BRANCH   5  19
ATOM     19  O   UNL     1       8.709   6.183  13.717  0.00  0.00    +0.000 OA
ATOM     20  H   UNL     1       8.044   6.882  13.542  0.00  0.00    +0.000 HD
ENDBRANCH   5  19
TORSDOF 3
ENDMDL
MODEL 5
REMARK VINA RESULT:      -6.6      4.621      6.068
REMARK  Name = 
REMARK  3 active torsions:
REMARK  status: ('A' for Active; 'I' for Inactive)
REMARK    1  A    between atoms: N_5  and  O_6
REMARK    2  A    between atoms: C_9  and  C_10
REMARK    3  A    between atoms: C_14  and  N_15
REMARK                            x       y       z     vdW  Elec       q    Type
REMARK                         _______ _______ _______ _____ _____    ______ ____
ROOT
ATOM      1  O   UNL     1       2.999   7.805  16.911  0.00  0.00    +0.000 OA
ATOM      2  C   UNL     1       2.422   8.495  17.740  0.00  0.00    +0.000 C 
ATOM      3  N   UNL     1       2.091   9.816  17.541  0.00  0.00    +0.000 NA
ATOM      4  C   UNL     1       1.442  10.326  18.533  0.00  0.00    +0.000 C 
ATOM      5  N   UNL     1       1.004  11.620  18.637  0.00  0.00    +0.000 N 
ATOM      6  S   UNL     1       1.100   9.257  19.874  0.00  0.00    +0.000 S 
ATOM      7  C   UNL     1       1.995   8.004  19.091  0.00  0.00    +0.000 C 
ATOM      8  C   UNL     1       2.271   6.823  19.664  0.00  0.00    +0.000 C 
ATOM      9  H   UNL     1       0.783  11.922  19.581  0.00  0.00    +0.000 HD
ENDROOT
BRANCH   8  10
ATOM     10  C   UNL     1       3.129   5.790  19.075  0.00  0.00    +0.000 A 
ATOM     11  C   UNL     1       2.597   4.796  18.245  0.00  0.00    +0.000 A 
ATOM     12  C   UNL     1       3.434   3.846  17.651  0.00  0.00    +0.000 A 
ATOM     13  C   UNL     1       4.811   3.883  17.877  0.00  0.00    +0.000 A 
ATOM     14  C   UNL     1       5.342   4.871  18.713  0.00  0.00    +0.000 A 
ATOM     15  C   UNL     1       4.507   5.819  19.323  0.00  0.00    +0.000 A 
BRANCH  14  16
ATOM     16  N   UNL     1       6.791   4.928  18.948  0.00  0.00    +0.000 N 
ATOM     17  O   UNL     1       7.534   4.455  18.076  0.00  0.00    +0.000 OA
ATOM     18  O   UNL     1       7.185   5.439  20.006  0.00  0.00    +0.000 OA
ENDBRANCH  14  16
ENDBRANCH   8  10
BRANCH   5  19
ATOM     19  O   UNL     1       1.813  12.536  17.945  0.00  0.00    +0.000 OA
ATOM     20  H   UNL     1       2.726  12.239  18.146  0.00  0.00    +0.000 HD
ENDBRANCH   5  19
TORSDOF 3
ENDMDL
MODEL 6
REMARK VINA RESULT:      -6.5      2.222      2.577
REMARK  Name = 
REMARK  3 active torsions:
REMARK  status: ('A' for Active; 'I' for Inactive)
REMARK    1  A    between atoms: N_5  and  O_6
REMARK    2  A    between atoms: C_9  and  C_10
REMARK    3  A    between atoms: C_14  and  N_15
REMARK                            x       y       z     vdW  Elec       q    Type
REMARK                         _______ _______ _______ _____ _____    ______ ____
ROOT
ATOM      1  O   UNL     1       4.484   5.527  19.509  0.00  0.00    +0.000 OA
ATOM      2  C   UNL     1       5.224   5.494  18.535  0.00  0.00    +0.000 C 
ATOM      3  N   UNL     1       6.218   6.416  18.295  0.00  0.00    +0.000 NA
ATOM      4  C   UNL     1       6.903   6.151  17.235  0.00  0.00    +0.000 C 
ATOM      5  N   UNL     1       7.934   6.898  16.728  0.00  0.00    +0.000 N 
ATOM      6  S   UNL     1       6.464   4.700  16.363  0.00  0.00    +0.000 S 
ATOM      7  C   UNL     1       5.157   4.447  17.464  0.00  0.00    +0.000 C 
ATOM      8  C   UNL     1       4.235   3.484  17.309  0.00  0.00    +0.000 C 
ATOM      9  H   UNL     1       8.157   6.713  15.754  0.00  0.00    +0.000 HD
ENDROOT
BRANCH   8  10
ATOM     10  C   UNL     1       3.049   3.321  18.154  0.00  0.00    +0.000 A 
ATOM     11  C   UNL     1       1.761   3.484  17.631  0.00  0.00    +0.000 A 
ATOM     12  C   UNL     1       0.637   3.278  18.437  0.00  0.00    +0.000 A 
ATOM     13  C   UNL     1       0.789   2.903  19.773  0.00  0.00    +0.000 A 
ATOM     14  C   UNL     1       2.077   2.747  20.299  0.00  0.00    +0.000 A 
ATOM     15  C   UNL     1       3.208   2.966  19.499  0.00  0.00    +0.000 A 
BRANCH  14  16
ATOM     16  N   UNL     1       2.249   2.339  21.699  0.00  0.00    +0.000 N 
ATOM     17  O   UNL     1       1.258   2.391  22.441  0.00  0.00    +0.000 OA
ATOM     18  O   UNL     1       3.377   1.973  22.059  0.00  0.00    +0.000 OA
ENDBRANCH  14  16
ENDBRANCH   8  10
BRANCH   5  19
ATOM     19  O   UNL     1       7.816   8.269  17.010  0.00  0.00    +0.000 OA
ATOM     20  H   UNL     1       6.865   8.383  17.222  0.00  0.00    +0.000 HD
ENDBRANCH   5  19
TORSDOF 3
ENDMDL
MODEL 7
REMARK VINA RESULT:      -6.3      4.391      6.406
REMARK  Name = 
REMARK  3 active torsions:
REMARK  status: ('A' for Active; 'I' for Inactive)
REMARK    1  A    between atoms: N_5  and  O_6
REMARK    2  A    between atoms: C_9  and  C_10
REMARK    3  A    between atoms: C_14  and  N_15
REMARK                            x       y       z     vdW  Elec       q    Type
REMARK                         _______ _______ _______ _____ _____    ______ ____
ROOT
ATOM      1  O   UNL     1       2.748   7.700  17.471  0.00  0.00    +0.000 OA
ATOM      2  C   UNL     1       2.250   8.066  18.527  0.00  0.00    +0.000 C 
ATOM      3  N   UNL     1       1.736   9.326  18.736  0.00  0.00    +0.000 NA
ATOM      4  C   UNL     1       1.218   9.469  19.909  0.00  0.00    +0.000 C 
ATOM      5  N   UNL     1       0.656  10.612  20.413  0.00  0.00    +0.000 N 
ATOM      6  S   UNL     1       1.245   8.065  20.951  0.00  0.00    +0.000 S 
ATOM      7  C   UNL     1       2.128   7.199  19.744  0.00  0.00    +0.000 C 
ATOM      8  C   UNL     1       2.638   5.973  19.938  0.00  0.00    +0.000 C 
ATOM      9  H   UNL     1       0.572  10.636  21.426  0.00  0.00    +0.000 HD
ENDROOT
BRANCH   8  10
ATOM     10  C   UNL     1       3.493   5.265  18.981  0.00  0.00    +0.000 A 
ATOM     11  C   UNL     1       2.941   4.517  17.934  0.00  0.00    +0.000 A 
ATOM     12  C   UNL     1       3.769   3.887  17.000  0.00  0.00    +0.000 A 
ATOM     13  C   UNL     1       5.157   4.001  17.100  0.00  0.00    +0.000 A 
ATOM     14  C   UNL     1       5.709   4.741  18.151  0.00  0.00    +0.000 A 
ATOM     15  C   UNL     1       4.885   5.365  19.100  0.00  0.00    +0.000 A 
BRANCH  14  16
ATOM     16  N   UNL     1       7.167   4.879  18.259  0.00  0.00    +0.000 N 
ATOM     17  O   UNL     1       7.848   4.601  17.261  0.00  0.00    +0.000 OA
ATOM     18  O   UNL     1       7.633   5.259  19.343  0.00  0.00    +0.000 OA
ENDBRANCH  14  16
ENDBRANCH   8  10
BRANCH   5  19
ATOM     19  O   UNL     1       1.218  11.786  19.885  0.00  0.00    +0.000 OA
ATOM     20  H   UNL     1       2.101  11.833  20.307  0.00  0.00    +0.000 HD
ENDBRANCH   5  19
TORSDOF 3
ENDMDL
MODEL 8
REMARK VINA RESULT:      -6.3      2.560      6.485
REMARK  Name = 
REMARK  3 active torsions:
REMARK  status: ('A' for Active; 'I' for Inactive)
REMARK    1  A    between atoms: N_5  and  O_6
REMARK    2  A    between atoms: C_9  and  C_10
REMARK    3  A    between atoms: C_14  and  N_15
REMARK                            x       y       z     vdW  Elec       q    Type
REMARK                         _______ _______ _______ _____ _____    ______ ____
ROOT
ATOM      1  O   UNL     1       4.982   4.430  19.662  0.00  0.00    +0.000 OA
ATOM      2  C   UNL     1       3.802   4.114  19.607  0.00  0.00    +0.000 C 
ATOM      3  N   UNL     1       3.084   3.638  20.682  0.00  0.00    +0.000 NA
ATOM      4  C   UNL     1       1.844   3.418  20.400  0.00  0.00    +0.000 C 
ATOM      5  N   UNL     1       0.895   2.920  21.253  0.00  0.00    +0.000 N 
ATOM      6  S   UNL     1       1.336   3.791  18.769  0.00  0.00    +0.000 S 
ATOM      7  C   UNL     1       2.965   4.199  18.365  0.00  0.00    +0.000 C 
ATOM      8  C   UNL     1       3.368   4.490  17.119  0.00  0.00    +0.000 C 
ATOM      9  H   UNL     1       0.070   2.539  20.799  0.00  0.00    +0.000 HD
ENDROOT
BRANCH   8  10
ATOM     10  C   UNL     1       4.761   4.720  16.724  0.00  0.00    +0.000 A 
ATOM     11  C   UNL     1       5.359   3.962  15.711  0.00  0.00    +0.000 A 
ATOM     12  C   UNL     1       6.674   4.225  15.312  0.00  0.00    +0.000 A 
ATOM     13  C   UNL     1       7.401   5.250  15.918  0.00  0.00    +0.000 A 
ATOM     14  C   UNL     1       6.806   6.003  16.937  0.00  0.00    +0.000 A 
ATOM     15  C   UNL     1       5.493   5.736  17.352  0.00  0.00    +0.000 A 
BRANCH  14  16
ATOM     16  N   UNL     1       7.557   7.093  17.573  0.00  0.00    +0.000 N 
ATOM     17  O   UNL     1       8.126   6.851  18.647  0.00  0.00    +0.000 OA
ATOM     18  O   UNL     1       7.572   8.193  17.003  0.00  0.00    +0.000 OA
ENDBRANCH  14  16
ENDBRANCH   8  10
BRANCH   5  19
ATOM     19  O   UNL     1       1.425   2.062  22.231  0.00  0.00    +0.000 OA
ATOM     20  H   UNL     1       1.659   2.665  22.968  0.00  0.00    +0.000 HD
ENDBRANCH   5  19
TORSDOF 3
ENDMDL
MODEL 9
REMARK VINA RESULT:      -6.3      3.184      6.686
REMARK  Name = 
REMARK  3 active torsions:
REMARK  status: ('A' for Active; 'I' for Inactive)
REMARK    1  A    between atoms: N_5  and  O_6
REMARK    2  A    between atoms: C_9  and  C_10
REMARK    3  A    between atoms: C_14  and  N_15
REMARK                            x       y       z     vdW  Elec       q    Type
REMARK                         _______ _______ _______ _____ _____    ______ ____
ROOT
ATOM      1  O   UNL     1       4.144   6.840  16.914  0.00  0.00    +0.000 OA
ATOM      2  C   UNL     1       3.644   6.286  17.883  0.00  0.00    +0.000 C 
ATOM      3  N   UNL     1       2.890   6.936  18.835  0.00  0.00    +0.000 NA
ATOM      4  C   UNL     1       2.425   6.139  19.737  0.00  0.00    +0.000 C 
ATOM      5  N   UNL     1       1.667   6.497  20.821  0.00  0.00    +0.000 N 
ATOM      6  S   UNL     1       2.808   4.443  19.555  0.00  0.00    +0.000 S 
ATOM      7  C   UNL     1       3.779   4.821  18.177  0.00  0.00    +0.000 C 
ATOM      8  C   UNL     1       4.546   3.921  17.542  0.00  0.00    +0.000 C 
ATOM      9  H   UNL     1       1.640   5.809  21.569  0.00  0.00    +0.000 HD
ENDROOT
BRANCH   8  10
ATOM     10  C   UNL     1       5.472   4.236  16.450  0.00  0.00    +0.000 A 
ATOM     11  C   UNL     1       6.674   4.910  16.694  0.00  0.00    +0.000 A 
ATOM     12  C   UNL     1       7.570   5.160  15.650  0.00  0.00    +0.000 A 
ATOM     13  C   UNL     1       7.276   4.736  14.353  0.00  0.00    +0.000 A 
ATOM     14  C   UNL     1       6.070   4.069  14.107  0.00  0.00    +0.000 A 
ATOM     15  C   UNL     1       5.160   3.827  15.147  0.00  0.00    +0.000 A 
BRANCH  14  16
ATOM     16  N   UNL     1       5.756   3.606  12.750  0.00  0.00    +0.000 N 
ATOM     17  O   UNL     1       4.565   3.592  12.407  0.00  0.00    +0.000 OA
ATOM     18  O   UNL     1       6.699   3.249  12.029  0.00  0.00    +0.000 OA
ENDBRANCH  14  16
ENDBRANCH   8  10
BRANCH   5  19
ATOM     19  O   UNL     1       1.937   7.795  21.283  0.00  0.00    +0.000 OA
ATOM     20  H   UNL     1       1.067   8.245  21.236  0.00  0.00    +0.000 HD
ENDBRANCH   5  19
TORSDOF 3
ENDMDL
