MODEL 1
REMARK VINA RESULT:      -6.4      0.000      0.000
REMARK  Name = 
REMARK  4 active torsions:
REMARK  status: ('A' for Active; 'I' for Inactive)
REMARK    1  A    between atoms: C_1  and  N_2
REMARK    2  A    between atoms: C_5  and  O_6
REMARK    3  A    between atoms: O_6  and  C_7
REMARK    4  A    between atoms: C_7  and  C_9
REMARK                            x       y       z     vdW  Elec       q    Type
REMARK                         _______ _______ _______ _____ _____    ______ ____
ROOT
ATOM      1  C   UNL     1       3.711   6.821  17.565  0.00  0.00    +0.000 C 
ATOM      2  O   UNL     1       3.687   8.022  17.765  0.00  0.00    +0.000 OA
ENDROOT
BRANCH   1   3
ATOM      3  C   UNL     1       4.951   6.089  17.193  0.00  0.00    +0.000 A 
ATOM      4  C   UNL     1       6.012   5.937  18.093  0.00  0.00    +0.000 A 
ATOM      5  C   UNL     1       7.137   5.199  17.728  0.00  0.00    +0.000 A 
ATOM      6  C   UNL     1       7.211   4.625  16.459  0.00  0.00    +0.000 A 
ATOM      7  C   UNL     1       6.163   4.793  15.555  0.00  0.00    +0.000 A 
ATOM      8 BR   UNL     1       6.265   4.001  13.842  0.00  0.00    +0.000 Br
ATOM      9  C   UNL     1       5.031   5.522  15.915  0.00  0.00    +0.000 A 
ENDBRANCH   1   3
BRANCH   1  10
ATOM     10  O   UNL     1       2.648   5.974  17.627  0.00  0.00    +0.000 OA
BRANCH  10  15
ATOM     11  C   UNL     1       1.354   2.463  21.849  0.00  0.00    +0.000 C 
ATOM     12  N   UNL     1       1.368   3.443  20.760  0.00  0.00    +0.000 NA
ATOM     13  C   UNL     1       2.202   4.600  21.118  0.00  0.00    +0.000 C 
ATOM     14  C   UNL     1       2.229   5.637  19.997  0.00  0.00    +0.000 C 
ATOM     15  C   UNL     1       2.706   5.008  18.691  0.00  0.00    +0.000 C 
ATOM     16  C   UNL     1       1.817   3.808  18.358  0.00  0.00    +0.000 C 
ATOM     17  C   UNL     1       1.824   2.810  19.515  0.00  0.00    +0.000 C 
ENDBRANCH  10  15
ENDBRANCH   1  10
TORSDOF 3
ENDMDL
MODEL 2
REMARK VINA RESULT:      -6.2      3.184      5.882
REMARK  Name = 
REMARK  4 active torsions:
REMARK  status: ('A' for Active; 'I' for Inactive)
REMARK    1  A    between atoms: C_1  and  N_2
REMARK    2  A    between atoms: C_5  and  O_6
REMARK    3  A    between atoms: O_6  and  C_7
REMARK    4  A    between atoms: C_7  and  C_9
REMARK                            x       y       z     vdW  Elec       q    Type
REMARK                         _______ _______ _______ _____ _____    ______ ____
ROOT
ATOM      1  C   UNL     1       3.137   6.507  18.800  0.00  0.00    +0.000 C 
ATOM      2  O   UNL     1       2.592   7.594  18.741  0.00  0.00    +0.000 OA
ENDROOT
BRANCH   1   3
ATOM      3  C   UNL     1       2.381   5.230  18.912  0.00  0.00    +0.000 A 
ATOM      4  C   UNL     1       1.765   4.642  17.802  0.00  0.00    +0.000 A 
ATOM      5  C   UNL     1       1.111   3.418  17.934  0.00  0.00    +0.000 A 
ATOM      6  C   UNL     1       1.059   2.787  19.177  0.00  0.00    +0.000 A 
ATOM      7  C   UNL     1       1.657   3.383  20.287  0.00  0.00    +0.000 A 
ATOM      8 BR   UNL     1       1.593   2.515  21.966  0.00  0.00    +0.000 Br
ATOM      9  C   UNL     1       2.319   4.602  20.162  0.00  0.00    +0.000 A 
ENDBRANCH   1   3
BRANCH   1  10
ATOM     10  O   UNL     1       4.478   6.278  18.791  0.00  0.00    +0.000 OA
BRANCH  10  15
ATOM     11  C   UNL     1       7.372   4.804  14.178  0.00  0.00    +0.000 C 
ATOM     12  N   UNL     1       6.822   5.447  15.374  0.00  0.00    +0.000 NA
ATOM     13  C   UNL     1       5.414   5.813  15.161  0.00  0.00    +0.000 C 
ATOM     14  C   UNL     1       4.819   6.489  16.394  0.00  0.00    +0.000 C 
ATOM     15  C   UNL     1       4.967   5.596  17.623  0.00  0.00    +0.000 C 
ATOM     16  C   UNL     1       6.442   5.236  17.806  0.00  0.00    +0.000 C 
ATOM     17  C   UNL     1       6.983   4.570  16.541  0.00  0.00    +0.000 C 
ENDBRANCH  10  15
ENDBRANCH   1  10
TORSDOF 3
ENDMDL
MODEL 3
REMARK VINA RESULT:      -6.2      2.578      3.166
REMARK  Name = 
REMARK  4 active torsions:
REMARK  status: ('A' for Active; 'I' for Inactive)
REMARK    1  A    between atoms: C_1  and  N_2
REMARK    2  A    between atoms: C_5  and  O_6
REMARK    3  A    between atoms: O_6  and  C_7
REMARK    4  A    between atoms: C_7  and  C_9
REMARK                            x       y       z     vdW  Elec       q    Type
REMARK                         _______ _______ _______ _____ _____    ______ ____
ROOT
ATOM      1  C   UNL     1       6.026   4.767  15.954  0.00  0.00    +0.000 C 
ATOM      2  O   UNL     1       6.561   4.070  15.112  0.00  0.00    +0.000 OA
ENDROOT
BRANCH   1   3
ATOM      3  C   UNL     1       6.780   5.428  17.053  0.00  0.00    +0.000 A 
ATOM      4  C   UNL     1       7.263   4.706  18.150  0.00  0.00    +0.000 A 
ATOM      5  C   UNL     1       8.012   5.350  19.134  0.00  0.00    +0.000 A 
ATOM      6  C   UNL     1       8.266   6.718  19.032  0.00  0.00    +0.000 A 
ATOM      7  C   UNL     1       7.768   7.441  17.949  0.00  0.00    +0.000 A 
ATOM      8 BR   UNL     1       8.128   9.292  17.812  0.00  0.00    +0.000 Br
ATOM      9  C   UNL     1       7.025   6.804  16.957  0.00  0.00    +0.000 A 
ENDBRANCH   1   3
BRANCH   1  10
ATOM     10  O   UNL     1       4.696   5.040  16.046  0.00  0.00    +0.000 OA
BRANCH  10  15
ATOM     11  C   UNL     1       0.997   3.873  20.143  0.00  0.00    +0.000 C 
ATOM     12  N   UNL     1       1.688   4.265  18.912  0.00  0.00    +0.000 NA
ATOM     13  C   UNL     1       2.598   5.392  19.168  0.00  0.00    +0.000 C 
ATOM     14  C   UNL     1       3.328   5.821  17.897  0.00  0.00    +0.000 C 
ATOM     15  C   UNL     1       4.082   4.643  17.285  0.00  0.00    +0.000 C 
ATOM     16  C   UNL     1       3.102   3.494  17.038  0.00  0.00    +0.000 C 
ATOM     17  C   UNL     1       2.398   3.114  18.340  0.00  0.00    +0.000 C 
ENDBRANCH  10  15
ENDBRANCH   1  10
TORSDOF 3
ENDMDL
MODEL 4
REMARK VINA RESULT:      -6.1      2.733      3.887
REMARK  Name = 
REMARK  4 active torsions:
REMARK  status: ('A' for Active; 'I' for Inactive)
REMARK    1  A    between atoms: C_1  and  N_2
REMARK    2  A    between atoms: C_5  and  O_6
REMARK    3  A    between atoms: O_6  and  C_7
REMARK    4  A    between atoms: C_7  and  C_9
REMARK                            x       y       z     vdW  Elec       q    Type
REMARK                         _______ _______ _______ _____ _____    ______ ____
ROOT
ATOM      1  C   UNL     1       3.262   5.230  18.606  0.00  0.00    +0.000 C 
ATOM      2  O   UNL     1       2.350   4.479  18.316  0.00  0.00    +0.000 OA
ENDROOT
BRANCH   1   3
ATOM      3  C   UNL     1       4.632   5.091  18.042  0.00  0.00    +0.000 A 
ATOM      4  C   UNL     1       5.773   5.280  18.830  0.00  0.00    +0.000 A 
ATOM      5  C   UNL     1       7.040   5.090  18.280  0.00  0.00    +0.000 A 
ATOM      6  C   UNL     1       7.170   4.725  16.940  0.00  0.00    +0.000 A 
ATOM      7  C   UNL     1       6.033   4.555  16.150  0.00  0.00    +0.000 A 
ATOM      8 BR   UNL     1       6.217   4.047  14.338  0.00  0.00    +0.000 Br
ATOM      9  C   UNL     1       4.763   4.736  16.693  0.00  0.00    +0.000 A 
ENDBRANCH   1   3
BRANCH   1  10
ATOM     10  O   UNL     1       3.199   6.276  19.474  0.00  0.00    +0.000 OA
BRANCH  10  15
ATOM     11  C   UNL     1       0.241  11.033  18.797  0.00  0.00    +0.000 C 
ATOM     12  N   UNL     1       1.247  10.003  19.071  0.00  0.00    +0.000 NA
ATOM     13  C   UNL     1       0.790   9.108  20.144  0.00  0.00    +0.000 C 
ATOM     14  C   UNL     1       1.823   8.027  20.449  0.00  0.00    +0.000 C 
ATOM     15  C   UNL     1       2.164   7.235  19.190  0.00  0.00    +0.000 C 
ATOM     16  C   UNL     1       2.631   8.201  18.100  0.00  0.00    +0.000 C 
ATOM     17  C   UNL     1       1.560   9.261  17.843  0.00  0.00    +0.000 C 
ENDBRANCH  10  15
ENDBRANCH   1  10
TORSDOF 3
ENDMDL
MODEL 5
REMARK VINA RESULT:      -6.1      2.289      2.984
REMARK  Name = 
REMARK  4 active torsions:
REMARK  status: ('A' for Active; 'I' for Inactive)
REMARK    1  A    between atoms: C_1  and  N_2
REMARK    2  A    between atoms: C_5  and  O_6
REMARK    3  A    between atoms: O_6  and  C_7
REMARK    4  A    between atoms: C_7  and  C_9
REMARK                            x       y       z     vdW  Elec       q    Type
REMARK                         _______ _______ _______ _____ _____    ______ ____
ROOT
ATOM      1  C   UNL     1       5.598   4.687  16.149  0.00  0.00    +0.000 C 
ATOM      2  O   UNL     1       6.103   5.400  16.996  0.00  0.00    +0.000 OA
ENDROOT
BRANCH   1   3
ATOM      3  C   UNL     1       6.131   4.579  14.764  0.00  0.00    +0.000 A 
ATOM      4  C   UNL     1       7.308   5.229  14.377  0.00  0.00    +0.000 A 
ATOM      5  C   UNL     1       7.806   5.062  13.085  0.00  0.00    +0.000 A 
ATOM      6  C   UNL     1       7.121   4.258  12.174  0.00  0.00    +0.000 A 
ATOM      7  C   UNL     1       5.938   3.626  12.554  0.00  0.00    +0.000 A 
ATOM      8 BR   UNL     1       5.022   2.527  11.317  0.00  0.00    +0.000 Br
ATOM      9  C   UNL     1       5.437   3.781  13.845  0.00  0.00    +0.000 A 
ENDBRANCH   1   3
BRANCH   1  10
ATOM     10  O   UNL     1       4.494   3.907  16.306  0.00  0.00    +0.000 OA
BRANCH  10  15
ATOM     11  C   UNL     1       1.255   3.075  20.850  0.00  0.00    +0.000 C 
ATOM     12  N   UNL     1       1.837   3.168  19.508  0.00  0.00    +0.000 NA
ATOM     13  C   UNL     1       2.109   4.570  19.160  0.00  0.00    +0.000 C 
ATOM     14  C   UNL     1       2.715   4.693  17.764  0.00  0.00    +0.000 C 
ATOM     15  C   UNL     1       3.982   3.849  17.649  0.00  0.00    +0.000 C 
ATOM     16  C   UNL     1       3.656   2.402  18.022  0.00  0.00    +0.000 C 
ATOM     17  C   UNL     1       3.049   2.343  19.424  0.00  0.00    +0.000 C 
ENDBRANCH  10  15
ENDBRANCH   1  10
TORSDOF 3
ENDMDL
MODEL 6
REMARK VINA RESULT:      -6.0      4.013      6.354
REMARK  Name = 
REMARK  4 active torsions:
REMARK  status: ('A' for Active; 'I' for Inactive)
REMARK    1  A    between atoms: C_1  and  N_2
REMARK    2  A    between atoms: C_5  and  O_6
REMARK    3  A    between atoms: O_6  and  C_7
REMARK    4  A    between atoms: C_7  and  C_9
REMARK                            x       y       z     vdW  Elec       q    Type
REMARK                         _______ _______ _______ _____ _____    ______ ____
ROOT
ATOM      1  C   UNL     1       2.736   6.016  19.354  0.00  0.00    +0.000 C 
ATOM      2  O   UNL     1       2.127   4.991  19.597  0.00  0.00    +0.000 OA
ENDROOT
BRANCH   1   3
ATOM      3  C   UNL     1       2.127   7.367  19.482  0.00  0.00    +0.000 A 
ATOM      4  C   UNL     1       2.076   8.255  18.402  0.00  0.00    +0.000 A 
ATOM      5  C   UNL     1       1.449   9.493  18.544  0.00  0.00    +0.000 A 
ATOM      6  C   UNL     1       0.885   9.851  19.769  0.00  0.00    +0.000 A 
ATOM      7  C   UNL     1       0.953   8.973  20.850  0.00  0.00    +0.000 A 
ATOM      8 BR   UNL     1       0.175   9.461  22.503  0.00  0.00    +0.000 Br
ATOM      9  C   UNL     1       1.571   7.732  20.715  0.00  0.00    +0.000 A 
ENDBRANCH   1   3
BRANCH   1  10
ATOM     10  O   UNL     1       4.025   6.104  18.924  0.00  0.00    +0.000 OA
BRANCH  10  15
ATOM     11  C   UNL     1       6.420   4.240  14.168  0.00  0.00    +0.000 C 
ATOM     12  N   UNL     1       6.110   4.772  15.498  0.00  0.00    +0.000 NA
ATOM     13  C   UNL     1       5.348   6.025  15.386  0.00  0.00    +0.000 C 
ATOM     14  C   UNL     1       5.015   6.601  16.760  0.00  0.00    +0.000 C 
ATOM     15  C   UNL     1       4.258   5.579  17.605  0.00  0.00    +0.000 C 
ATOM     16  C   UNL     1       5.082   4.293  17.692  0.00  0.00    +0.000 C 
ATOM     17  C   UNL     1       5.389   3.768  16.290  0.00  0.00    +0.000 C 
ENDBRANCH  10  15
ENDBRANCH   1  10
TORSDOF 3
ENDMDL
MODEL 7
REMARK VINA RESULT:      -5.9      3.497      6.324
REMARK  Name = 
REMARK  4 active torsions:
REMARK  status: ('A' for Active; 'I' for Inactive)
REMARK    1  A    between atoms: C_1  and  N_2
REMARK    2  A    between atoms: C_5  and  O_6
REMARK    3  A    between atoms: O_6  and  C_7
REMARK    4  A    between atoms: C_7  and  C_9
REMARK                            x       y       z     vdW  Elec       q    Type
REMARK                         _______ _______ _______ _____ _____    ______ ____
ROOT
ATOM      1  C   UNL     1       4.697   3.130  19.725  0.00  0.00    +0.000 C 
ATOM      2  O   UNL     1       5.020   1.975  19.933  0.00  0.00    +0.000 OA
ENDROOT
BRANCH   1   3
ATOM      3  C   UNL     1       3.313   3.631  19.938  0.00  0.00    +0.000 A 
ATOM      4  C   UNL     1       2.214   2.765  19.971  0.00  0.00    +0.000 A 
ATOM      5  C   UNL     1       0.938   3.265  20.226  0.00  0.00    +0.000 A 
ATOM      6  C   UNL     1       0.754   4.632  20.434  0.00  0.00    +0.000 A 
ATOM      7  C   UNL     1       1.846   5.497  20.382  0.00  0.00    +0.000 A 
ATOM      8 BR   UNL     1       1.591   7.347  20.678  0.00  0.00    +0.000 Br
ATOM      9  C   UNL     1       3.126   5.005  20.135  0.00  0.00    +0.000 A 
ENDBRANCH   1   3
BRANCH   1  10
ATOM     10  O   UNL     1       5.507   4.122  19.264  0.00  0.00    +0.000 OA
BRANCH  10  15
ATOM     11  C   UNL     1       6.885   4.885  13.847  0.00  0.00    +0.000 C 
ATOM     12  N   UNL     1       6.422   4.998  15.233  0.00  0.00    +0.000 NA
ATOM     13  C   UNL     1       5.332   4.046  15.491  0.00  0.00    +0.000 C 
ATOM     14  C   UNL     1       4.831   4.147  16.929  0.00  0.00    +0.000 C 
ATOM     15  C   UNL     1       5.976   3.941  17.916  0.00  0.00    +0.000 C 
ATOM     16  C   UNL     1       7.088   4.946  17.611  0.00  0.00    +0.000 C 
ATOM     17  C   UNL     1       7.544   4.802  16.160  0.00  0.00    +0.000 C 
ENDBRANCH  10  15
ENDBRANCH   1  10
TORSDOF 3
ENDMDL
MODEL 8
REMARK VINA RESULT:      -5.9      4.418      6.174
REMARK  Name = 
REMARK  4 active torsions:
REMARK  status: ('A' for Active; 'I' for Inactive)
REMARK    1  A    between atoms: C_1  and  N_2
REMARK    2  A    between atoms: C_5  and  O_6
REMARK    3  A    between atoms: O_6  and  C_7
REMARK    4  A    between atoms: C_7  and  C_9
REMARK                            x       y       z     vdW  Elec       q    Type
REMARK                         _______ _______ _______ _____ _____    ______ ____
ROOT
ATOM      1  C   UNL     1       2.180   8.322  18.389  0.00  0.00    +0.000 C 
ATOM      2  O   UNL     1       2.556   8.539  17.252  0.00  0.00    +0.000 OA
ENDROOT
BRANCH   1   3
ATOM      3  C   UNL     1       1.182   9.178  19.085  0.00  0.00    +0.000 A 
ATOM      4  C   UNL     1       0.382  10.090  18.387  0.00  0.00    +0.000 A 
ATOM      5  C   UNL     1      -0.580  10.837  19.066  0.00  0.00    +0.000 A 
ATOM      6  C   UNL     1      -0.735  10.686  20.444  0.00  0.00    +0.000 A 
ATOM      7  C   UNL     1       0.074   9.791  21.142  0.00  0.00    +0.000 A 
ATOM      8 BR   UNL     1      -0.151   9.581  23.007  0.00  0.00    +0.000 Br
ATOM      9  C   UNL     1       1.033   9.034  20.471  0.00  0.00    +0.000 A 
ENDBRANCH   1   3
BRANCH   1  10
ATOM     10  O   UNL     1       2.600   7.312  19.198  0.00  0.00    +0.000 OA
BRANCH  10  15
ATOM     11  C   UNL     1       3.326   1.829  18.087  0.00  0.00    +0.000 C 
ATOM     12  N   UNL     1       3.322   3.186  18.640  0.00  0.00    +0.000 NA
ATOM     13  C   UNL     1       3.973   4.122  17.712  0.00  0.00    +0.000 C 
ATOM     14  C   UNL     1       3.984   5.544  18.268  0.00  0.00    +0.000 C 
ATOM     15  C   UNL     1       2.567   6.005  18.598  0.00  0.00    +0.000 C 
ATOM     16  C   UNL     1       1.926   5.004  19.561  0.00  0.00    +0.000 C 
ATOM     17  C   UNL     1       1.949   3.601  18.954  0.00  0.00    +0.000 C 
ENDBRANCH  10  15
ENDBRANCH   1  10
TORSDOF 3
ENDMDL
MODEL 9
REMARK VINA RESULT:      -5.9      2.056      2.786
REMARK  Name = 
REMARK  4 active torsions:
REMARK  status: ('A' for Active; 'I' for Inactive)
REMARK    1  A    between atoms: C_1  and  N_2
REMARK    2  A    between atoms: C_5  and  O_6
REMARK    3  A    between atoms: O_6  and  C_7
REMARK    4  A    between atoms: C_7  and  C_9
REMARK                            x       y       z     vdW  Elec       q    Type
REMARK                         _______ _______ _______ _____ _____    ______ ____
ROOT
ATOM      1  C   UNL     1       6.781   5.075  18.899  0.00  0.00    +0.000 C 
ATOM      2  O   UNL     1       7.978   5.027  19.110  0.00  0.00    +0.000 OA
ENDROOT
BRANCH   1   3
ATOM      3  C   UNL     1       6.209   5.459  17.579  0.00  0.00    +0.000 A 
ATOM      4  C   UNL     1       5.488   6.645  17.408  0.00  0.00    +0.000 A 
ATOM      5  C   UNL     1       5.013   6.998  16.145  0.00  0.00    +0.000 A 
ATOM      6  C   UNL     1       5.245   6.159  15.055  0.00  0.00    +0.000 A 
ATOM      7  C   UNL     1       5.947   4.967  15.230  0.00  0.00    +0.000 A 
ATOM      8 BR   UNL     1       6.269   3.842  13.745  0.00  0.00    +0.000 Br
ATOM      9  C   UNL     1       6.432   4.611  16.487  0.00  0.00    +0.000 A 
ENDBRANCH   1   3
BRANCH   1  10
ATOM     10  O   UNL     1       5.793   4.815  19.798  0.00  0.00    +0.000 OA
BRANCH  10  15
ATOM     11  C   UNL     1       0.752   2.391  19.061  0.00  0.00    +0.000 C 
ATOM     12  N   UNL     1       2.005   2.957  19.570  0.00  0.00    +0.000 NA
ATOM     13  C   UNL     1       3.158   2.216  19.039  0.00  0.00    +0.000 C 
ATOM     14  C   UNL     1       4.476   2.786  19.559  0.00  0.00    +0.000 C 
ATOM     15  C   UNL     1       4.587   4.273  19.231  0.00  0.00    +0.000 C 
ATOM     16  C   UNL     1       3.369   5.004  19.796  0.00  0.00    +0.000 C 
ATOM     17  C   UNL     1       2.083   4.387  19.247  0.00  0.00    +0.000 C 
ENDBRANCH  10  15
ENDBRANCH   1  10
TORSDOF 3
ENDMDL
