MODEL 1
REMARK VINA RESULT:      -7.9      0.000      0.000
REMARK  Name = 
REMARK  15 active torsions:
REMARK  status: ('A' for Active; 'I' for Inactive)
REMARK    1  A    between atoms: C_1  and  C_2
REMARK    2  A    between atoms: C_2  and  O_3
REMARK    3  A    between atoms: O_3  and  C_4
REMARK    4  A    between atoms: C_6  and  N_7
REMARK    5  A    between atoms: C_8  and  C_10
REMARK    6  A    between atoms: C_10  and  C_11
REMARK    7  A    between atoms: C_11  and  C_12
REMARK    8  A    between atoms: C_12  and  C_13
REMARK    9  A    between atoms: C_13  and  C_14
REMARK   10  A    between atoms: C_14  and  C_15
REMARK   11  A    between atoms: C_15  and  C_16
REMARK   12  A    between atoms: N_18  and  C_19
REMARK   13  A    between atoms: C_19  and  C_20
REMARK   14  A    between atoms: C_20  and  C_21
REMARK   15  A    between atoms: C_32  and  N_33
REMARK                            x       y       z     vdW  Elec       q    Type
REMARK                         _______ _______ _______ _____ _____    ______ ____
ROOT
ATOM      1  N   UNL     1       1.819   8.459  19.215  0.00  0.00    +0.000 N 
ATOM      2  C   UNL     1       1.646   9.618  18.471  0.00  0.00    +0.000 C 
ATOM      3  O   UNL     1       1.908   9.763  17.279  0.00  0.00    +0.000 OA
ATOM      4  H   UNL     1       1.430   8.437  20.150  0.00  0.00    +0.000 HD
ENDROOT
BRANCH   1   7
ATOM      5  C   UNL     1       2.590   4.825  18.723  0.00  0.00    +0.000 A 
ATOM      6  C   UNL     1       2.008   6.002  19.195  0.00  0.00    +0.000 A 
ATOM      7  C   UNL     1       2.411   7.259  18.732  0.00  0.00    +0.000 A 
ATOM      8  C   UNL     1       3.415   7.322  17.751  0.00  0.00    +0.000 A 
ATOM      9  C   UNL     1       4.016   6.144  17.263  0.00  0.00    +0.000 A 
ATOM     10  C   UNL     1       3.585   4.894  17.749  0.00  0.00    +0.000 A 
ATOM     11  O   UNL     1       4.051   3.724  17.200  0.00  0.00    +0.000 OA
ATOM     12  C   UNL     1       5.411   3.760  16.746  0.00  0.00    +0.000 C 
ATOM     13  C   UNL     1       5.704   5.013  16.005  0.00  0.00    +0.000 C 
ATOM     14  C   UNL     1       5.058   6.170  16.224  0.00  0.00    +0.000 C 
BRANCH  13  15
ATOM     15  N   UNL     1       6.725   4.923  14.983  0.00  0.00    +0.000 N 
ATOM     16  O   UNL     1       6.504   4.168  14.027  0.00  0.00    +0.000 OA
ATOM     17  O   UNL     1       7.748   5.598  15.120  0.00  0.00    +0.000 OA
ENDBRANCH  13  15
BRANCH   5  18
ATOM     18  O   UNL     1       2.062   3.688  19.277  0.00  0.00    +0.000 OA
BRANCH  18  20
ATOM     19  C   UNL     1       2.142   3.121  21.593  0.00  0.00    +0.000 C 
ATOM     20  C   UNL     1       1.368   3.846  20.513  0.00  0.00    +0.000 C 
ENDBRANCH  18  20
ENDBRANCH   5  18
ENDBRANCH   1   7
BRANCH   2  21
ATOM     21  C   UNL     1       0.987  10.757  19.219  0.00  0.00    +0.000 C 
BRANCH  21  22
ATOM     22  C   UNL     1       0.047  10.201  20.285  0.00  0.00    +0.000 C 
BRANCH  22  23
ATOM     23  C   UNL     1      -1.028  11.192  20.731  0.00  0.00    +0.000 C 
BRANCH  23  24
ATOM     24  C   UNL     1      -1.229  12.353  19.748  0.00  0.00    +0.000 C 
BRANCH  24  25
ATOM     25  C   UNL     1      -2.233  13.360  20.302  0.00  0.00    +0.000 C 
BRANCH  25  26
ATOM     26  C   UNL     1      -3.177  12.740  21.335  0.00  0.00    +0.000 C 
BRANCH  26  27
ATOM     27  C   UNL     1      -4.556  12.556  20.730  0.00  0.00    +0.000 C 
ATOM     28  O   UNL     1      -5.512  12.119  21.351  0.00  0.00    +0.000 OA
ATOM     29  N   UNL     1      -4.645  12.935  19.400  0.00  0.00    +0.000 N 
ATOM     30  H   UNL     1      -3.819  13.261  18.912  0.00  0.00    +0.000 HD
BRANCH  29  31
ATOM     31  C   UNL     1      -5.910  12.804  18.703  0.00  0.00    +0.000 C 
BRANCH  31  32
ATOM     32  C   UNL     1      -6.035  11.500  17.920  0.00  0.00    +0.000 C 
BRANCH  32  33
ATOM     33  C   UNL     1      -4.701  11.021  17.405  0.00  0.00    +0.000 A 
ATOM     34  C   UNL     1      -4.214  11.455  16.166  0.00  0.00    +0.000 A 
ATOM     35  C   UNL     1      -2.993  10.980  15.678  0.00  0.00    +0.000 A 
ATOM     36  C   UNL     1      -2.248  10.071  16.427  0.00  0.00    +0.000 A 
ATOM     37  C   UNL     1      -2.723   9.634  17.662  0.00  0.00    +0.000 A 
ATOM     38  C   UNL     1      -3.946  10.100  18.146  0.00  0.00    +0.000 A 
ENDBRANCH  32  33
ENDBRANCH  31  32
ENDBRANCH  29  31
ENDBRANCH  26  27
ENDBRANCH  25  26
ENDBRANCH  24  25
ENDBRANCH  23  24
ENDBRANCH  22  23
ENDBRANCH  21  22
ENDBRANCH   2  21
TORSDOF 14
ENDMDL
MODEL 2
REMARK VINA RESULT:      -7.7      6.530      9.934
REMARK  Name = 
REMARK  15 active torsions:
REMARK  status: ('A' for Active; 'I' for Inactive)
REMARK    1  A    between atoms: C_1  and  C_2
REMARK    2  A    between atoms: C_2  and  O_3
REMARK    3  A    between atoms: O_3  and  C_4
REMARK    4  A    between atoms: C_6  and  N_7
REMARK    5  A    between atoms: C_8  and  C_10
REMARK    6  A    between atoms: C_10  and  C_11
REMARK    7  A    between atoms: C_11  and  C_12
REMARK    8  A    between atoms: C_12  and  C_13
REMARK    9  A    between atoms: C_13  and  C_14
REMARK   10  A    between atoms: C_14  and  C_15
REMARK   11  A    between atoms: C_15  and  C_16
REMARK   12  A    between atoms: N_18  and  C_19
REMARK   13  A    between atoms: C_19  and  C_20
REMARK   14  A    between atoms: C_20  and  C_21
REMARK   15  A    between atoms: C_32  and  N_33
REMARK                            x       y       z     vdW  Elec       q    Type
REMARK                         _______ _______ _______ _____ _____    ______ ____
ROOT
ATOM      1  N   UNL     1       6.763   7.754  17.121  0.00  0.00    +0.000 N 
ATOM      2  C   UNL     1       7.832   8.025  17.964  0.00  0.00    +0.000 C 
ATOM      3  O   UNL     1       8.357   7.239  18.750  0.00  0.00    +0.000 OA
ATOM      4  H   UNL     1       6.524   8.450  16.426  0.00  0.00    +0.000 HD
ENDROOT
BRANCH   1   7
ATOM      5  C   UNL     1       5.558   4.366  16.067  0.00  0.00    +0.000 A 
ATOM      6  C   UNL     1       6.270   5.566  16.101  0.00  0.00    +0.000 A 
ATOM      7  C   UNL     1       6.039   6.530  17.088  0.00  0.00    +0.000 A 
ATOM      8  C   UNL     1       5.078   6.261  18.077  0.00  0.00    +0.000 A 
ATOM      9  C   UNL     1       4.348   5.056  18.058  0.00  0.00    +0.000 A 
ATOM     10  C   UNL     1       4.606   4.105  17.052  0.00  0.00    +0.000 A 
ATOM     11  O   UNL     1       4.013   2.867  17.081  0.00  0.00    +0.000 OA
ATOM     12  C   UNL     1       2.680   2.838  17.612  0.00  0.00    +0.000 C 
ATOM     13  C   UNL     1       2.567   3.667  18.838  0.00  0.00    +0.000 C 
ATOM     14  C   UNL     1       3.345   4.732  19.087  0.00  0.00    +0.000 C 
BRANCH  13  15
ATOM     15  N   UNL     1       1.570   3.245  19.800  0.00  0.00    +0.000 N 
ATOM     16  O   UNL     1       1.664   2.093  20.244  0.00  0.00    +0.000 OA
ATOM     17  O   UNL     1       0.692   4.049  20.121  0.00  0.00    +0.000 OA
ENDBRANCH  13  15
BRANCH   5  18
ATOM     18  O   UNL     1       5.925   3.536  15.040  0.00  0.00    +0.000 OA
BRANCH  18  20
ATOM     19  C   UNL     1       6.020   3.431  12.659  0.00  0.00    +0.000 C 
ATOM     20  C   UNL     1       6.502   4.159  13.894  0.00  0.00    +0.000 C 
ENDBRANCH  18  20
ENDBRANCH   5  18
ENDBRANCH   1   7
BRANCH   2  21
ATOM     21  C   UNL     1       8.433   9.405  17.799  0.00  0.00    +0.000 C 
BRANCH  21  22
ATOM     22  C   UNL     1       9.147   9.815  19.084  0.00  0.00    +0.000 C 
BRANCH  22  23
ATOM     23  C   UNL     1       9.696  11.242  19.051  0.00  0.00    +0.000 C 
BRANCH  23  24
ATOM     24  C   UNL     1      11.013  11.404  19.820  0.00  0.00    +0.000 C 
BRANCH  24  25
ATOM     25  C   UNL     1      12.065  12.085  18.949  0.00  0.00    +0.000 C 
BRANCH  25  26
ATOM     26  C   UNL     1      12.332  13.531  19.373  0.00  0.00    +0.000 C 
BRANCH  26  27
ATOM     27  C   UNL     1      11.660  14.484  18.404  0.00  0.00    +0.000 C 
ATOM     28  O   UNL     1      12.234  15.001  17.458  0.00  0.00    +0.000 OA
ATOM     29  N   UNL     1      10.323  14.722  18.678  0.00  0.00    +0.000 N 
ATOM     30  H   UNL     1       9.892  14.300  19.493  0.00  0.00    +0.000 HD
BRANCH  29  31
ATOM     31  C   UNL     1       9.567  15.621  17.829  0.00  0.00    +0.000 C 
BRANCH  31  32
ATOM     32  C   UNL     1       8.664  16.573  18.608  0.00  0.00    +0.000 C 
BRANCH  32  33
ATOM     33  C   UNL     1       7.207  16.209  18.469  0.00  0.00    +0.000 A 
ATOM     34  C   UNL     1       6.204  17.088  18.898  0.00  0.00    +0.000 A 
ATOM     35  C   UNL     1       4.857  16.729  18.798  0.00  0.00    +0.000 A 
ATOM     36  C   UNL     1       4.501  15.492  18.265  0.00  0.00    +0.000 A 
ATOM     37  C   UNL     1       5.491  14.611  17.833  0.00  0.00    +0.000 A 
ATOM     38  C   UNL     1       6.837  14.964  17.940  0.00  0.00    +0.000 A 
ENDBRANCH  32  33
ENDBRANCH  31  32
ENDBRANCH  29  31
ENDBRANCH  26  27
ENDBRANCH  25  26
ENDBRANCH  24  25
ENDBRANCH  23  24
ENDBRANCH  22  23
ENDBRANCH  21  22
ENDBRANCH   2  21
TORSDOF 14
ENDMDL
MODEL 3
REMARK VINA RESULT:      -7.7      2.592     10.626
REMARK  Name = 
REMARK  15 active torsions:
REMARK  status: ('A' for Active; 'I' for Inactive)
REMARK    1  A    between atoms: C_1  and  C_2
REMARK    2  A    between atoms: C_2  and  O_3
REMARK    3  A    between atoms: O_3  and  C_4
REMARK    4  A    between atoms: C_6  and  N_7
REMARK    5  A    between atoms: C_8  and  C_10
REMARK    6  A    between atoms: C_10  and  C_11
REMARK    7  A    between atoms: C_11  and  C_12
REMARK    8  A    between atoms: C_12  and  C_13
REMARK    9  A    between atoms: C_13  and  C_14
REMARK   10  A    between atoms: C_14  and  C_15
REMARK   11  A    between atoms: C_15  and  C_16
REMARK   12  A    between atoms: N_18  and  C_19
REMARK   13  A    between atoms: C_19  and  C_20
REMARK   14  A    between atoms: C_20  and  C_21
REMARK   15  A    between atoms: C_32  and  N_33
REMARK                            x       y       z     vdW  Elec       q    Type
REMARK                         _______ _______ _______ _____ _____    ______ ____
ROOT
ATOM      1  N   UNL     1       1.123   9.084  19.569  0.00  0.00    +0.000 N 
ATOM      2  C   UNL     1       1.843   8.947  18.390  0.00  0.00    +0.000 C 
ATOM      3  O   UNL     1       1.821   9.715  17.430  0.00  0.00    +0.000 OA
ATOM      4  H   UNL     1       1.344   8.454  20.330  0.00  0.00    +0.000 HD
ENDROOT
BRANCH   1   7
ATOM      5  C   UNL     1      -1.707  11.499  19.125  0.00  0.00    +0.000 A 
ATOM      6  C   UNL     1      -0.773  10.494  18.871  0.00  0.00    +0.000 A 
ATOM      7  C   UNL     1       0.169  10.106  19.829  0.00  0.00    +0.000 A 
ATOM      8  C   UNL     1       0.149  10.738  21.084  0.00  0.00    +0.000 A 
ATOM      9  C   UNL     1      -0.786  11.757  21.358  0.00  0.00    +0.000 A 
ATOM     10  C   UNL     1      -1.722  12.122  20.372  0.00  0.00    +0.000 A 
ATOM     11  O   UNL     1      -2.731  13.012  20.651  0.00  0.00    +0.000 OA
ATOM     12  C   UNL     1      -2.391  14.053  21.577  0.00  0.00    +0.000 C 
ATOM     13  C   UNL     1      -1.625  13.524  22.732  0.00  0.00    +0.000 C 
ATOM     14  C   UNL     1      -0.848  12.430  22.667  0.00  0.00    +0.000 C 
BRANCH  13  15
ATOM     15  N   UNL     1      -1.778  14.241  23.980  0.00  0.00    +0.000 N 
ATOM     16  O   UNL     1      -0.774  14.808  24.433  0.00  0.00    +0.000 OA
ATOM     17  O   UNL     1      -2.888  14.249  24.516  0.00  0.00    +0.000 OA
ENDBRANCH  13  15
BRANCH   5  18
ATOM     18  O   UNL     1      -2.559  11.738  18.079  0.00  0.00    +0.000 OA
BRANCH  18  20
ATOM     19  C   UNL     1      -4.295  11.085  16.578  0.00  0.00    +0.000 C 
ATOM     20  C   UNL     1      -3.639  10.820  17.915  0.00  0.00    +0.000 C 
ENDBRANCH  18  20
ENDBRANCH   5  18
ENDBRANCH   1   7
BRANCH   2  21
ATOM     21  C   UNL     1       2.799   7.774  18.365  0.00  0.00    +0.000 C 
BRANCH  21  22
ATOM     22  C   UNL     1       2.065   6.499  18.771  0.00  0.00    +0.000 C 
BRANCH  22  23
ATOM     23  C   UNL     1       2.202   6.159  20.255  0.00  0.00    +0.000 C 
BRANCH  23  24
ATOM     24  C   UNL     1       1.426   4.901  20.664  0.00  0.00    +0.000 C 
BRANCH  24  25
ATOM     25  C   UNL     1       2.359   3.877  21.303  0.00  0.00    +0.000 C 
BRANCH  25  26
ATOM     26  C   UNL     1       2.508   2.611  20.457  0.00  0.00    +0.000 C 
BRANCH  26  27
ATOM     27  C   UNL     1       3.742   2.718  19.581  0.00  0.00    +0.000 C 
ATOM     28  O   UNL     1       4.843   2.307  19.913  0.00  0.00    +0.000 OA
ATOM     29  N   UNL     1       3.515   3.324  18.356  0.00  0.00    +0.000 N 
ATOM     30  H   UNL     1       2.594   3.683  18.133  0.00  0.00    +0.000 HD
BRANCH  29  31
ATOM     31  C   UNL     1       4.615   3.493  17.427  0.00  0.00    +0.000 C 
BRANCH  31  32
ATOM     32  C   UNL     1       4.737   4.915  16.886  0.00  0.00    +0.000 C 
BRANCH  32  33
ATOM     33  C   UNL     1       5.910   5.649  17.487  0.00  0.00    +0.000 A 
ATOM     34  C   UNL     1       6.322   6.884  16.973  0.00  0.00    +0.000 A 
ATOM     35  C   UNL     1       7.432   7.542  17.512  0.00  0.00    +0.000 A 
ATOM     36  C   UNL     1       8.135   6.972  18.571  0.00  0.00    +0.000 A 
ATOM     37  C   UNL     1       7.732   5.743  19.091  0.00  0.00    +0.000 A 
ATOM     38  C   UNL     1       6.629   5.081  18.548  0.00  0.00    +0.000 A 
ENDBRANCH  32  33
ENDBRANCH  31  32
ENDBRANCH  29  31
ENDBRANCH  26  27
ENDBRANCH  25  26
ENDBRANCH  24  25
ENDBRANCH  23  24
ENDBRANCH  22  23
ENDBRANCH  21  22
ENDBRANCH   2  21
TORSDOF 14
ENDMDL
MODEL 4
REMARK VINA RESULT:      -7.5      5.175      8.364
REMARK  Name = 
REMARK  15 active torsions:
REMARK  status: ('A' for Active; 'I' for Inactive)
REMARK    1  A    between atoms: C_1  and  C_2
REMARK    2  A    between atoms: C_2  and  O_3
REMARK    3  A    between atoms: O_3  and  C_4
REMARK    4  A    between atoms: C_6  and  N_7
REMARK    5  A    between atoms: C_8  and  C_10
REMARK    6  A    between atoms: C_10  and  C_11
REMARK    7  A    between atoms: C_11  and  C_12
REMARK    8  A    between atoms: C_12  and  C_13
REMARK    9  A    between atoms: C_13  and  C_14
REMARK   10  A    between atoms: C_14  and  C_15
REMARK   11  A    between atoms: C_15  and  C_16
REMARK   12  A    between atoms: N_18  and  C_19
REMARK   13  A    between atoms: C_19  and  C_20
REMARK   14  A    between atoms: C_20  and  C_21
REMARK   15  A    between atoms: C_32  and  N_33
REMARK                            x       y       z     vdW  Elec       q    Type
REMARK                         _______ _______ _______ _____ _____    ______ ____
ROOT
ATOM      1  N   UNL     1       6.703   7.866  17.128  0.00  0.00    +0.000 N 
ATOM      2  C   UNL     1       7.794   8.085  17.958  0.00  0.00    +0.000 C 
ATOM      3  O   UNL     1       8.325   7.257  18.695  0.00  0.00    +0.000 OA
ATOM      4  H   UNL     1       6.458   8.598  16.472  0.00  0.00    +0.000 HD
ENDROOT
BRANCH   1   7
ATOM      5  C   UNL     1       5.558   4.464  16.054  0.00  0.00    +0.000 A 
ATOM      6  C   UNL     1       6.285   5.653  16.129  0.00  0.00    +0.000 A 
ATOM      7  C   UNL     1       5.964   6.654  17.053  0.00  0.00    +0.000 A 
ATOM      8  C   UNL     1       4.894   6.434  17.936  0.00  0.00    +0.000 A 
ATOM      9  C   UNL     1       4.147   5.240  17.873  0.00  0.00    +0.000 A 
ATOM     10  C   UNL     1       4.497   4.252  16.933  0.00  0.00    +0.000 A 
ATOM     11  O   UNL     1       3.880   3.024  16.935  0.00  0.00    +0.000 OA
ATOM     12  C   UNL     1       2.496   3.035  17.314  0.00  0.00    +0.000 C 
ATOM     13  C   UNL     1       2.263   3.906  18.492  0.00  0.00    +0.000 C 
ATOM     14  C   UNL     1       3.029   4.967  18.793  0.00  0.00    +0.000 C 
BRANCH  13  15
ATOM     15  N   UNL     1       1.157   3.533  19.349  0.00  0.00    +0.000 N 
ATOM     16  O   UNL     1       0.946   4.244  20.342  0.00  0.00    +0.000 OA
ATOM     17  O   UNL     1       0.493   2.541  19.046  0.00  0.00    +0.000 OA
ENDBRANCH  13  15
BRANCH   5  18
ATOM     18  O   UNL     1       6.021   3.595  15.101  0.00  0.00    +0.000 OA
BRANCH  18  20
ATOM     19  C   UNL     1       5.911   3.485  12.720  0.00  0.00    +0.000 C 
ATOM     20  C   UNL     1       6.543   4.177  13.909  0.00  0.00    +0.000 C 
ENDBRANCH  18  20
ENDBRANCH   5  18
ENDBRANCH   1   7
BRANCH   2  21
ATOM     21  C   UNL     1       8.407   9.465  17.847  0.00  0.00    +0.000 C 
BRANCH  21  22
ATOM     22  C   UNL     1       9.065   9.848  19.169  0.00  0.00    +0.000 C 
BRANCH  22  23
ATOM     23  C   UNL     1      10.114  10.952  19.034  0.00  0.00    +0.000 C 
BRANCH  23  24
ATOM     24  C   UNL     1      10.356  11.721  20.338  0.00  0.00    +0.000 C 
BRANCH  24  25
ATOM     25  C   UNL     1      10.311  13.227  20.092  0.00  0.00    +0.000 C 
BRANCH  25  26
ATOM     26  C   UNL     1       9.441  13.599  18.889  0.00  0.00    +0.000 C 
BRANCH  26  27
ATOM     27  C   UNL     1       8.148  14.232  19.365  0.00  0.00    +0.000 C 
ATOM     28  O   UNL     1       7.810  14.278  20.537  0.00  0.00    +0.000 OA
ATOM     29  N   UNL     1       7.372  14.766  18.349  0.00  0.00    +0.000 N 
ATOM     30  H   UNL     1       7.671  14.676  17.385  0.00  0.00    +0.000 HD
BRANCH  29  31
ATOM     31  C   UNL     1       6.106  15.395  18.671  0.00  0.00    +0.000 C 
BRANCH  31  32
ATOM     32  C   UNL     1       4.992  15.053  17.685  0.00  0.00    +0.000 C 
BRANCH  32  33
ATOM     33  C   UNL     1       3.628  15.149  18.321  0.00  0.00    +0.000 A 
ATOM     34  C   UNL     1       2.758  16.198  17.998  0.00  0.00    +0.000 A 
ATOM     35  C   UNL     1       1.509  16.300  18.617  0.00  0.00    +0.000 A 
ATOM     36  C   UNL     1       1.118  15.353  19.561  0.00  0.00    +0.000 A 
ATOM     37  C   UNL     1       1.975  14.304  19.889  0.00  0.00    +0.000 A 
ATOM     38  C   UNL     1       3.226  14.206  19.278  0.00  0.00    +0.000 A 
ENDBRANCH  32  33
ENDBRANCH  31  32
ENDBRANCH  29  31
ENDBRANCH  26  27
ENDBRANCH  25  26
ENDBRANCH  24  25
ENDBRANCH  23  24
ENDBRANCH  22  23
ENDBRANCH  21  22
ENDBRANCH   2  21
TORSDOF 14
ENDMDL
MODEL 5
REMARK VINA RESULT:      -7.5      2.340      4.628
REMARK  Name = 
REMARK  15 active torsions:
REMARK  status: ('A' for Active; 'I' for Inactive)
REMARK    1  A    between atoms: C_1  and  C_2
REMARK    2  A    between atoms: C_2  and  O_3
REMARK    3  A    between atoms: O_3  and  C_4
REMARK    4  A    between atoms: C_6  and  N_7
REMARK    5  A    between atoms: C_8  and  C_10
REMARK    6  A    between atoms: C_10  and  C_11
REMARK    7  A    between atoms: C_11  and  C_12
REMARK    8  A    between atoms: C_12  and  C_13
REMARK    9  A    between atoms: C_13  and  C_14
REMARK   10  A    between atoms: C_14  and  C_15
REMARK   11  A    between atoms: C_15  and  C_16
REMARK   12  A    between atoms: N_18  and  C_19
REMARK   13  A    between atoms: C_19  and  C_20
REMARK   14  A    between atoms: C_20  and  C_21
REMARK   15  A    between atoms: C_32  and  N_33
REMARK                            x       y       z     vdW  Elec       q    Type
REMARK                         _______ _______ _______ _____ _____    ______ ____
ROOT
ATOM      1  N   UNL     1       3.967   5.085  18.908  0.00  0.00    +0.000 N 
ATOM      2  C   UNL     1       2.588   4.987  18.783  0.00  0.00    +0.000 C 
ATOM      3  O   UNL     1       1.958   4.883  17.733  0.00  0.00    +0.000 OA
ATOM      4  H   UNL     1       4.361   5.023  19.839  0.00  0.00    +0.000 HD
ENDROOT
BRANCH   1   7
ATOM      5  C   UNL     1       6.874   6.114  16.779  0.00  0.00    +0.000 A 
ATOM      6  C   UNL     1       5.978   6.034  17.846  0.00  0.00    +0.000 A 
ATOM      7  C   UNL     1       4.882   5.165  17.822  0.00  0.00    +0.000 A 
ATOM      8  C   UNL     1       4.703   4.342  16.698  0.00  0.00    +0.000 A 
ATOM      9  C   UNL     1       5.596   4.410  15.609  0.00  0.00    +0.000 A 
ATOM     10  C   UNL     1       6.691   5.295  15.666  0.00  0.00    +0.000 A 
ATOM     11  O   UNL     1       7.654   5.290  14.687  0.00  0.00    +0.000 OA
ATOM     12  C   UNL     1       7.182   4.997  13.364  0.00  0.00    +0.000 C 
ATOM     13  C   UNL     1       6.224   3.863  13.369  0.00  0.00    +0.000 C 
ATOM     14  C   UNL     1       5.450   3.552  14.422  0.00  0.00    +0.000 C 
BRANCH  13  15
ATOM     15  N   UNL     1       6.179   3.063  12.163  0.00  0.00    +0.000 N 
ATOM     16  O   UNL     1       7.240   2.923  11.538  0.00  0.00    +0.000 OA
ATOM     17  O   UNL     1       5.100   2.572  11.829  0.00  0.00    +0.000 OA
ENDBRANCH  13  15
BRANCH   5  18
ATOM     18  O   UNL     1       7.893   7.008  16.981  0.00  0.00    +0.000 OA
BRANCH  18  20
ATOM     19  C   UNL     1       8.216   9.152  17.977  0.00  0.00    +0.000 C 
ATOM     20  C   UNL     1       7.899   7.694  18.231  0.00  0.00    +0.000 C 
ENDBRANCH  18  20
ENDBRANCH   5  18
ENDBRANCH   1   7
BRANCH   2  21
ATOM     21  C   UNL     1       1.838   4.914  20.096  0.00  0.00    +0.000 C 
BRANCH  21  22
ATOM     22  C   UNL     1       1.755   6.302  20.723  0.00  0.00    +0.000 C 
BRANCH  22  23
ATOM     23  C   UNL     1       2.152   7.430  19.770  0.00  0.00    +0.000 C 
BRANCH  23  24
ATOM     24  C   UNL     1       1.223   8.648  19.851  0.00  0.00    +0.000 C 
BRANCH  24  25
ATOM     25  C   UNL     1       0.335   8.567  21.089  0.00  0.00    +0.000 C 
BRANCH  25  26
ATOM     26  C   UNL     1       0.672   9.642  22.124  0.00  0.00    +0.000 C 
BRANCH  26  27
ATOM     27  C   UNL     1       0.390  11.017  21.550  0.00  0.00    +0.000 C 
ATOM     28  O   UNL     1       1.262  11.836  21.302  0.00  0.00    +0.000 OA
ATOM     29  N   UNL     1      -0.952  11.271  21.320  0.00  0.00    +0.000 N 
ATOM     30  H   UNL     1      -1.647  10.578  21.571  0.00  0.00    +0.000 HD
BRANCH  29  31
ATOM     31  C   UNL     1      -1.354  12.554  20.777  0.00  0.00    +0.000 C 
BRANCH  31  32
ATOM     32  C   UNL     1      -2.704  12.513  20.065  0.00  0.00    +0.000 C 
BRANCH  32  33
ATOM     33  C   UNL     1      -2.684  11.590  18.872  0.00  0.00    +0.000 A 
ATOM     34  C   UNL     1      -1.490  10.994  18.447  0.00  0.00    +0.000 A 
ATOM     35  C   UNL     1      -1.472  10.167  17.319  0.00  0.00    +0.000 A 
ATOM     36  C   UNL     1      -2.648   9.926  16.611  0.00  0.00    +0.000 A 
ATOM     37  C   UNL     1      -3.842  10.513  17.028  0.00  0.00    +0.000 A 
ATOM     38  C   UNL     1      -3.859  11.346  18.147  0.00  0.00    +0.000 A 
ENDBRANCH  32  33
ENDBRANCH  31  32
ENDBRANCH  29  31
ENDBRANCH  26  27
ENDBRANCH  25  26
ENDBRANCH  24  25
ENDBRANCH  23  24
ENDBRANCH  22  23
ENDBRANCH  21  22
ENDBRANCH   2  21
TORSDOF 14
ENDMDL
MODEL 6
REMARK VINA RESULT:      -7.4      3.147     10.117
REMARK  Name = 
REMARK  15 active torsions:
REMARK  status: ('A' for Active; 'I' for Inactive)
REMARK    1  A    between atoms: C_1  and  C_2
REMARK    2  A    between atoms: C_2  and  O_3
REMARK    3  A    between atoms: O_3  and  C_4
REMARK    4  A    between atoms: C_6  and  N_7
REMARK    5  A    between atoms: C_8  and  C_10
REMARK    6  A    between atoms: C_10  and  C_11
REMARK    7  A    between atoms: C_11  and  C_12
REMARK    8  A    between atoms: C_12  and  C_13
REMARK    9  A    between atoms: C_13  and  C_14
REMARK   10  A    between atoms: C_14  and  C_15
REMARK   11  A    between atoms: C_15  and  C_16
REMARK   12  A    between atoms: N_18  and  C_19
REMARK   13  A    between atoms: C_19  and  C_20
REMARK   14  A    between atoms: C_20  and  C_21
REMARK   15  A    between atoms: C_32  and  N_33
REMARK                            x       y       z     vdW  Elec       q    Type
REMARK                         _______ _______ _______ _____ _____    ______ ____
ROOT
ATOM      1  N   UNL     1       1.170   8.949  19.364  0.00  0.00    +0.000 N 
ATOM      2  C   UNL     1       1.985   8.329  18.426  0.00  0.00    +0.000 C 
ATOM      3  O   UNL     1       2.425   8.835  17.397  0.00  0.00    +0.000 OA
ATOM      4  H   UNL     1       0.998   8.460  20.234  0.00  0.00    +0.000 HD
ENDROOT
BRANCH   1   7
ATOM      5  C   UNL     1      -1.097  11.796  18.476  0.00  0.00    +0.000 A 
ATOM      6  C   UNL     1      -0.577  10.507  18.597  0.00  0.00    +0.000 A 
ATOM      7  C   UNL     1       0.639  10.262  19.243  0.00  0.00    +0.000 A 
ATOM      8  C   UNL     1       1.335  11.350  19.798  0.00  0.00    +0.000 A 
ATOM      9  C   UNL     1       0.826  12.660  19.684  0.00  0.00    +0.000 A 
ATOM     10  C   UNL     1      -0.402  12.872  19.029  0.00  0.00    +0.000 A 
ATOM     11  O   UNL     1      -0.993  14.112  19.019  0.00  0.00    +0.000 OA
ATOM     12  C   UNL     1      -0.085  15.222  18.974  0.00  0.00    +0.000 C 
ATOM     13  C   UNL     1       1.055  15.028  19.904  0.00  0.00    +0.000 C 
ATOM     14  C   UNL     1       1.518  13.821  20.267  0.00  0.00    +0.000 C 
BRANCH  13  15
ATOM     15  N   UNL     1       1.647  16.234  20.445  0.00  0.00    +0.000 N 
ATOM     16  O   UNL     1       0.921  16.955  21.144  0.00  0.00    +0.000 OA
ATOM     17  O   UNL     1       2.826  16.474  20.183  0.00  0.00    +0.000 OA
ENDBRANCH  13  15
BRANCH   5  18
ATOM     18  O   UNL     1      -2.303  11.847  17.827  0.00  0.00    +0.000 OA
BRANCH  18  20
ATOM     19  C   UNL     1      -2.875  10.940  15.695  0.00  0.00    +0.000 C 
ATOM     20  C   UNL     1      -2.723  10.651  17.172  0.00  0.00    +0.000 C 
ENDBRANCH  18  20
ENDBRANCH   5  18
ENDBRANCH   1   7
BRANCH   2  21
ATOM     21  C   UNL     1       2.419   6.926  18.795  0.00  0.00    +0.000 C 
BRANCH  21  22
ATOM     22  C   UNL     1       2.117   6.660  20.266  0.00  0.00    +0.000 C 
BRANCH  22  23
ATOM     23  C   UNL     1       2.327   5.203  20.681  0.00  0.00    +0.000 C 
BRANCH  23  24
ATOM     24  C   UNL     1       1.124   4.304  20.372  0.00  0.00    +0.000 C 
BRANCH  24  25
ATOM     25  C   UNL     1       1.547   2.839  20.314  0.00  0.00    +0.000 C 
BRANCH  25  26
ATOM     26  C   UNL     1       1.435   2.252  18.905  0.00  0.00    +0.000 C 
BRANCH  26  27
ATOM     27  C   UNL     1       1.936   3.257  17.886  0.00  0.00    +0.000 C 
ATOM     28  O   UNL     1       1.200   3.987  17.240  0.00  0.00    +0.000 OA
ATOM     29  N   UNL     1       3.314   3.286  17.749  0.00  0.00    +0.000 N 
ATOM     30  H   UNL     1       3.888   2.640  18.278  0.00  0.00    +0.000 HD
BRANCH  29  31
ATOM     31  C   UNL     1       3.920   4.201  16.801  0.00  0.00    +0.000 C 
BRANCH  31  32
ATOM     32  C   UNL     1       5.411   3.953  16.590  0.00  0.00    +0.000 C 
BRANCH  32  33
ATOM     33  C   UNL     1       6.256   5.030  17.222  0.00  0.00    +0.000 A 
ATOM     34  C   UNL     1       6.162   6.360  16.793  0.00  0.00    +0.000 A 
ATOM     35  C   UNL     1       6.974   7.347  17.359  0.00  0.00    +0.000 A 
ATOM     36  C   UNL     1       7.883   7.015  18.361  0.00  0.00    +0.000 A 
ATOM     37  C   UNL     1       7.983   5.694  18.796  0.00  0.00    +0.000 A 
ATOM     38  C   UNL     1       7.180   4.706  18.226  0.00  0.00    +0.000 A 
ENDBRANCH  32  33
ENDBRANCH  31  32
ENDBRANCH  29  31
ENDBRANCH  26  27
ENDBRANCH  25  26
ENDBRANCH  24  25
ENDBRANCH  23  24
ENDBRANCH  22  23
ENDBRANCH  21  22
ENDBRANCH   2  21
TORSDOF 14
ENDMDL
MODEL 7
REMARK VINA RESULT:      -7.4      4.463      7.495
REMARK  Name = 
REMARK  15 active torsions:
REMARK  status: ('A' for Active; 'I' for Inactive)
REMARK    1  A    between atoms: C_1  and  C_2
REMARK    2  A    between atoms: C_2  and  O_3
REMARK    3  A    between atoms: O_3  and  C_4
REMARK    4  A    between atoms: C_6  and  N_7
REMARK    5  A    between atoms: C_8  and  C_10
REMARK    6  A    between atoms: C_10  and  C_11
REMARK    7  A    between atoms: C_11  and  C_12
REMARK    8  A    between atoms: C_12  and  C_13
REMARK    9  A    between atoms: C_13  and  C_14
REMARK   10  A    between atoms: C_14  and  C_15
REMARK   11  A    between atoms: C_15  and  C_16
REMARK   12  A    between atoms: N_18  and  C_19
REMARK   13  A    between atoms: C_19  and  C_20
REMARK   14  A    between atoms: C_20  and  C_21
REMARK   15  A    between atoms: C_32  and  N_33
REMARK                            x       y       z     vdW  Elec       q    Type
REMARK                         _______ _______ _______ _____ _____    ______ ____
ROOT
ATOM      1  N   UNL     1       1.910   8.612  19.162  0.00  0.00    +0.000 N 
ATOM      2  C   UNL     1       1.231   8.761  20.364  0.00  0.00    +0.000 C 
ATOM      3  O   UNL     1       1.092   7.902  21.232  0.00  0.00    +0.000 OA
ATOM      4  H   UNL     1       2.067   9.442  18.605  0.00  0.00    +0.000 HD
ENDROOT
BRANCH   1   7
ATOM      5  C   UNL     1       2.670   4.967  18.744  0.00  0.00    +0.000 A 
ATOM      6  C   UNL     1       2.097   6.156  19.197  0.00  0.00    +0.000 A 
ATOM      7  C   UNL     1       2.493   7.401  18.698  0.00  0.00    +0.000 A 
ATOM      8  C   UNL     1       3.480   7.440  17.699  0.00  0.00    +0.000 A 
ATOM      9  C   UNL     1       4.072   6.250  17.230  0.00  0.00    +0.000 A 
ATOM     10  C   UNL     1       3.650   5.012  17.752  0.00  0.00    +0.000 A 
ATOM     11  O   UNL     1       4.106   3.829  17.224  0.00  0.00    +0.000 OA
ATOM     12  C   UNL     1       5.458   3.853  16.746  0.00  0.00    +0.000 C 
ATOM     13  C   UNL     1       5.739   5.087  15.971  0.00  0.00    +0.000 C 
ATOM     14  C   UNL     1       5.097   6.250  16.172  0.00  0.00    +0.000 C 
BRANCH  13  15
ATOM     15  N   UNL     1       6.743   4.973  14.935  0.00  0.00    +0.000 N 
ATOM     16  O   UNL     1       6.536   4.145  14.036  0.00  0.00    +0.000 OA
ATOM     17  O   UNL     1       7.737   5.698  15.003  0.00  0.00    +0.000 OA
ENDBRANCH  13  15
BRANCH   5  18
ATOM     18  O   UNL     1       2.152   3.844  19.334  0.00  0.00    +0.000 OA
BRANCH  18  20
ATOM     19  C   UNL     1       2.048   3.027  21.573  0.00  0.00    +0.000 C 
ATOM     20  C   UNL     1       2.934   3.249  20.367  0.00  0.00    +0.000 C 
ENDBRANCH  18  20
ENDBRANCH   5  18
ENDBRANCH   1   7
BRANCH   2  21
ATOM     21  C   UNL     1       0.707  10.157  20.625  0.00  0.00    +0.000 C 
BRANCH  21  22
ATOM     22  C   UNL     1       1.230  11.115  19.559  0.00  0.00    +0.000 C 
BRANCH  22  23
ATOM     23  C   UNL     1       1.358  12.559  20.044  0.00  0.00    +0.000 C 
BRANCH  23  24
ATOM     24  C   UNL     1       1.408  13.581  18.902  0.00  0.00    +0.000 C 
BRANCH  24  25
ATOM     25  C   UNL     1       2.728  13.477  18.143  0.00  0.00    +0.000 C 
BRANCH  25  26
ATOM     26  C   UNL     1       3.450  14.822  18.034  0.00  0.00    +0.000 C 
BRANCH  26  27
ATOM     27  C   UNL     1       4.879  14.682  18.523  0.00  0.00    +0.000 C 
ATOM     28  O   UNL     1       5.230  14.941  19.663  0.00  0.00    +0.000 OA
ATOM     29  N   UNL     1       5.764  14.224  17.560  0.00  0.00    +0.000 N 
ATOM     30  H   UNL     1       5.439  14.053  16.616  0.00  0.00    +0.000 HD
BRANCH  29  31
ATOM     31  C   UNL     1       7.163  14.052  17.900  0.00  0.00    +0.000 C 
BRANCH  31  32
ATOM     32  C   UNL     1       7.840  12.927  17.121  0.00  0.00    +0.000 C 
BRANCH  32  33
ATOM     33  C   UNL     1       9.137  12.500  17.762  0.00  0.00    +0.000 A 
ATOM     34  C   UNL     1      10.359  13.030  17.328  0.00  0.00    +0.000 A 
ATOM     35  C   UNL     1      11.560  12.603  17.902  0.00  0.00    +0.000 A 
ATOM     36  C   UNL     1      11.549  11.648  18.916  0.00  0.00    +0.000 A 
ATOM     37  C   UNL     1      10.338  11.115  19.356  0.00  0.00    +0.000 A 
ATOM     38  C   UNL     1       9.139  11.534  18.778  0.00  0.00    +0.000 A 
ENDBRANCH  32  33
ENDBRANCH  31  32
ENDBRANCH  29  31
ENDBRANCH  26  27
ENDBRANCH  25  26
ENDBRANCH  24  25
ENDBRANCH  23  24
ENDBRANCH  22  23
ENDBRANCH  21  22
ENDBRANCH   2  21
TORSDOF 14
ENDMDL
MODEL 8
REMARK VINA RESULT:      -7.4      2.580      5.685
REMARK  Name = 
REMARK  15 active torsions:
REMARK  status: ('A' for Active; 'I' for Inactive)
REMARK    1  A    between atoms: C_1  and  C_2
REMARK    2  A    between atoms: C_2  and  O_3
REMARK    3  A    between atoms: O_3  and  C_4
REMARK    4  A    between atoms: C_6  and  N_7
REMARK    5  A    between atoms: C_8  and  C_10
REMARK    6  A    between atoms: C_10  and  C_11
REMARK    7  A    between atoms: C_11  and  C_12
REMARK    8  A    between atoms: C_12  and  C_13
REMARK    9  A    between atoms: C_13  and  C_14
REMARK   10  A    between atoms: C_14  and  C_15
REMARK   11  A    between atoms: C_15  and  C_16
REMARK   12  A    between atoms: N_18  and  C_19
REMARK   13  A    between atoms: C_19  and  C_20
REMARK   14  A    between atoms: C_20  and  C_21
REMARK   15  A    between atoms: C_32  and  N_33
REMARK                            x       y       z     vdW  Elec       q    Type
REMARK                         _______ _______ _______ _____ _____    ______ ____
ROOT
ATOM      1  N   UNL     1       3.042   3.644  18.315  0.00  0.00    +0.000 N 
ATOM      2  C   UNL     1       2.784   2.324  18.661  0.00  0.00    +0.000 C 
ATOM      3  O   UNL     1       3.517   1.360  18.449  0.00  0.00    +0.000 OA
ATOM      4  H   UNL     1       2.417   4.354  18.675  0.00  0.00    +0.000 HD
ENDROOT
BRANCH   1   7
ATOM      5  C   UNL     1       6.241   5.377  17.420  0.00  0.00    +0.000 A 
ATOM      6  C   UNL     1       5.131   4.938  18.143  0.00  0.00    +0.000 A 
ATOM      7  C   UNL     1       4.174   4.089  17.579  0.00  0.00    +0.000 A 
ATOM      8  C   UNL     1       4.358   3.657  16.254  0.00  0.00    +0.000 A 
ATOM      9  C   UNL     1       5.472   4.091  15.507  0.00  0.00    +0.000 A 
ATOM     10  C   UNL     1       6.418   4.945  16.106  0.00  0.00    +0.000 A 
ATOM     11  O   UNL     1       7.581   5.277  15.456  0.00  0.00    +0.000 OA
ATOM     12  C   UNL     1       7.472   5.402  14.031  0.00  0.00    +0.000 C 
ATOM     13  C   UNL     1       6.670   4.297  13.449  0.00  0.00    +0.000 C 
ATOM     14  C   UNL     1       5.707   3.646  14.123  0.00  0.00    +0.000 C 
BRANCH  13  15
ATOM     15  N   UNL     1       7.000   3.917  12.092  0.00  0.00    +0.000 N 
ATOM     16  O   UNL     1       7.524   4.780  11.375  0.00  0.00    +0.000 OA
ATOM     17  O   UNL     1       6.746   2.767  11.729  0.00  0.00    +0.000 OA
ENDBRANCH  13  15
BRANCH   5  18
ATOM     18  O   UNL     1       7.079   6.191  18.135  0.00  0.00    +0.000 OA
BRANCH  18  20
ATOM     19  C   UNL     1       8.365   8.175  18.454  0.00  0.00    +0.000 C 
ATOM     20  C   UNL     1       7.374   7.463  17.560  0.00  0.00    +0.000 C 
ENDBRANCH  18  20
ENDBRANCH   5  18
ENDBRANCH   1   7
BRANCH   2  21
ATOM     21  C   UNL     1       1.510   2.114  19.450  0.00  0.00    +0.000 C 
BRANCH  21  22
ATOM     22  C   UNL     1       1.072   3.430  20.087  0.00  0.00    +0.000 C 
BRANCH  22  23
ATOM     23  C   UNL     1       1.849   3.785  21.355  0.00  0.00    +0.000 C 
BRANCH  23  24
ATOM     24  C   UNL     1       2.402   5.215  21.347  0.00  0.00    +0.000 C 
BRANCH  24  25
ATOM     25  C   UNL     1       1.639   6.083  20.351  0.00  0.00    +0.000 C 
BRANCH  25  26
ATOM     26  C   UNL     1       1.390   7.499  20.876  0.00  0.00    +0.000 C 
BRANCH  26  27
ATOM     27  C   UNL     1       1.548   8.502  19.749  0.00  0.00    +0.000 C 
ATOM     28  O   UNL     1       2.130   8.256  18.704  0.00  0.00    +0.000 OA
ATOM     29  N   UNL     1       0.966   9.733  20.001  0.00  0.00    +0.000 N 
ATOM     30  H   UNL     1       0.522   9.908  20.896  0.00  0.00    +0.000 HD
BRANCH  29  31
ATOM     31  C   UNL     1       1.052  10.783  19.004  0.00  0.00    +0.000 C 
BRANCH  31  32
ATOM     32  C   UNL     1      -0.079  11.804  19.102  0.00  0.00    +0.000 C 
BRANCH  32  33
ATOM     33  C   UNL     1      -1.364  11.280  18.512  0.00  0.00    +0.000 A 
ATOM     34  C   UNL     1      -1.348  10.269  17.542  0.00  0.00    +0.000 A 
ATOM     35  C   UNL     1      -2.540   9.813  16.973  0.00  0.00    +0.000 A 
ATOM     36  C   UNL     1      -3.758  10.361  17.371  0.00  0.00    +0.000 A 
ATOM     37  C   UNL     1      -3.785  11.366  18.337  0.00  0.00    +0.000 A 
ATOM     38  C   UNL     1      -2.595  11.829  18.899  0.00  0.00    +0.000 A 
ENDBRANCH  32  33
ENDBRANCH  31  32
ENDBRANCH  29  31
ENDBRANCH  26  27
ENDBRANCH  25  26
ENDBRANCH  24  25
ENDBRANCH  23  24
ENDBRANCH  22  23
ENDBRANCH  21  22
ENDBRANCH   2  21
TORSDOF 14
ENDMDL
MODEL 9
REMARK VINA RESULT:      -7.3      4.540      7.505
REMARK  Name = 
REMARK  15 active torsions:
REMARK  status: ('A' for Active; 'I' for Inactive)
REMARK    1  A    between atoms: C_1  and  C_2
REMARK    2  A    between atoms: C_2  and  O_3
REMARK    3  A    between atoms: O_3  and  C_4
REMARK    4  A    between atoms: C_6  and  N_7
REMARK    5  A    between atoms: C_8  and  C_10
REMARK    6  A    between atoms: C_10  and  C_11
REMARK    7  A    between atoms: C_11  and  C_12
REMARK    8  A    between atoms: C_12  and  C_13
REMARK    9  A    between atoms: C_13  and  C_14
REMARK   10  A    between atoms: C_14  and  C_15
REMARK   11  A    between atoms: C_15  and  C_16
REMARK   12  A    between atoms: N_18  and  C_19
REMARK   13  A    between atoms: C_19  and  C_20
REMARK   14  A    between atoms: C_20  and  C_21
REMARK   15  A    between atoms: C_32  and  N_33
REMARK                            x       y       z     vdW  Elec       q    Type
REMARK                         _______ _______ _______ _____ _____    ______ ____
ROOT
ATOM      1  N   UNL     1       1.492   9.338  19.224  0.00  0.00    +0.000 N 
ATOM      2  C   UNL     1       0.492   9.823  18.392  0.00  0.00    +0.000 C 
ATOM      3  O   UNL     1       0.010   9.245  17.420  0.00  0.00    +0.000 OA
ATOM      4  H   UNL     1       1.694   9.859  20.068  0.00  0.00    +0.000 HD
ENDROOT
BRANCH   1   7
ATOM      5  C   UNL     1       2.652   5.806  19.685  0.00  0.00    +0.000 A 
ATOM      6  C   UNL     1       1.968   7.008  19.867  0.00  0.00    +0.000 A 
ATOM      7  C   UNL     1       2.188   8.112  19.036  0.00  0.00    +0.000 A 
ATOM      8  C   UNL     1       3.107   7.986  17.982  0.00  0.00    +0.000 A 
ATOM      9  C   UNL     1       3.809   6.779  17.783  0.00  0.00    +0.000 A 
ATOM     10  C   UNL     1       3.564   5.686  18.636  0.00  0.00    +0.000 A 
ATOM     11  O   UNL     1       4.126   4.458  18.390  0.00  0.00    +0.000 OA
ATOM     12  C   UNL     1       5.439   4.490  17.812  0.00  0.00    +0.000 C 
ATOM     13  C   UNL     1       5.529   5.499  16.728  0.00  0.00    +0.000 C 
ATOM     14  C   UNL     1       4.768   6.604  16.679  0.00  0.00    +0.000 C 
BRANCH  13  15
ATOM     15  N   UNL     1       6.483   5.218  15.675  0.00  0.00    +0.000 N 
ATOM     16  O   UNL     1       6.131   5.465  14.513  0.00  0.00    +0.000 OA
ATOM     17  O   UNL     1       7.580   4.754  15.990  0.00  0.00    +0.000 OA
ENDBRANCH  13  15
BRANCH   5  18
ATOM     18  O   UNL     1       2.302   4.831  20.581  0.00  0.00    +0.000 OA
BRANCH  18  20
ATOM     19  C   UNL     1       1.211   2.750  20.162  0.00  0.00    +0.000 C 
ATOM     20  C   UNL     1       1.019   4.232  20.402  0.00  0.00    +0.000 C 
ENDBRANCH  18  20
ENDBRANCH   5  18
ENDBRANCH   1   7
BRANCH   2  21
ATOM     21  C   UNL     1      -0.091  11.154  18.813  0.00  0.00    +0.000 C 
BRANCH  21  22
ATOM     22  C   UNL     1       0.866  11.860  19.770  0.00  0.00    +0.000 C 
BRANCH  22  23
ATOM     23  C   UNL     1       0.740  13.384  19.749  0.00  0.00    +0.000 C 
BRANCH  23  24
ATOM     24  C   UNL     1       1.529  14.043  18.612  0.00  0.00    +0.000 C 
BRANCH  24  25
ATOM     25  C   UNL     1       3.030  13.873  18.829  0.00  0.00    +0.000 C 
BRANCH  25  26
ATOM     26  C   UNL     1       3.770  15.211  18.890  0.00  0.00    +0.000 C 
BRANCH  26  27
ATOM     27  C   UNL     1       5.266  14.971  18.956  0.00  0.00    +0.000 C 
ATOM     28  O   UNL     1       5.915  15.040  19.989  0.00  0.00    +0.000 OA
ATOM     29  N   UNL     1       5.844  14.659  17.737  0.00  0.00    +0.000 N 
ATOM     30  H   UNL     1       5.276  14.647  16.897  0.00  0.00    +0.000 HD
BRANCH  29  31
ATOM     31  C   UNL     1       7.271  14.412  17.664  0.00  0.00    +0.000 C 
BRANCH  31  32
ATOM     32  C   UNL     1       7.617  12.987  17.242  0.00  0.00    +0.000 C 
BRANCH  32  33
ATOM     33  C   UNL     1       8.956  12.549  17.780  0.00  0.00    +0.000 A 
ATOM     34  C   UNL     1      10.111  13.300  17.525  0.00  0.00    +0.000 A 
ATOM     35  C   UNL     1      11.355  12.870  17.997  0.00  0.00    +0.000 A 
ATOM     36  C   UNL     1      11.453  11.689  18.730  0.00  0.00    +0.000 A 
ATOM     37  C   UNL     1      10.310  10.935  18.990  0.00  0.00    +0.000 A 
ATOM     38  C   UNL     1       9.069  11.359  18.512  0.00  0.00    +0.000 A 
ENDBRANCH  32  33
ENDBRANCH  31  32
ENDBRANCH  29  31
ENDBRANCH  26  27
ENDBRANCH  25  26
ENDBRANCH  24  25
ENDBRANCH  23  24
ENDBRANCH  22  23
ENDBRANCH  21  22
ENDBRANCH   2  21
TORSDOF 14
ENDMDL
