MODEL 1
REMARK VINA RESULT:      -6.9      0.000      0.000
REMARK  Name = 
REMARK  2 active torsions:
REMARK  status: ('A' for Active; 'I' for Inactive)
REMARK    1  A    between atoms: C_1  and  C_2
REMARK    2  A    between atoms: C_19  and  O_20
REMARK                            x       y       z     vdW  Elec       q    Type
REMARK                         _______ _______ _______ _____ _____    ______ ____
ROOT
ATOM      1  C   UNL     1       4.506   2.870  20.456  0.00  0.00    +0.000 C 
ATOM      2  C   UNL     1       3.998   3.834  19.445  0.00  0.00    +0.000 C 
ATOM      3  N   UNL     1       4.164   5.110  19.484  0.00  0.00    +0.000 NA
ATOM      4  C   UNL     1       3.502   5.587  18.237  0.00  0.00    +0.000 C 
ATOM      5  N   UNL     1       2.836   4.437  17.570  0.00  0.00    +0.000 NA
ATOM      6  C   UNL     1       3.296   3.407  18.206  0.00  0.00    +0.000 C 
ATOM      7  N   UNL     1       3.238   2.114  17.776  0.00  0.00    +0.000 N 
ATOM      8  C   UNL     1       2.626   6.766  18.615  0.00  0.00    +0.000 A 
ATOM      9  C   UNL     1       1.690   6.844  19.647  0.00  0.00    +0.000 A 
ATOM     10  C   UNL     1       1.191   8.100  20.010  0.00  0.00    +0.000 A 
ATOM     11 BR   UNL     1       0.028   8.254  21.494  0.00  0.00    +0.000 Br
ATOM     12  C   UNL     1       1.588   9.262  19.341  0.00  0.00    +0.000 A 
ATOM     13  C   UNL     1       2.488   9.177  18.287  0.00  0.00    +0.000 A 
ATOM     14  C   UNL     1       3.007   7.932  17.954  0.00  0.00    +0.000 A 
ATOM     15  C   UNL     1       4.023   7.671  16.902  0.00  0.00    +0.000 C 
ATOM     16  C   UNL     1       4.570   6.237  17.215  0.00  0.00    +0.000 C 
ATOM     17  C   UNL     1       4.726   5.559  15.825  0.00  0.00    +0.000 C 
ATOM     18  C   UNL     1       5.471   4.230  15.792  0.00  0.00    +0.000 C 
ATOM     19  C   UNL     1       6.723   4.166  16.664  0.00  0.00    +0.000 C 
ATOM     20  C   UNL     1       6.746   5.026  17.920  0.00  0.00    +0.000 C 
ATOM     21  C   UNL     1       5.995   6.356  17.813  0.00  0.00    +0.000 C 
ATOM     22  H   UNL     1       3.030   2.052  16.782  0.00  0.00    +0.000 HD
ATOM     23  H   UNL     1       4.048   1.544  18.010  0.00  0.00    +0.000 HD
ENDROOT
BRANCH  19  24
ATOM     24  O   UNL     1       7.857   4.488  15.863  0.00  0.00    +0.000 OA
ATOM     25  H   UNL     1       8.067   3.709  15.323  0.00  0.00    +0.000 HD
ENDBRANCH  19  24
TORSDOF 1
ENDMDL
MODEL 2
REMARK VINA RESULT:      -6.8      2.177      3.893
REMARK  Name = 
REMARK  2 active torsions:
REMARK  status: ('A' for Active; 'I' for Inactive)
REMARK    1  A    between atoms: C_1  and  C_2
REMARK    2  A    between atoms: C_19  and  O_20
REMARK                            x       y       z     vdW  Elec       q    Type
REMARK                         _______ _______ _______ _____ _____    ______ ____
ROOT
ATOM      1  C   UNL     1       4.907   4.781  15.635  0.00  0.00    +0.000 C 
ATOM      2  C   UNL     1       4.526   4.986  17.057  0.00  0.00    +0.000 C 
ATOM      3  N   UNL     1       3.332   5.205  17.483  0.00  0.00    +0.000 NA
ATOM      4  C   UNL     1       3.500   5.299  18.961  0.00  0.00    +0.000 C 
ATOM      5  N   UNL     1       4.949   5.237  19.290  0.00  0.00    +0.000 NA
ATOM      6  C   UNL     1       5.500   4.877  18.175  0.00  0.00    +0.000 C 
ATOM      7  N   UNL     1       6.762   4.377  18.034  0.00  0.00    +0.000 N 
ATOM      8  C   UNL     1       2.741   6.528  19.424  0.00  0.00    +0.000 A 
ATOM      9  C   UNL     1       2.807   7.822  18.907  0.00  0.00    +0.000 A 
ATOM     10  C   UNL     1       1.826   8.747  19.283  0.00  0.00    +0.000 A 
ATOM     11 BR   UNL     1       1.808  10.468  18.494  0.00  0.00    +0.000 Br
ATOM     12  C   UNL     1       0.811   8.408  20.182  0.00  0.00    +0.000 A 
ATOM     13  C   UNL     1       0.772   7.131  20.726  0.00  0.00    +0.000 A 
ATOM     14  C   UNL     1       1.726   6.206  20.324  0.00  0.00    +0.000 A 
ATOM     15  C   UNL     1       1.792   4.786  20.754  0.00  0.00    +0.000 C 
ATOM     16  C   UNL     1       2.740   4.092  19.718  0.00  0.00    +0.000 C 
ATOM     17  C   UNL     1       3.613   3.124  20.565  0.00  0.00    +0.000 C 
ATOM     18  C   UNL     1       4.473   2.128  19.795  0.00  0.00    +0.000 C 
ATOM     19  C   UNL     1       3.790   1.472  18.597  0.00  0.00    +0.000 C 
ATOM     20  C   UNL     1       2.717   2.275  17.875  0.00  0.00    +0.000 C 
ATOM     21  C   UNL     1       1.894   3.209  18.766  0.00  0.00    +0.000 C 
ATOM     22  H   UNL     1       7.149   4.066  18.922  0.00  0.00    +0.000 HD
ATOM     23  H   UNL     1       6.865   3.656  17.324  0.00  0.00    +0.000 HD
ENDROOT
BRANCH  19  24
ATOM     24  O   UNL     1       3.235   0.226  19.011  0.00  0.00    +0.000 OA
ATOM     25  H   UNL     1       3.297   0.183  19.979  0.00  0.00    +0.000 HD
ENDBRANCH  19  24
TORSDOF 1
ENDMDL
MODEL 3
REMARK VINA RESULT:      -6.5      9.312     10.954
REMARK  Name = 
REMARK  2 active torsions:
REMARK  status: ('A' for Active; 'I' for Inactive)
REMARK    1  A    between atoms: C_1  and  C_2
REMARK    2  A    between atoms: C_19  and  O_20
REMARK                            x       y       z     vdW  Elec       q    Type
REMARK                         _______ _______ _______ _____ _____    ______ ____
ROOT
ATOM      1  C   UNL     1       8.366  17.011  18.443  0.00  0.00    +0.000 C 
ATOM      2  C   UNL     1       9.038  16.012  19.315  0.00  0.00    +0.000 C 
ATOM      3  N   UNL     1       8.594  14.832  19.573  0.00  0.00    +0.000 NA
ATOM      4  C   UNL     1       9.648  14.247  20.450  0.00  0.00    +0.000 C 
ATOM      5  N   UNL     1      10.664  15.290  20.752  0.00  0.00    +0.000 NA
ATOM      6  C   UNL     1      10.370  16.249  19.932  0.00  0.00    +0.000 C 
ATOM      7  N   UNL     1      11.186  17.289  19.596  0.00  0.00    +0.000 N 
ATOM      8  C   UNL     1       8.947  13.606  21.632  0.00  0.00    +0.000 A 
ATOM      9  C   UNL     1       7.972  14.167  22.459  0.00  0.00    +0.000 A 
ATOM     10  C   UNL     1       7.248  13.326  23.312  0.00  0.00    +0.000 A 
ATOM     11 BR   UNL     1       5.828  14.033  24.343  0.00  0.00    +0.000 Br
ATOM     12  C   UNL     1       7.506  11.952  23.371  0.00  0.00    +0.000 A 
ATOM     13  C   UNL     1       8.504  11.404  22.577  0.00  0.00    +0.000 A 
ATOM     14  C   UNL     1       9.195  12.237  21.707  0.00  0.00    +0.000 A 
ATOM     15  C   UNL     1      10.243  11.807  20.745  0.00  0.00    +0.000 C 
ATOM     16  C   UNL     1      10.380  12.997  19.736  0.00  0.00    +0.000 C 
ATOM     17  C   UNL     1      11.907  13.123  19.475  0.00  0.00    +0.000 C 
ATOM     18  C   UNL     1      12.333  14.047  18.340  0.00  0.00    +0.000 C 
ATOM     19  C   UNL     1      11.486  13.951  17.073  0.00  0.00    +0.000 C 
ATOM     20  C   UNL     1      10.023  13.563  17.236  0.00  0.00    +0.000 C 
ATOM     21  C   UNL     1       9.731  12.597  18.387  0.00  0.00    +0.000 C 
ATOM     22  H   UNL     1      12.155  17.109  19.849  0.00  0.00    +0.000 HD
ATOM     23  H   UNL     1      11.118  17.597  18.629  0.00  0.00    +0.000 HD
ENDROOT
BRANCH  19  24
ATOM     24  O   UNL     1      12.109  13.040  16.173  0.00  0.00    +0.000 OA
ATOM     25  H   UNL     1      12.559  12.363  16.704  0.00  0.00    +0.000 HD
ENDBRANCH  19  24
TORSDOF 1
ENDMDL
MODEL 4
REMARK VINA RESULT:      -6.4      8.944     10.543
REMARK  Name = 
REMARK  2 active torsions:
REMARK  status: ('A' for Active; 'I' for Inactive)
REMARK    1  A    between atoms: C_1  and  C_2
REMARK    2  A    between atoms: C_19  and  O_20
REMARK                            x       y       z     vdW  Elec       q    Type
REMARK                         _______ _______ _______ _____ _____    ______ ____
ROOT
ATOM      1  C   UNL     1       9.060  16.539  18.253  0.00  0.00    +0.000 C 
ATOM      2  C   UNL     1       9.330  15.597  19.370  0.00  0.00    +0.000 C 
ATOM      3  N   UNL     1       8.581  14.604  19.703  0.00  0.00    +0.000 NA
ATOM      4  C   UNL     1       9.314  13.978  20.839  0.00  0.00    +0.000 C 
ATOM      5  N   UNL     1      10.492  14.820  21.180  0.00  0.00    +0.000 NA
ATOM      6  C   UNL     1      10.567  15.654  20.192  0.00  0.00    +0.000 C 
ATOM      7  N   UNL     1      11.652  16.419  19.876  0.00  0.00    +0.000 N 
ATOM      8  C   UNL     1       8.305  13.726  21.943  0.00  0.00    +0.000 A 
ATOM      9  C   UNL     1       7.378  14.621  22.479  0.00  0.00    +0.000 A 
ATOM     10  C   UNL     1       6.350  14.121  23.287  0.00  0.00    +0.000 A 
ATOM     11 BR   UNL     1       5.000  15.289  23.916  0.00  0.00    +0.000 Br
ATOM     12  C   UNL     1       6.257  12.759  23.589  0.00  0.00    +0.000 A 
ATOM     13  C   UNL     1       7.205  11.877  23.087  0.00  0.00    +0.000 A 
ATOM     14  C   UNL     1       8.202  12.372  22.257  0.00  0.00    +0.000 A 
ATOM     15  C   UNL     1       9.252  11.563  21.586  0.00  0.00    +0.000 C 
ATOM     16  C   UNL     1       9.825  12.493  20.464  0.00  0.00    +0.000 C 
ATOM     17  C   UNL     1      11.359  12.244  20.486  0.00  0.00    +0.000 C 
ATOM     18  C   UNL     1      12.166  12.835  19.335  0.00  0.00    +0.000 C 
ATOM     19  C   UNL     1      11.527  12.692  17.955  0.00  0.00    +0.000 C 
ATOM     20  C   UNL     1      10.006  12.658  17.887  0.00  0.00    +0.000 C 
ATOM     21  C   UNL     1       9.316  12.001  19.085  0.00  0.00    +0.000 C 
ATOM     22  H   UNL     1      12.497  16.087  20.333  0.00  0.00    +0.000 HD
ATOM     23  H   UNL     1      11.810  16.553  18.880  0.00  0.00    +0.000 HD
ENDROOT
BRANCH  19  24
ATOM     24  O   UNL     1      12.044  11.521  17.330  0.00  0.00    +0.000 OA
ATOM     25  H   UNL     1      11.651  11.463  16.444  0.00  0.00    +0.000 HD
ENDBRANCH  19  24
TORSDOF 1
ENDMDL
MODEL 5
REMARK VINA RESULT:      -6.1      1.797      2.110
REMARK  Name = 
REMARK  2 active torsions:
REMARK  status: ('A' for Active; 'I' for Inactive)
REMARK    1  A    between atoms: C_1  and  C_2
REMARK    2  A    between atoms: C_19  and  O_20
REMARK                            x       y       z     vdW  Elec       q    Type
REMARK                         _______ _______ _______ _____ _____    ______ ____
ROOT
ATOM      1  C   UNL     1       2.502   2.880  21.931  0.00  0.00    +0.000 C 
ATOM      2  C   UNL     1       2.166   3.890  20.894  0.00  0.00    +0.000 C 
ATOM      3  N   UNL     1       2.634   5.089  20.844  0.00  0.00    +0.000 NA
ATOM      4  C   UNL     1       2.016   5.653  19.611  0.00  0.00    +0.000 C 
ATOM      5  N   UNL     1       1.049   4.669  19.057  0.00  0.00    +0.000 NA
ATOM      6  C   UNL     1       1.295   3.589  19.728  0.00  0.00    +0.000 C 
ATOM      7  N   UNL     1       0.899   2.329  19.384  0.00  0.00    +0.000 N 
ATOM      8  C   UNL     1       1.475   7.026  19.966  0.00  0.00    +0.000 A 
ATOM      9  C   UNL     1       0.663   7.375  21.045  0.00  0.00    +0.000 A 
ATOM     10  C   UNL     1       0.505   8.730  21.358  0.00  0.00    +0.000 A 
ATOM     11 BR   UNL     1      -0.477   9.229  22.896  0.00  0.00    +0.000 Br
ATOM     12  C   UNL     1       1.117   9.729  20.595  0.00  0.00    +0.000 A 
ATOM     13  C   UNL     1       1.892   9.380  19.497  0.00  0.00    +0.000 A 
ATOM     14  C   UNL     1       2.074   8.033  19.212  0.00  0.00    +0.000 A 
ATOM     15  C   UNL     1       2.920   7.485  18.120  0.00  0.00    +0.000 C 
ATOM     16  C   UNL     1       3.131   5.977  18.489  0.00  0.00    +0.000 C 
ATOM     17  C   UNL     1       3.019   5.219  17.137  0.00  0.00    +0.000 C 
ATOM     18  C   UNL     1       3.422   3.748  17.143  0.00  0.00    +0.000 C 
ATOM     19  C   UNL     1       4.682   3.424  17.941  0.00  0.00    +0.000 C 
ATOM     20  C   UNL     1       5.001   4.310  19.138  0.00  0.00    +0.000 C 
ATOM     21  C   UNL     1       4.583   5.776  18.993  0.00  0.00    +0.000 C 
ATOM     22  H   UNL     1       0.611   2.274  18.410  0.00  0.00    +0.000 HD
ATOM     23  H   UNL     1       1.565   1.592  19.605  0.00  0.00    +0.000 HD
ENDROOT
BRANCH  19  24
ATOM     24  O   UNL     1       5.799   3.425  17.057  0.00  0.00    +0.000 OA
ATOM     25  H   UNL     1       5.690   4.170  16.444  0.00  0.00    +0.000 HD
ENDBRANCH  19  24
TORSDOF 1
ENDMDL
MODEL 6
REMARK VINA RESULT:      -5.8      1.549      1.649
REMARK  Name = 
REMARK  2 active torsions:
REMARK  status: ('A' for Active; 'I' for Inactive)
REMARK    1  A    between atoms: C_1  and  C_2
REMARK    2  A    between atoms: C_19  and  O_20
REMARK                            x       y       z     vdW  Elec       q    Type
REMARK                         _______ _______ _______ _____ _____    ______ ____
ROOT
ATOM      1  C   UNL     1       2.321   4.061  21.385  0.00  0.00    +0.000 C 
ATOM      2  C   UNL     1       2.330   4.856  20.129  0.00  0.00    +0.000 C 
ATOM      3  N   UNL     1       2.808   6.045  20.005  0.00  0.00    +0.000 NA
ATOM      4  C   UNL     1       2.601   6.355  18.562  0.00  0.00    +0.000 C 
ATOM      5  N   UNL     1       1.834   5.247  17.932  0.00  0.00    +0.000 NA
ATOM      6  C   UNL     1       1.849   4.315  18.830  0.00  0.00    +0.000 C 
ATOM      7  N   UNL     1       1.559   2.999  18.618  0.00  0.00    +0.000 N 
ATOM      8  C   UNL     1       1.997   7.744  18.481  0.00  0.00    +0.000 A 
ATOM      9  C   UNL     1       0.901   8.245  19.183  0.00  0.00    +0.000 A 
ATOM     10  C   UNL     1       0.675   9.626  19.182  0.00  0.00    +0.000 A 
ATOM     11 BR   UNL     1      -0.722  10.349  20.235  0.00  0.00    +0.000 Br
ATOM     12  C   UNL     1       1.503  10.499  18.470  0.00  0.00    +0.000 A 
ATOM     13  C   UNL     1       2.570   9.993  17.739  0.00  0.00    +0.000 A 
ATOM     14  C   UNL     1       2.811   8.626  17.772  0.00  0.00    +0.000 A 
ATOM     15  C   UNL     1       3.940   7.929  17.105  0.00  0.00    +0.000 C 
ATOM     16  C   UNL     1       4.008   6.521  17.788  0.00  0.00    +0.000 C 
ATOM     17  C   UNL     1       4.302   5.530  16.627  0.00  0.00    +0.000 C 
ATOM     18  C   UNL     1       4.663   4.102  17.021  0.00  0.00    +0.000 C 
ATOM     19  C   UNL     1       5.617   3.979  18.207  0.00  0.00    +0.000 C 
ATOM     20  C   UNL     1       5.569   5.076  19.262  0.00  0.00    +0.000 C 
ATOM     21  C   UNL     1       5.236   6.473  18.733  0.00  0.00    +0.000 C 
ATOM     22  H   UNL     1       1.580   2.759  17.630  0.00  0.00    +0.000 HD
ATOM     23  H   UNL     1       2.116   2.341  19.160  0.00  0.00    +0.000 HD
ENDROOT
BRANCH  19  24
ATOM     24  O   UNL     1       6.949   3.869  17.715  0.00  0.00    +0.000 OA
ATOM     25  H   UNL     1       6.911   3.408  16.861  0.00  0.00    +0.000 HD
ENDBRANCH  19  24
TORSDOF 1
ENDMDL
MODEL 7
REMARK VINA RESULT:      -5.7      9.803     11.134
REMARK  Name = 
REMARK  2 active torsions:
REMARK  status: ('A' for Active; 'I' for Inactive)
REMARK    1  A    between atoms: C_1  and  C_2
REMARK    2  A    between atoms: C_19  and  O_20
REMARK                            x       y       z     vdW  Elec       q    Type
REMARK                         _______ _______ _______ _____ _____    ______ ____
ROOT
ATOM      1  C   UNL     1      10.400  11.556  18.101  0.00  0.00    +0.000 C 
ATOM      2  C   UNL     1       9.760  12.707  18.790  0.00  0.00    +0.000 C 
ATOM      3  N   UNL     1      10.202  13.274  19.858  0.00  0.00    +0.000 NA
ATOM      4  C   UNL     1       9.227  14.374  20.098  0.00  0.00    +0.000 C 
ATOM      5  N   UNL     1       8.119  14.267  19.111  0.00  0.00    +0.000 NA
ATOM      6  C   UNL     1       8.555  13.395  18.258  0.00  0.00    +0.000 C 
ATOM      7  N   UNL     1       8.053  13.185  17.007  0.00  0.00    +0.000 N 
ATOM      8  C   UNL     1       8.847  14.328  21.566  0.00  0.00    +0.000 A 
ATOM      9  C   UNL     1       8.432  13.223  22.310  0.00  0.00    +0.000 A 
ATOM     10  C   UNL     1       8.402  13.324  23.706  0.00  0.00    +0.000 A 
ATOM     11 BR   UNL     1       7.975  11.803  24.748  0.00  0.00    +0.000 Br
ATOM     12  C   UNL     1       8.747  14.512  24.357  0.00  0.00    +0.000 A 
ATOM     13  C   UNL     1       9.121  15.623  23.612  0.00  0.00    +0.000 A 
ATOM     14  C   UNL     1       9.184  15.506  22.229  0.00  0.00    +0.000 A 
ATOM     15  C   UNL     1       9.624  16.569  21.290  0.00  0.00    +0.000 C 
ATOM     16  C   UNL     1       9.923  15.823  19.945  0.00  0.00    +0.000 C 
ATOM     17  C   UNL     1       9.371  16.763  18.838  0.00  0.00    +0.000 C 
ATOM     18  C   UNL     1       9.735  16.413  17.399  0.00  0.00    +0.000 C 
ATOM     19  C   UNL     1      11.181  15.974  17.185  0.00  0.00    +0.000 C 
ATOM     20  C   UNL     1      11.880  15.276  18.343  0.00  0.00    +0.000 C 
ATOM     21  C   UNL     1      11.457  15.746  19.737  0.00  0.00    +0.000 C 
ATOM     22  H   UNL     1       7.465  13.956  16.699  0.00  0.00    +0.000 HD
ATOM     23  H   UNL     1       8.744  12.954  16.297  0.00  0.00    +0.000 HD
ENDROOT
BRANCH  19  24
ATOM     24  O   UNL     1      11.952  17.107  16.795  0.00  0.00    +0.000 OA
ATOM     25  H   UNL     1      11.745  17.298  15.866  0.00  0.00    +0.000 HD
ENDBRANCH  19  24
TORSDOF 1
ENDMDL
MODEL 8
REMARK VINA RESULT:      -5.7      7.103      9.045
REMARK  Name = 
REMARK  2 active torsions:
REMARK  status: ('A' for Active; 'I' for Inactive)
REMARK    1  A    between atoms: C_1  and  C_2
REMARK    2  A    between atoms: C_19  and  O_20
REMARK                            x       y       z     vdW  Elec       q    Type
REMARK                         _______ _______ _______ _____ _____    ______ ____
ROOT
ATOM      1  C   UNL     1      -3.341  12.692  20.954  0.00  0.00    +0.000 C 
ATOM      2  C   UNL     1      -2.173  12.811  20.043  0.00  0.00    +0.000 C 
ATOM      3  N   UNL     1      -1.073  13.421  20.319  0.00  0.00    +0.000 NA
ATOM      4  C   UNL     1      -0.242  13.212  19.101  0.00  0.00    +0.000 C 
ATOM      5  N   UNL     1      -1.061  12.526  18.066  0.00  0.00    +0.000 NA
ATOM      6  C   UNL     1      -2.118  12.151  18.712  0.00  0.00    +0.000 C 
ATOM      7  N   UNL     1      -3.020  11.217  18.292  0.00  0.00    +0.000 N 
ATOM      8  C   UNL     1       0.357  14.555  18.727  0.00  0.00    +0.000 A 
ATOM      9  C   UNL     1      -0.301  15.777  18.586  0.00  0.00    +0.000 A 
ATOM     10  C   UNL     1       0.464  16.948  18.515  0.00  0.00    +0.000 A 
ATOM     11 BR   UNL     1      -0.401  18.630  18.463  0.00  0.00    +0.000 Br
ATOM     12  C   UNL     1       1.861  16.909  18.551  0.00  0.00    +0.000 A 
ATOM     13  C   UNL     1       2.513  15.686  18.649  0.00  0.00    +0.000 A 
ATOM     14  C   UNL     1       1.750  14.531  18.755  0.00  0.00    +0.000 A 
ATOM     15  C   UNL     1       2.281  13.155  18.932  0.00  0.00    +0.000 C 
ATOM     16  C   UNL     1       1.057  12.308  19.421  0.00  0.00    +0.000 C 
ATOM     17  C   UNL     1       1.185  10.955  18.668  0.00  0.00    +0.000 C 
ATOM     18  C   UNL     1       0.263   9.829  19.125  0.00  0.00    +0.000 C 
ATOM     19  C   UNL     1       0.105   9.692  20.637  0.00  0.00    +0.000 C 
ATOM     20  C   UNL     1       0.239  10.958  21.473  0.00  0.00    +0.000 C 
ATOM     21  C   UNL     1       1.227  11.995  20.930  0.00  0.00    +0.000 C 
ATOM     22  H   UNL     1      -2.651  10.645  17.537  0.00  0.00    +0.000 HD
ATOM     23  H   UNL     1      -3.412  10.634  19.028  0.00  0.00    +0.000 HD
ENDROOT
BRANCH  19  24
ATOM     24  O   UNL     1       1.039   8.726  21.110  0.00  0.00    +0.000 OA
ATOM     25  H   UNL     1       0.561   7.889  21.231  0.00  0.00    +0.000 HD
ENDBRANCH  19  24
TORSDOF 1
ENDMDL
MODEL 9
REMARK VINA RESULT:      -5.7      3.580      5.236
REMARK  Name = 
REMARK  2 active torsions:
REMARK  status: ('A' for Active; 'I' for Inactive)
REMARK    1  A    between atoms: C_1  and  C_2
REMARK    2  A    between atoms: C_19  and  O_20
REMARK                            x       y       z     vdW  Elec       q    Type
REMARK                         _______ _______ _______ _____ _____    ______ ____
ROOT
ATOM      1  C   UNL     1       3.742   0.684  18.229  0.00  0.00    +0.000 C 
ATOM      2  C   UNL     1       4.070   2.129  18.346  0.00  0.00    +0.000 C 
ATOM      3  N   UNL     1       3.740   3.038  17.495  0.00  0.00    +0.000 NA
ATOM      4  C   UNL     1       4.272   4.291  18.099  0.00  0.00    +0.000 C 
ATOM      5  N   UNL     1       5.050   3.951  19.320  0.00  0.00    +0.000 NA
ATOM      6  C   UNL     1       4.761   2.706  19.529  0.00  0.00    +0.000 C 
ATOM      7  N   UNL     1       4.967   2.024  20.693  0.00  0.00    +0.000 N 
ATOM      8  C   UNL     1       5.004   5.044  17.004  0.00  0.00    +0.000 A 
ATOM      9  C   UNL     1       5.970   4.554  16.124  0.00  0.00    +0.000 A 
ATOM     10  C   UNL     1       6.317   5.325  15.008  0.00  0.00    +0.000 A 
ATOM     11 BR   UNL     1       7.521   4.628  13.725  0.00  0.00    +0.000 Br
ATOM     12  C   UNL     1       5.740   6.578  14.781  0.00  0.00    +0.000 A 
ATOM     13  C   UNL     1       4.808   7.080  15.680  0.00  0.00    +0.000 A 
ATOM     14  C   UNL     1       4.442   6.297  16.767  0.00  0.00    +0.000 A 
ATOM     15  C   UNL     1       3.419   6.651  17.784  0.00  0.00    +0.000 C 
ATOM     16  C   UNL     1       3.080   5.302  18.505  0.00  0.00    +0.000 C 
ATOM     17  C   UNL     1       2.948   5.677  20.007  0.00  0.00    +0.000 C 
ATOM     18  C   UNL     1       2.382   4.605  20.933  0.00  0.00    +0.000 C 
ATOM     19  C   UNL     1       1.194   3.827  20.373  0.00  0.00    +0.000 C 
ATOM     20  C   UNL     1       1.119   3.652  18.863  0.00  0.00    +0.000 C 
ATOM     21  C   UNL     1       1.683   4.816  18.044  0.00  0.00    +0.000 C 
ATOM     22  H   UNL     1       5.133   2.651  21.476  0.00  0.00    +0.000 HD
ATOM     23  H   UNL     1       4.252   1.339  20.925  0.00  0.00    +0.000 HD
ENDROOT
BRANCH  19  24
ATOM     24  O   UNL     1      -0.010   4.440  20.827  0.00  0.00    +0.000 OA
ATOM     25  H   UNL     1      -0.168   4.140  21.738  0.00  0.00    +0.000 HD
ENDBRANCH  19  24
TORSDOF 1
ENDMDL
