MODEL 1
REMARK VINA RESULT:      -5.6      0.000      0.000
REMARK  Name = 
REMARK  8 active torsions:
REMARK  status: ('A' for Active; 'I' for Inactive)
REMARK    1  A    between atoms: C_1  and  O_2
REMARK    2  A    between atoms: O_2  and  C_3
REMARK    3  A    between atoms: C_6  and  N_7
REMARK    4  A    between atoms: C_8  and  C_10
REMARK    5  A    between atoms: C_10  and  C_11
REMARK    6  A    between atoms: C_11  and  S_12
REMARK    7  A    between atoms: S_12  and  C_13
REMARK    8  A    between atoms: S_12  and  C_14
REMARK                            x       y       z     vdW  Elec       q    Type
REMARK                         _______ _______ _______ _____ _____    ______ ____
ROOT
ATOM      1  N   UNL     1       3.602   5.230  17.995  0.00  0.00    +0.000 N 
ATOM      2  C   UNL     1       3.963   5.277  19.339  0.00  0.00    +0.000 C 
ATOM      3  O   UNL     1       5.108   5.343  19.786  0.00  0.00    +0.000 OA
ATOM      4  H   UNL     1       2.638   5.035  17.757  0.00  0.00    +0.000 HD
ENDROOT
BRANCH   1   8
ATOM      5  C   UNL     1       6.106   4.752  14.677  0.00  0.00    +0.000 A 
ATOM      6  C   UNL     1       5.729   6.027  15.084  0.00  0.00    +0.000 A 
ATOM      7  C   UNL     1       4.944   6.184  16.237  0.00  0.00    +0.000 A 
ATOM      8  C   UNL     1       4.542   5.070  16.974  0.00  0.00    +0.000 A 
ATOM      9  C   UNL     1       5.009   3.812  16.630  0.00  0.00    +0.000 A 
ATOM     10  C   UNL     1       5.739   3.657  15.462  0.00  0.00    +0.000 A 
BRANCH   5  12
ATOM     11  C   UNL     1       6.252   3.540  12.585  0.00  0.00    +0.000 C 
ATOM     12  O   UNL     1       6.800   4.403  13.561  0.00  0.00    +0.000 OA
ENDBRANCH   5  12
ENDBRANCH   1   8
BRANCH   2  13
ATOM     13  C   UNL     1       2.803   5.143  20.290  0.00  0.00    +0.000 C 
BRANCH  13  14
ATOM     14  C   UNL     1       1.581   4.583  19.582  0.00  0.00    +0.000 C 
BRANCH  14  15
ATOM     15  S   UNL     1       1.168   2.930  20.215  0.00  0.00    +0.000 S 
ATOM     16  C   UNL     1       2.165   2.017  19.014  0.00  0.00    +0.000 C 
ATOM     17  C   UNL     1       2.385   2.903  21.553  0.00  0.00    +0.000 C 
ENDBRANCH  14  15
ENDBRANCH  13  14
ENDBRANCH   2  13
TORSDOF 5
ENDMDL
MODEL 2
REMARK VINA RESULT:      -5.6      2.723      3.789
REMARK  Name = 
REMARK  8 active torsions:
REMARK  status: ('A' for Active; 'I' for Inactive)
REMARK    1  A    between atoms: C_1  and  O_2
REMARK    2  A    between atoms: O_2  and  C_3
REMARK    3  A    between atoms: C_6  and  N_7
REMARK    4  A    between atoms: C_8  and  C_10
REMARK    5  A    between atoms: C_10  and  C_11
REMARK    6  A    between atoms: C_11  and  S_12
REMARK    7  A    between atoms: S_12  and  C_13
REMARK    8  A    between atoms: S_12  and  C_14
REMARK                            x       y       z     vdW  Elec       q    Type
REMARK                         _______ _______ _______ _____ _____    ______ ____
ROOT
ATOM      1  N   UNL     1       4.992   4.035  19.067  0.00  0.00    +0.000 N 
ATOM      2  C   UNL     1       4.236   3.157  18.295  0.00  0.00    +0.000 C 
ATOM      3  O   UNL     1       4.270   3.045  17.071  0.00  0.00    +0.000 OA
ATOM      4  H   UNL     1       4.774   4.131  20.050  0.00  0.00    +0.000 HD
ENDROOT
BRANCH   1   8
ATOM      5  C   UNL     1       7.227   7.291  17.683  0.00  0.00    +0.000 A 
ATOM      6  C   UNL     1       7.796   6.385  18.572  0.00  0.00    +0.000 A 
ATOM      7  C   UNL     1       7.065   5.259  18.980  0.00  0.00    +0.000 A 
ATOM      8  C   UNL     1       5.773   5.045  18.499  0.00  0.00    +0.000 A 
ATOM      9  C   UNL     1       5.250   5.887  17.532  0.00  0.00    +0.000 A 
ATOM     10  C   UNL     1       5.954   7.025  17.173  0.00  0.00    +0.000 A 
BRANCH   5  12
ATOM     11  C   UNL     1       8.390   9.372  18.106  0.00  0.00    +0.000 C 
ATOM     12  O   UNL     1       7.752   8.461  17.233  0.00  0.00    +0.000 OA
ENDBRANCH   5  12
ENDBRANCH   1   8
BRANCH   2  13
ATOM     13  C   UNL     1       3.237   2.353  19.086  0.00  0.00    +0.000 C 
BRANCH  13  14
ATOM     14  C   UNL     1       3.270   2.736  20.556  0.00  0.00    +0.000 C 
BRANCH  14  15
ATOM     15  S   UNL     1       1.639   3.316  21.110  0.00  0.00    +0.000 S 
ATOM     16  C   UNL     1       1.932   5.063  20.748  0.00  0.00    +0.000 C 
ATOM     17  C   UNL     1       0.747   2.937  19.584  0.00  0.00    +0.000 C 
ENDBRANCH  14  15
ENDBRANCH  13  14
ENDBRANCH   2  13
TORSDOF 5
ENDMDL
MODEL 3
REMARK VINA RESULT:      -5.6      1.375      1.475
REMARK  Name = 
REMARK  8 active torsions:
REMARK  status: ('A' for Active; 'I' for Inactive)
REMARK    1  A    between atoms: C_1  and  O_2
REMARK    2  A    between atoms: O_2  and  C_3
REMARK    3  A    between atoms: C_6  and  N_7
REMARK    4  A    between atoms: C_8  and  C_10
REMARK    5  A    between atoms: C_10  and  C_11
REMARK    6  A    between atoms: C_11  and  S_12
REMARK    7  A    between atoms: S_12  and  C_13
REMARK    8  A    between atoms: S_12  and  C_14
REMARK                            x       y       z     vdW  Elec       q    Type
REMARK                         _______ _______ _______ _____ _____    ______ ____
ROOT
ATOM      1  N   UNL     1       4.210   4.207  18.675  0.00  0.00    +0.000 N 
ATOM      2  C   UNL     1       3.476   5.291  19.146  0.00  0.00    +0.000 C 
ATOM      3  O   UNL     1       3.430   6.415  18.648  0.00  0.00    +0.000 OA
ATOM      4  H   UNL     1       4.276   3.377  19.250  0.00  0.00    +0.000 HD
ENDROOT
BRANCH   1   8
ATOM      5  C   UNL     1       6.978   4.978  15.633  0.00  0.00    +0.000 A 
ATOM      6  C   UNL     1       7.397   4.930  16.958  0.00  0.00    +0.000 A 
ATOM      7  C   UNL     1       6.478   4.604  17.967  0.00  0.00    +0.000 A 
ATOM      8  C   UNL     1       5.148   4.330  17.647  0.00  0.00    +0.000 A 
ATOM      9  C   UNL     1       4.757   4.272  16.319  0.00  0.00    +0.000 A 
ATOM     10  C   UNL     1       5.655   4.645  15.332  0.00  0.00    +0.000 A 
BRANCH   5  12
ATOM     11  C   UNL     1       7.378   4.869  13.247  0.00  0.00    +0.000 C 
ATOM     12  O   UNL     1       7.702   5.338  14.541  0.00  0.00    +0.000 OA
ENDBRANCH   5  12
ENDBRANCH   1   8
BRANCH   2  13
ATOM     13  C   UNL     1       2.756   5.026  20.443  0.00  0.00    +0.000 C 
BRANCH  13  14
ATOM     14  C   UNL     1       1.319   4.601  20.190  0.00  0.00    +0.000 C 
BRANCH  14  15
ATOM     15  S   UNL     1       1.037   2.900  20.767  0.00  0.00    +0.000 S 
ATOM     16  C   UNL     1       1.457   2.101  19.201  0.00  0.00    +0.000 C 
ATOM     17  C   UNL     1       2.649   2.671  21.554  0.00  0.00    +0.000 C 
ENDBRANCH  14  15
ENDBRANCH  13  14
ENDBRANCH   2  13
TORSDOF 5
ENDMDL
MODEL 4
REMARK VINA RESULT:      -5.6      2.718      3.728
REMARK  Name = 
REMARK  8 active torsions:
REMARK  status: ('A' for Active; 'I' for Inactive)
REMARK    1  A    between atoms: C_1  and  O_2
REMARK    2  A    between atoms: O_2  and  C_3
REMARK    3  A    between atoms: C_6  and  N_7
REMARK    4  A    between atoms: C_8  and  C_10
REMARK    5  A    between atoms: C_10  and  C_11
REMARK    6  A    between atoms: C_11  and  S_12
REMARK    7  A    between atoms: S_12  and  C_13
REMARK    8  A    between atoms: S_12  and  C_14
REMARK                            x       y       z     vdW  Elec       q    Type
REMARK                         _______ _______ _______ _____ _____    ______ ____
ROOT
ATOM      1  N   UNL     1       5.403   3.878  18.343  0.00  0.00    +0.000 N 
ATOM      2  C   UNL     1       4.419   3.936  19.327  0.00  0.00    +0.000 C 
ATOM      3  O   UNL     1       4.004   4.951  19.886  0.00  0.00    +0.000 OA
ATOM      4  H   UNL     1       5.756   2.973  18.062  0.00  0.00    +0.000 HD
ENDROOT
BRANCH   1   8
ATOM      5  C   UNL     1       7.512   7.410  17.576  0.00  0.00    +0.000 A 
ATOM      6  C   UNL     1       7.924   6.562  18.598  0.00  0.00    +0.000 A 
ATOM      7  C   UNL     1       7.255   5.347  18.807  0.00  0.00    +0.000 A 
ATOM      8  C   UNL     1       6.178   4.987  17.996  0.00  0.00    +0.000 A 
ATOM      9  C   UNL     1       5.839   5.779  16.911  0.00  0.00    +0.000 A 
ATOM     10  C   UNL     1       6.469   7.001  16.742  0.00  0.00    +0.000 A 
BRANCH   5  12
ATOM     11  C   UNL     1       8.508   9.507  18.264  0.00  0.00    +0.000 C 
ATOM     12  O   UNL     1       7.991   8.644  17.271  0.00  0.00    +0.000 OA
ENDBRANCH   5  12
ENDBRANCH   1   8
BRANCH   2  13
ATOM     13  C   UNL     1       3.914   2.588  19.768  0.00  0.00    +0.000 C 
BRANCH  13  14
ATOM     14  C   UNL     1       3.161   1.894  18.645  0.00  0.00    +0.000 C 
BRANCH  14  15
ATOM     15  S   UNL     1       1.369   2.146  18.816  0.00  0.00    +0.000 S 
ATOM     16  C   UNL     1       1.421   2.674  20.545  0.00  0.00    +0.000 C 
ATOM     17  C   UNL     1       1.316   3.804  18.096  0.00  0.00    +0.000 C 
ENDBRANCH  14  15
ENDBRANCH  13  14
ENDBRANCH   2  13
TORSDOF 5
ENDMDL
MODEL 5
REMARK VINA RESULT:      -5.5      0.681      1.377
REMARK  Name = 
REMARK  8 active torsions:
REMARK  status: ('A' for Active; 'I' for Inactive)
REMARK    1  A    between atoms: C_1  and  O_2
REMARK    2  A    between atoms: O_2  and  C_3
REMARK    3  A    between atoms: C_6  and  N_7
REMARK    4  A    between atoms: C_8  and  C_10
REMARK    5  A    between atoms: C_10  and  C_11
REMARK    6  A    between atoms: C_11  and  S_12
REMARK    7  A    between atoms: S_12  and  C_13
REMARK    8  A    between atoms: S_12  and  C_14
REMARK                            x       y       z     vdW  Elec       q    Type
REMARK                         _______ _______ _______ _____ _____    ______ ____
ROOT
ATOM      1  N   UNL     1       3.496   5.212  18.013  0.00  0.00    +0.000 N 
ATOM      2  C   UNL     1       3.878   5.252  19.351  0.00  0.00    +0.000 C 
ATOM      3  O   UNL     1       5.020   5.414  19.780  0.00  0.00    +0.000 OA
ATOM      4  H   UNL     1       2.550   4.933  17.785  0.00  0.00    +0.000 HD
ENDROOT
BRANCH   1   8
ATOM      5  C   UNL     1       6.568   5.061  15.177  0.00  0.00    +0.000 A 
ATOM      6  C   UNL     1       5.994   3.883  15.642  0.00  0.00    +0.000 A 
ATOM      7  C   UNL     1       4.919   3.942  16.542  0.00  0.00    +0.000 A 
ATOM      8  C   UNL     1       4.426   5.174  16.971  0.00  0.00    +0.000 A 
ATOM      9  C   UNL     1       4.926   6.344  16.424  0.00  0.00    +0.000 A 
ATOM     10  C   UNL     1       6.021   6.281  15.577  0.00  0.00    +0.000 A 
BRANCH   5  12
ATOM     11  C   UNL     1       7.554   5.011  12.965  0.00  0.00    +0.000 C 
ATOM     12  O   UNL     1       7.649   5.198  14.363  0.00  0.00    +0.000 OA
ENDBRANCH   5  12
ENDBRANCH   1   8
BRANCH   2  13
ATOM     13  C   UNL     1       2.756   4.979  20.317  0.00  0.00    +0.000 C 
BRANCH  13  14
ATOM     14  C   UNL     1       1.525   4.464  19.590  0.00  0.00    +0.000 C 
BRANCH  14  15
ATOM     15  S   UNL     1       1.137   2.763  20.100  0.00  0.00    +0.000 S 
ATOM     16  C   UNL     1       2.313   1.962  18.984  0.00  0.00    +0.000 C 
ATOM     17  C   UNL     1       2.194   2.733  21.567  0.00  0.00    +0.000 C 
ENDBRANCH  14  15
ENDBRANCH  13  14
ENDBRANCH   2  13
TORSDOF 5
ENDMDL
MODEL 6
REMARK VINA RESULT:      -5.5      1.788      2.395
REMARK  Name = 
REMARK  8 active torsions:
REMARK  status: ('A' for Active; 'I' for Inactive)
REMARK    1  A    between atoms: C_1  and  O_2
REMARK    2  A    between atoms: O_2  and  C_3
REMARK    3  A    between atoms: C_6  and  N_7
REMARK    4  A    between atoms: C_8  and  C_10
REMARK    5  A    between atoms: C_10  and  C_11
REMARK    6  A    between atoms: C_11  and  S_12
REMARK    7  A    between atoms: S_12  and  C_13
REMARK    8  A    between atoms: S_12  and  C_14
REMARK                            x       y       z     vdW  Elec       q    Type
REMARK                         _______ _______ _______ _____ _____    ______ ____
ROOT
ATOM      1  N   UNL     1       3.949   3.637  18.150  0.00  0.00    +0.000 N 
ATOM      2  C   UNL     1       3.491   2.337  18.344  0.00  0.00    +0.000 C 
ATOM      3  O   UNL     1       4.007   1.308  17.911  0.00  0.00    +0.000 OA
ATOM      4  H   UNL     1       3.362   4.408  18.439  0.00  0.00    +0.000 HD
ENDROOT
BRANCH   1   8
ATOM      5  C   UNL     1       6.970   4.933  15.561  0.00  0.00    +0.000 A 
ATOM      6  C   UNL     1       7.238   4.775  16.916  0.00  0.00    +0.000 A 
ATOM      7  C   UNL     1       6.241   4.276  17.768  0.00  0.00    +0.000 A 
ATOM      8  C   UNL     1       4.984   3.939  17.262  0.00  0.00    +0.000 A 
ATOM      9  C   UNL     1       4.756   3.993  15.897  0.00  0.00    +0.000 A 
ATOM     10  C   UNL     1       5.725   4.536  15.069  0.00  0.00    +0.000 A 
BRANCH   5  12
ATOM     11  C   UNL     1       7.647   5.110  13.243  0.00  0.00    +0.000 C 
ATOM     12  O   UNL     1       7.781   5.459  14.606  0.00  0.00    +0.000 OA
ENDBRANCH   5  12
ENDBRANCH   1   8
BRANCH   2  13
ATOM     13  C   UNL     1       2.187   2.253  19.093  0.00  0.00    +0.000 C 
BRANCH  13  14
ATOM     14  C   UNL     1       1.374   3.525  18.916  0.00  0.00    +0.000 C 
BRANCH  14  15
ATOM     15  S   UNL     1       0.997   4.280  20.526  0.00  0.00    +0.000 S 
ATOM     16  C   UNL     1       2.128   3.247  21.485  0.00  0.00    +0.000 C 
ATOM     17  C   UNL     1       2.104   5.700  20.362  0.00  0.00    +0.000 C 
ENDBRANCH  14  15
ENDBRANCH  13  14
ENDBRANCH   2  13
TORSDOF 5
ENDMDL
MODEL 7
REMARK VINA RESULT:      -5.5      2.693      3.567
REMARK  Name = 
REMARK  8 active torsions:
REMARK  status: ('A' for Active; 'I' for Inactive)
REMARK    1  A    between atoms: C_1  and  O_2
REMARK    2  A    between atoms: O_2  and  C_3
REMARK    3  A    between atoms: C_6  and  N_7
REMARK    4  A    between atoms: C_8  and  C_10
REMARK    5  A    between atoms: C_10  and  C_11
REMARK    6  A    between atoms: C_11  and  S_12
REMARK    7  A    between atoms: S_12  and  C_13
REMARK    8  A    between atoms: S_12  and  C_14
REMARK                            x       y       z     vdW  Elec       q    Type
REMARK                         _______ _______ _______ _____ _____    ______ ____
ROOT
ATOM      1  N   UNL     1       4.918   3.950  19.256  0.00  0.00    +0.000 N 
ATOM      2  C   UNL     1       4.176   3.152  18.389  0.00  0.00    +0.000 C 
ATOM      3  O   UNL     1       4.143   3.241  17.162  0.00  0.00    +0.000 OA
ATOM      4  H   UNL     1       4.753   3.871  20.251  0.00  0.00    +0.000 HD
ENDROOT
BRANCH   1   8
ATOM      5  C   UNL     1       7.051   7.163  17.633  0.00  0.00    +0.000 A 
ATOM      6  C   UNL     1       5.715   6.974  17.294  0.00  0.00    +0.000 A 
ATOM      7  C   UNL     1       4.987   5.935  17.894  0.00  0.00    +0.000 A 
ATOM      8  C   UNL     1       5.595   5.093  18.824  0.00  0.00    +0.000 A 
ATOM      9  C   UNL     1       6.891   5.350  19.241  0.00  0.00    +0.000 A 
ATOM     10  C   UNL     1       7.621   6.343  18.608  0.00  0.00    +0.000 A 
BRANCH   5  12
ATOM     11  C   UNL     1       8.284   9.239  17.809  0.00  0.00    +0.000 C 
ATOM     12  O   UNL     1       7.924   8.064  17.110  0.00  0.00    +0.000 OA
ENDBRANCH   5  12
ENDBRANCH   1   8
BRANCH   2  13
ATOM     13  C   UNL     1       3.282   2.160  19.084  0.00  0.00    +0.000 C 
BRANCH  13  14
ATOM     14  C   UNL     1       1.820   2.546  18.935  0.00  0.00    +0.000 C 
BRANCH  14  15
ATOM     15  S   UNL     1       1.128   3.087  20.526  0.00  0.00    +0.000 S 
ATOM     16  C   UNL     1       2.545   2.578  21.527  0.00  0.00    +0.000 C 
ATOM     17  C   UNL     1       1.593   4.828  20.382  0.00  0.00    +0.000 C 
ENDBRANCH  14  15
ENDBRANCH  13  14
ENDBRANCH   2  13
TORSDOF 5
ENDMDL
MODEL 8
REMARK VINA RESULT:      -5.4      2.587      3.587
REMARK  Name = 
REMARK  8 active torsions:
REMARK  status: ('A' for Active; 'I' for Inactive)
REMARK    1  A    between atoms: C_1  and  O_2
REMARK    2  A    between atoms: O_2  and  C_3
REMARK    3  A    between atoms: C_6  and  N_7
REMARK    4  A    between atoms: C_8  and  C_10
REMARK    5  A    between atoms: C_10  and  C_11
REMARK    6  A    between atoms: C_11  and  S_12
REMARK    7  A    between atoms: S_12  and  C_13
REMARK    8  A    between atoms: S_12  and  C_14
REMARK                            x       y       z     vdW  Elec       q    Type
REMARK                         _______ _______ _______ _____ _____    ______ ____
ROOT
ATOM      1  N   UNL     1       4.310   4.346  18.751  0.00  0.00    +0.000 N 
ATOM      2  C   UNL     1       3.900   3.207  18.064  0.00  0.00    +0.000 C 
ATOM      3  O   UNL     1       4.432   2.726  17.064  0.00  0.00    +0.000 OA
ATOM      4  H   UNL     1       3.709   4.721  19.473  0.00  0.00    +0.000 HD
ENDROOT
BRANCH   1   8
ATOM      5  C   UNL     1       7.203   7.140  17.594  0.00  0.00    +0.000 A 
ATOM      6  C   UNL     1       7.534   6.125  18.485  0.00  0.00    +0.000 A 
ATOM      7  C   UNL     1       6.579   5.152  18.817  0.00  0.00    +0.000 A 
ATOM      8  C   UNL     1       5.301   5.199  18.259  0.00  0.00    +0.000 A 
ATOM      9  C   UNL     1       5.008   6.144  17.290  0.00  0.00    +0.000 A 
ATOM     10  C   UNL     1       5.936   7.133  17.006  0.00  0.00    +0.000 A 
BRANCH   5  12
ATOM     11  C   UNL     1       8.328   9.219  18.118  0.00  0.00    +0.000 C 
ATOM     12  O   UNL     1       7.967   8.196  17.211  0.00  0.00    +0.000 OA
ENDBRANCH   5  12
ENDBRANCH   1   8
BRANCH   2  13
ATOM     13  C   UNL     1       2.628   2.598  18.592  0.00  0.00    +0.000 C 
BRANCH  13  14
ATOM     14  C   UNL     1       1.513   3.630  18.650  0.00  0.00    +0.000 C 
BRANCH  14  15
ATOM     15  S   UNL     1       0.860   3.781  20.340  0.00  0.00    +0.000 S 
ATOM     16  C   UNL     1       2.079   2.689  21.108  0.00  0.00    +0.000 C 
ATOM     17  C   UNL     1       1.688   5.335  20.752  0.00  0.00    +0.000 C 
ENDBRANCH  14  15
ENDBRANCH  13  14
ENDBRANCH   2  13
TORSDOF 5
ENDMDL
MODEL 9
REMARK VINA RESULT:      -5.4      1.293      1.979
REMARK  Name = 
REMARK  8 active torsions:
REMARK  status: ('A' for Active; 'I' for Inactive)
REMARK    1  A    between atoms: C_1  and  O_2
REMARK    2  A    between atoms: O_2  and  C_3
REMARK    3  A    between atoms: C_6  and  N_7
REMARK    4  A    between atoms: C_8  and  C_10
REMARK    5  A    between atoms: C_10  and  C_11
REMARK    6  A    between atoms: C_11  and  S_12
REMARK    7  A    between atoms: S_12  and  C_13
REMARK    8  A    between atoms: S_12  and  C_14
REMARK                            x       y       z     vdW  Elec       q    Type
REMARK                         _______ _______ _______ _____ _____    ______ ____
ROOT
ATOM      1  N   UNL     1       4.116   4.245  17.801  0.00  0.00    +0.000 N 
ATOM      2  C   UNL     1       4.638   3.829  19.023  0.00  0.00    +0.000 C 
ATOM      3  O   UNL     1       5.822   3.853  19.359  0.00  0.00    +0.000 OA
ATOM      4  H   UNL     1       3.147   4.044  17.593  0.00  0.00    +0.000 HD
ENDROOT
BRANCH   1   8
ATOM      5  C   UNL     1       6.871   5.140  14.782  0.00  0.00    +0.000 A 
ATOM      6  C   UNL     1       6.344   3.857  14.883  0.00  0.00    +0.000 A 
ATOM      7  C   UNL     1       5.370   3.581  15.854  0.00  0.00    +0.000 A 
ATOM      8  C   UNL     1       4.931   4.584  16.719  0.00  0.00    +0.000 A 
ATOM      9  C   UNL     1       5.376   5.884  16.546  0.00  0.00    +0.000 A 
ATOM     10  C   UNL     1       6.375   6.141  15.620  0.00  0.00    +0.000 A 
BRANCH   5  12
ATOM     11  C   UNL     1       7.846   5.294  12.571  0.00  0.00    +0.000 C 
ATOM     12  O   UNL     1       7.860   5.573  13.956  0.00  0.00    +0.000 OA
ENDBRANCH   5  12
ENDBRANCH   1   8
BRANCH   2  13
ATOM     13  C   UNL     1       3.618   3.220  19.949  0.00  0.00    +0.000 C 
BRANCH  13  14
ATOM     14  C   UNL     1       2.305   2.971  19.225  0.00  0.00    +0.000 C 
BRANCH  14  15
ATOM     15  S   UNL     1       0.900   3.563  20.214  0.00  0.00    +0.000 S 
ATOM     16  C   UNL     1       1.356   2.686  21.728  0.00  0.00    +0.000 C 
ATOM     17  C   UNL     1       1.618   5.157  20.675  0.00  0.00    +0.000 C 
ENDBRANCH  14  15
ENDBRANCH  13  14
ENDBRANCH   2  13
TORSDOF 5
ENDMDL
