MODEL 1
REMARK VINA RESULT:      -8.5      0.000      0.000
REMARK  Name = 
REMARK  13 active torsions:
REMARK  status: ('A' for Active; 'I' for Inactive)
REMARK    1  A    between atoms: C_1  and  C_2
REMARK    2  A    between atoms: C_2  and  C_3
REMARK    3  A    between atoms: C_3  and  C_4
REMARK    4  A    between atoms: C_3  and  C_5
REMARK    5  A    between atoms: C_3  and  N_6
REMARK    6  A    between atoms: N_6  and  C_7
REMARK    7  A    between atoms: C_7  and  C_8
REMARK    8  A    between atoms: C_12  and  N_13
REMARK    9  A    between atoms: C_17  and  C_19
REMARK   10  A    between atoms: C_19  and  O_20
REMARK   11  A    between atoms: O_20  and  C_21
REMARK   12  A    between atoms: C_21  and  C_23
REMARK   13  A    between atoms: C_26  and  N_27
REMARK                            x       y       z     vdW  Elec       q    Type
REMARK                         _______ _______ _______ _____ _____    ______ ____
ROOT
ATOM      1  N   UNL     1       2.643   4.189  18.618  0.00  0.00    +0.000 N 
ATOM      2  C   UNL     1       2.275   5.436  19.164  0.00  0.00    +0.000 C 
ATOM      3  O   UNL     1       1.820   5.587  20.301  0.00  0.00    +0.000 OA
ENDROOT
BRANCH   1   4
ATOM      4  C   UNL     1       2.522   2.863  19.421  0.00  0.00    +0.000 C 
ATOM      5  C   UNL     1       3.697   2.750  20.424  0.00  0.00    +0.000 C 
ATOM      6  C   UNL     1       2.596   1.650  18.469  0.00  0.00    +0.000 C 
BRANCH   4   8
ATOM      7  C   UNL     1       1.271   2.621  21.761  0.00  0.00    +0.000 C 
ATOM      8  C   UNL     1       1.189   2.741  20.239  0.00  0.00    +0.000 C 
ENDBRANCH   4   8
ENDBRANCH   1   4
BRANCH   1   9
ATOM      9  C   UNL     1       3.273   4.151  17.276  0.00  0.00    +0.000 C 
BRANCH   9  10
ATOM     10  C   UNL     1       4.787   4.279  17.194  0.00  0.00    +0.000 A 
ATOM     11  C   UNL     1       5.415   4.028  15.958  0.00  0.00    +0.000 A 
ATOM     12  C   UNL     1       6.777   4.294  15.765  0.00  0.00    +0.000 A 
ATOM     13  C   UNL     1       7.531   4.852  16.795  0.00  0.00    +0.000 A 
ATOM     14  C   UNL     1       6.925   5.080  18.034  0.00  0.00    +0.000 A 
ATOM     15  C   UNL     1       5.581   4.742  18.250  0.00  0.00    +0.000 A 
BRANCH  14  16
ATOM     16  N   UNL     1       7.675   5.774  19.092  0.00  0.00    +0.000 N 
ATOM     17  O   UNL     1       8.138   6.894  18.828  0.00  0.00    +0.000 OA
ATOM     18  O   UNL     1       7.762   5.224  20.199  0.00  0.00    +0.000 OA
ENDBRANCH  14  16
ENDBRANCH   9  10
ENDBRANCH   1   9
BRANCH   2  19
ATOM     19  C   UNL     1       2.461   6.717  18.324  0.00  0.00    +0.000 C 
BRANCH  19  20
ATOM     20  O   UNL     1       2.372   7.891  19.145  0.00  0.00    +0.000 OA
BRANCH  20  21
ATOM     21  C   UNL     1       1.736   8.929  18.520  0.00  0.00    +0.000 C 
ATOM     22  O   UNL     1       1.924   9.229  17.346  0.00  0.00    +0.000 OA
BRANCH  21  23
ATOM     23  C   UNL     1       0.861   9.615  19.447  0.00  0.00    +0.000 A 
ATOM     24  C   UNL     1      -0.104  10.585  19.220  0.00  0.00    +0.000 A 
ATOM     25  C   UNL     1      -0.746  11.012  20.425  0.00  0.00    +0.000 A 
ATOM     26  C   UNL     1      -0.244  10.350  21.523  0.00  0.00    +0.000 A 
ATOM     27  S   UNL     1       0.977   9.242  21.118  0.00  0.00    +0.000 S 
BRANCH  26  28
ATOM     28  N   UNL     1      -0.658  10.522  22.893  0.00  0.00    +0.000 N 
ATOM     29  O   UNL     1      -1.678  11.197  23.076  0.00  0.00    +0.000 OA
ATOM     30  O   UNL     1       0.016   9.988  23.784  0.00  0.00    +0.000 OA
ENDBRANCH  26  28
ENDBRANCH  21  23
ENDBRANCH  20  21
ENDBRANCH  19  20
ENDBRANCH   2  19
TORSDOF 10
ENDMDL
MODEL 2
REMARK VINA RESULT:      -8.3      1.833      2.205
REMARK  Name = 
REMARK  13 active torsions:
REMARK  status: ('A' for Active; 'I' for Inactive)
REMARK    1  A    between atoms: C_1  and  C_2
REMARK    2  A    between atoms: C_2  and  C_3
REMARK    3  A    between atoms: C_3  and  C_4
REMARK    4  A    between atoms: C_3  and  C_5
REMARK    5  A    between atoms: C_3  and  N_6
REMARK    6  A    between atoms: N_6  and  C_7
REMARK    7  A    between atoms: C_7  and  C_8
REMARK    8  A    between atoms: C_12  and  N_13
REMARK    9  A    between atoms: C_17  and  C_19
REMARK   10  A    between atoms: C_19  and  O_20
REMARK   11  A    between atoms: O_20  and  C_21
REMARK   12  A    between atoms: C_21  and  C_23
REMARK   13  A    between atoms: C_26  and  N_27
REMARK                            x       y       z     vdW  Elec       q    Type
REMARK                         _______ _______ _______ _____ _____    ______ ____
ROOT
ATOM      1  N   UNL     1       2.778   4.179  18.638  0.00  0.00    +0.000 N 
ATOM      2  C   UNL     1       2.529   5.412  19.276  0.00  0.00    +0.000 C 
ATOM      3  O   UNL     1       2.240   5.529  20.470  0.00  0.00    +0.000 OA
ENDROOT
BRANCH   1   4
ATOM      4  C   UNL     1       2.727   2.825  19.401  0.00  0.00    +0.000 C 
ATOM      5  C   UNL     1       3.878   2.763  20.435  0.00  0.00    +0.000 C 
ATOM      6  C   UNL     1       2.911   1.648  18.419  0.00  0.00    +0.000 C 
BRANCH   4   8
ATOM      7  C   UNL     1       1.417   2.530  21.703  0.00  0.00    +0.000 C 
ATOM      8  C   UNL     1       1.383   2.589  20.176  0.00  0.00    +0.000 C 
ENDBRANCH   4   8
ENDBRANCH   1   4
BRANCH   1   9
ATOM      9  C   UNL     1       3.216   4.179  17.222  0.00  0.00    +0.000 C 
BRANCH   9  10
ATOM     10  C   UNL     1       4.674   4.494  16.925  0.00  0.00    +0.000 A 
ATOM     11  C   UNL     1       5.598   4.466  17.989  0.00  0.00    +0.000 A 
ATOM     12  C   UNL     1       6.975   4.575  17.762  0.00  0.00    +0.000 A 
ATOM     13  C   UNL     1       7.462   4.676  16.461  0.00  0.00    +0.000 A 
ATOM     14  C   UNL     1       6.555   4.733  15.398  0.00  0.00    +0.000 A 
ATOM     15  C   UNL     1       5.172   4.702  15.633  0.00  0.00    +0.000 A 
BRANCH  14  16
ATOM     16  N   UNL     1       7.054   4.724  14.016  0.00  0.00    +0.000 N 
ATOM     17  O   UNL     1       6.545   3.913  13.226  0.00  0.00    +0.000 OA
ATOM     18  O   UNL     1       7.920   5.553  13.704  0.00  0.00    +0.000 OA
ENDBRANCH  14  16
ENDBRANCH   9  10
ENDBRANCH   1   9
BRANCH   2  19
ATOM     19  C   UNL     1       2.638   6.720  18.466  0.00  0.00    +0.000 C 
BRANCH  19  20
ATOM     20  O   UNL     1       2.367   7.864  19.291  0.00  0.00    +0.000 OA
BRANCH  20  21
ATOM     21  C   UNL     1       1.735   8.870  18.613  0.00  0.00    +0.000 C 
ATOM     22  O   UNL     1       1.902   9.089  17.418  0.00  0.00    +0.000 OA
BRANCH  21  23
ATOM     23  C   UNL     1       0.893   9.631  19.512  0.00  0.00    +0.000 A 
ATOM     24  C   UNL     1       0.044  10.698  19.258  0.00  0.00    +0.000 A 
ATOM     25  C   UNL     1      -0.607  11.174  20.439  0.00  0.00    +0.000 A 
ATOM     26  C   UNL     1      -0.227  10.450  21.548  0.00  0.00    +0.000 A 
ATOM     27  S   UNL     1       0.893   9.228  21.179  0.00  0.00    +0.000 S 
BRANCH  26  28
ATOM     28  N   UNL     1      -0.684  10.647  22.900  0.00  0.00    +0.000 N 
ATOM     29  O   UNL     1      -0.071  10.031  23.780  0.00  0.00    +0.000 OA
ATOM     30  O   UNL     1      -1.638  11.412  23.095  0.00  0.00    +0.000 OA
ENDBRANCH  26  28
ENDBRANCH  21  23
ENDBRANCH  20  21
ENDBRANCH  19  20
ENDBRANCH   2  19
TORSDOF 10
ENDMDL
MODEL 3
REMARK VINA RESULT:      -8.2      0.813      1.518
REMARK  Name = 
REMARK  13 active torsions:
REMARK  status: ('A' for Active; 'I' for Inactive)
REMARK    1  A    between atoms: C_1  and  C_2
REMARK    2  A    between atoms: C_2  and  C_3
REMARK    3  A    between atoms: C_3  and  C_4
REMARK    4  A    between atoms: C_3  and  C_5
REMARK    5  A    between atoms: C_3  and  N_6
REMARK    6  A    between atoms: N_6  and  C_7
REMARK    7  A    between atoms: C_7  and  C_8
REMARK    8  A    between atoms: C_12  and  N_13
REMARK    9  A    between atoms: C_17  and  C_19
REMARK   10  A    between atoms: C_19  and  O_20
REMARK   11  A    between atoms: O_20  and  C_21
REMARK   12  A    between atoms: C_21  and  C_23
REMARK   13  A    between atoms: C_26  and  N_27
REMARK                            x       y       z     vdW  Elec       q    Type
REMARK                         _______ _______ _______ _____ _____    ______ ____
ROOT
ATOM      1  N   UNL     1       2.448   4.649  18.789  0.00  0.00    +0.000 N 
ATOM      2  C   UNL     1       2.183   5.834  19.506  0.00  0.00    +0.000 C 
ATOM      3  O   UNL     1       1.729   5.863  20.652  0.00  0.00    +0.000 OA
ENDROOT
BRANCH   1   4
ATOM      4  C   UNL     1       2.203   3.239  19.397  0.00  0.00    +0.000 C 
ATOM      5  C   UNL     1       0.750   3.143  19.926  0.00  0.00    +0.000 C 
ATOM      6  C   UNL     1       3.155   2.993  20.587  0.00  0.00    +0.000 C 
BRANCH   4   8
ATOM      7  C   UNL     1       3.712   1.266  18.432  0.00  0.00    +0.000 C 
ATOM      8  C   UNL     1       2.411   2.066  18.375  0.00  0.00    +0.000 C 
ENDBRANCH   4   8
ENDBRANCH   1   4
BRANCH   1   9
ATOM      9  C   UNL     1       3.089   4.743  17.456  0.00  0.00    +0.000 C 
BRANCH   9  10
ATOM     10  C   UNL     1       4.604   4.628  17.382  0.00  0.00    +0.000 A 
ATOM     11  C   UNL     1       5.184   4.157  16.188  0.00  0.00    +0.000 A 
ATOM     12  C   UNL     1       6.570   4.188  15.987  0.00  0.00    +0.000 A 
ATOM     13  C   UNL     1       7.403   4.729  16.964  0.00  0.00    +0.000 A 
ATOM     14  C   UNL     1       6.843   5.176  18.165  0.00  0.00    +0.000 A 
ATOM     15  C   UNL     1       5.463   5.072  18.395  0.00  0.00    +0.000 A 
BRANCH  14  16
ATOM     16  N   UNL     1       7.692   5.853  19.155  0.00  0.00    +0.000 N 
ATOM     17  O   UNL     1       7.805   5.326  20.272  0.00  0.00    +0.000 OA
ATOM     18  O   UNL     1       8.284   6.884  18.806  0.00  0.00    +0.000 OA
ENDBRANCH  14  16
ENDBRANCH   9  10
ENDBRANCH   1   9
BRANCH   2  19
ATOM     19  C   UNL     1       2.490   7.198  18.855  0.00  0.00    +0.000 C 
BRANCH  19  20
ATOM     20  O   UNL     1       1.847   8.267  19.565  0.00  0.00    +0.000 OA
BRANCH  20  21
ATOM     21  C   UNL     1       1.456   9.290  18.744  0.00  0.00    +0.000 C 
ATOM     22  O   UNL     1       1.864   9.430  17.597  0.00  0.00    +0.000 OA
BRANCH  21  23
ATOM     23  C   UNL     1       0.540  10.170  19.439  0.00  0.00    +0.000 A 
ATOM     24  C   UNL     1      -0.469  10.985  18.947  0.00  0.00    +0.000 A 
ATOM     25  C   UNL     1      -1.142  11.709  19.980  0.00  0.00    +0.000 A 
ATOM     26  C   UNL     1      -0.620  11.416  21.221  0.00  0.00    +0.000 A 
ATOM     27  S   UNL     1       0.658  10.299  21.146  0.00  0.00    +0.000 S 
BRANCH  26  28
ATOM     28  N   UNL     1      -1.055  11.954  22.485  0.00  0.00    +0.000 N 
ATOM     29  O   UNL     1      -0.771  13.138  22.702  0.00  0.00    +0.000 OA
ATOM     30  O   UNL     1      -1.679  11.215  23.257  0.00  0.00    +0.000 OA
ENDBRANCH  26  28
ENDBRANCH  21  23
ENDBRANCH  20  21
ENDBRANCH  19  20
ENDBRANCH   2  19
TORSDOF 10
ENDMDL
MODEL 4
REMARK VINA RESULT:      -8.1      0.894      1.381
REMARK  Name = 
REMARK  13 active torsions:
REMARK  status: ('A' for Active; 'I' for Inactive)
REMARK    1  A    between atoms: C_1  and  C_2
REMARK    2  A    between atoms: C_2  and  C_3
REMARK    3  A    between atoms: C_3  and  C_4
REMARK    4  A    between atoms: C_3  and  C_5
REMARK    5  A    between atoms: C_3  and  N_6
REMARK    6  A    between atoms: N_6  and  C_7
REMARK    7  A    between atoms: C_7  and  C_8
REMARK    8  A    between atoms: C_12  and  N_13
REMARK    9  A    between atoms: C_17  and  C_19
REMARK   10  A    between atoms: C_19  and  O_20
REMARK   11  A    between atoms: O_20  and  C_21
REMARK   12  A    between atoms: C_21  and  C_23
REMARK   13  A    between atoms: C_26  and  N_27
REMARK                            x       y       z     vdW  Elec       q    Type
REMARK                         _______ _______ _______ _____ _____    ______ ____
ROOT
ATOM      1  N   UNL     1       2.452   4.610  18.803  0.00  0.00    +0.000 N 
ATOM      2  C   UNL     1       2.216   5.790  19.537  0.00  0.00    +0.000 C 
ATOM      3  O   UNL     1       1.767   5.814  20.686  0.00  0.00    +0.000 OA
ENDROOT
BRANCH   1   4
ATOM      4  C   UNL     1       2.178   3.197  19.393  0.00  0.00    +0.000 C 
ATOM      5  C   UNL     1       2.294   2.132  18.275  0.00  0.00    +0.000 C 
ATOM      6  C   UNL     1       0.747   3.124  19.968  0.00  0.00    +0.000 C 
BRANCH   4   8
ATOM      7  C   UNL     1       4.471   2.081  20.165  0.00  0.00    +0.000 C 
ATOM      8  C   UNL     1       3.170   2.790  20.538  0.00  0.00    +0.000 C 
ENDBRANCH   4   8
ENDBRANCH   1   4
BRANCH   1   9
ATOM      9  C   UNL     1       3.090   4.709  17.469  0.00  0.00    +0.000 C 
BRANCH   9  10
ATOM     10  C   UNL     1       4.605   4.591  17.390  0.00  0.00    +0.000 A 
ATOM     11  C   UNL     1       5.180   4.103  16.200  0.00  0.00    +0.000 A 
ATOM     12  C   UNL     1       6.565   4.131  15.994  0.00  0.00    +0.000 A 
ATOM     13  C   UNL     1       7.403   4.682  16.961  0.00  0.00    +0.000 A 
ATOM     14  C   UNL     1       6.847   5.145  18.158  0.00  0.00    +0.000 A 
ATOM     15  C   UNL     1       5.468   5.046  18.395  0.00  0.00    +0.000 A 
BRANCH  14  16
ATOM     16  N   UNL     1       7.701   5.833  19.136  0.00  0.00    +0.000 N 
ATOM     17  O   UNL     1       8.254   6.884  18.778  0.00  0.00    +0.000 OA
ATOM     18  O   UNL     1       7.784   5.353  20.275  0.00  0.00    +0.000 OA
ENDBRANCH  14  16
ENDBRANCH   9  10
ENDBRANCH   1   9
BRANCH   2  19
ATOM     19  C   UNL     1       2.550   7.157  18.903  0.00  0.00    +0.000 C 
BRANCH  19  20
ATOM     20  O   UNL     1       1.778   8.208  19.502  0.00  0.00    +0.000 OA
BRANCH  20  21
ATOM     21  C   UNL     1       1.562   9.258  18.652  0.00  0.00    +0.000 C 
ATOM     22  O   UNL     1       1.921   9.264  17.479  0.00  0.00    +0.000 OA
BRANCH  21  23
ATOM     23  C   UNL     1       0.895  10.340  19.346  0.00  0.00    +0.000 A 
ATOM     24  C   UNL     1       0.924  11.707  19.116  0.00  0.00    +0.000 A 
ATOM     25  C   UNL     1       0.121  12.437  20.047  0.00  0.00    +0.000 A 
ATOM     26  C   UNL     1      -0.489  11.596  20.951  0.00  0.00    +0.000 A 
ATOM     27  S   UNL     1      -0.101   9.963  20.692  0.00  0.00    +0.000 S 
BRANCH  26  28
ATOM     28  N   UNL     1      -1.370  11.982  22.024  0.00  0.00    +0.000 N 
ATOM     29  O   UNL     1      -2.523  12.292  21.701  0.00  0.00    +0.000 OA
ATOM     30  O   UNL     1      -0.930  11.975  23.181  0.00  0.00    +0.000 OA
ENDBRANCH  26  28
ENDBRANCH  21  23
ENDBRANCH  20  21
ENDBRANCH  19  20
ENDBRANCH   2  19
TORSDOF 10
ENDMDL
MODEL 5
REMARK VINA RESULT:      -8.0      3.692      8.072
REMARK  Name = 
REMARK  13 active torsions:
REMARK  status: ('A' for Active; 'I' for Inactive)
REMARK    1  A    between atoms: C_1  and  C_2
REMARK    2  A    between atoms: C_2  and  C_3
REMARK    3  A    between atoms: C_3  and  C_4
REMARK    4  A    between atoms: C_3  and  C_5
REMARK    5  A    between atoms: C_3  and  N_6
REMARK    6  A    between atoms: N_6  and  C_7
REMARK    7  A    between atoms: C_7  and  C_8
REMARK    8  A    between atoms: C_12  and  N_13
REMARK    9  A    between atoms: C_17  and  C_19
REMARK   10  A    between atoms: C_19  and  O_20
REMARK   11  A    between atoms: O_20  and  C_21
REMARK   12  A    between atoms: C_21  and  C_23
REMARK   13  A    between atoms: C_26  and  N_27
REMARK                            x       y       z     vdW  Elec       q    Type
REMARK                         _______ _______ _______ _____ _____    ______ ____
ROOT
ATOM      1  N   UNL     1       3.670   4.935  18.666  0.00  0.00    +0.000 N 
ATOM      2  C   UNL     1       5.074   4.966  18.791  0.00  0.00    +0.000 C 
ATOM      3  O   UNL     1       5.731   4.148  19.440  0.00  0.00    +0.000 OA
ENDROOT
BRANCH   1   4
ATOM      4  C   UNL     1       2.802   3.832  19.336  0.00  0.00    +0.000 C 
ATOM      5  C   UNL     1       2.666   4.121  20.851  0.00  0.00    +0.000 C 
ATOM      6  C   UNL     1       3.472   2.450  19.177  0.00  0.00    +0.000 C 
BRANCH   4   8
ATOM      7  C   UNL     1       0.592   2.408  18.898  0.00  0.00    +0.000 C 
ATOM      8  C   UNL     1       1.352   3.725  18.744  0.00  0.00    +0.000 C 
ENDBRANCH   4   8
ENDBRANCH   1   4
BRANCH   1   9
ATOM      9  C   UNL     1       3.006   5.915  17.774  0.00  0.00    +0.000 C 
BRANCH   9  10
ATOM     10  C   UNL     1       2.539   7.230  18.380  0.00  0.00    +0.000 A 
ATOM     11  C   UNL     1       2.407   8.350  17.535  0.00  0.00    +0.000 A 
ATOM     12  C   UNL     1       1.821   9.539  17.985  0.00  0.00    +0.000 A 
ATOM     13  C   UNL     1       1.318   9.621  19.282  0.00  0.00    +0.000 A 
ATOM     14  C   UNL     1       1.467   8.526  20.139  0.00  0.00    +0.000 A 
ATOM     15  C   UNL     1       2.124   7.363  19.711  0.00  0.00    +0.000 A 
BRANCH  14  16
ATOM     16  N   UNL     1       0.841   8.555  21.469  0.00  0.00    +0.000 N 
ATOM     17  O   UNL     1       1.525   8.969  22.418  0.00  0.00    +0.000 OA
ATOM     18  O   UNL     1      -0.345   8.209  21.561  0.00  0.00    +0.000 OA
ENDBRANCH  14  16
ENDBRANCH   9  10
ENDBRANCH   1   9
BRANCH   2  19
ATOM     19  C   UNL     1       5.875   6.066  18.065  0.00  0.00    +0.000 C 
BRANCH  19  20
ATOM     20  O   UNL     1       5.906   5.835  16.649  0.00  0.00    +0.000 OA
BRANCH  20  21
ATOM     21  C   UNL     1       6.953   5.043  16.263  0.00  0.00    +0.000 C 
ATOM     22  O   UNL     1       7.879   4.737  17.006  0.00  0.00    +0.000 OA
BRANCH  21  23
ATOM     23  C   UNL     1       6.814   4.667  14.871  0.00  0.00    +0.000 A 
ATOM     24  C   UNL     1       7.569   5.026  13.765  0.00  0.00    +0.000 A 
ATOM     25  C   UNL     1       7.086   4.434  12.556  0.00  0.00    +0.000 A 
ATOM     26  C   UNL     1       5.982   3.646  12.789  0.00  0.00    +0.000 A 
ATOM     27  S   UNL     1       5.529   3.621  14.426  0.00  0.00    +0.000 S 
BRANCH  26  28
ATOM     28  N   UNL     1       5.240   2.895  11.808  0.00  0.00    +0.000 N 
ATOM     29  O   UNL     1       5.730   1.814  11.461  0.00  0.00    +0.000 OA
ATOM     30  O   UNL     1       4.176   3.367  11.386  0.00  0.00    +0.000 OA
ENDBRANCH  26  28
ENDBRANCH  21  23
ENDBRANCH  20  21
ENDBRANCH  19  20
ENDBRANCH   2  19
TORSDOF 10
ENDMDL
MODEL 6
REMARK VINA RESULT:      -8.0      1.944      2.435
REMARK  Name = 
REMARK  13 active torsions:
REMARK  status: ('A' for Active; 'I' for Inactive)
REMARK    1  A    between atoms: C_1  and  C_2
REMARK    2  A    between atoms: C_2  and  C_3
REMARK    3  A    between atoms: C_3  and  C_4
REMARK    4  A    between atoms: C_3  and  C_5
REMARK    5  A    between atoms: C_3  and  N_6
REMARK    6  A    between atoms: N_6  and  C_7
REMARK    7  A    between atoms: C_7  and  C_8
REMARK    8  A    between atoms: C_12  and  N_13
REMARK    9  A    between atoms: C_17  and  C_19
REMARK   10  A    between atoms: C_19  and  O_20
REMARK   11  A    between atoms: O_20  and  C_21
REMARK   12  A    between atoms: C_21  and  C_23
REMARK   13  A    between atoms: C_26  and  N_27
REMARK                            x       y       z     vdW  Elec       q    Type
REMARK                         _______ _______ _______ _____ _____    ______ ____
ROOT
ATOM      1  N   UNL     1       2.554   3.951  18.358  0.00  0.00    +0.000 N 
ATOM      2  C   UNL     1       2.210   5.216  18.878  0.00  0.00    +0.000 C 
ATOM      3  O   UNL     1       1.774   5.402  20.017  0.00  0.00    +0.000 OA
ENDROOT
BRANCH   1   4
ATOM      4  C   UNL     1       2.427   2.647  19.195  0.00  0.00    +0.000 C 
ATOM      5  C   UNL     1       3.246   1.515  18.528  0.00  0.00    +0.000 C 
ATOM      6  C   UNL     1       0.954   2.190  19.258  0.00  0.00    +0.000 C 
BRANCH   4   8
ATOM      7  C   UNL     1       1.956   2.560  21.817  0.00  0.00    +0.000 C 
ATOM      8  C   UNL     1       2.940   2.794  20.671  0.00  0.00    +0.000 C 
ENDBRANCH   4   8
ENDBRANCH   1   4
BRANCH   1   9
ATOM      9  C   UNL     1       3.164   3.871  17.009  0.00  0.00    +0.000 C 
BRANCH   9  10
ATOM     10  C   UNL     1       4.603   4.336  16.847  0.00  0.00    +0.000 A 
ATOM     11  C   UNL     1       5.429   4.376  17.988  0.00  0.00    +0.000 A 
ATOM     12  C   UNL     1       6.803   4.626  17.887  0.00  0.00    +0.000 A 
ATOM     13  C   UNL     1       7.388   4.805  16.635  0.00  0.00    +0.000 A 
ATOM     14  C   UNL     1       6.575   4.796  15.497  0.00  0.00    +0.000 A 
ATOM     15  C   UNL     1       5.187   4.622  15.608  0.00  0.00    +0.000 A 
BRANCH  14  16
ATOM     16  N   UNL     1       7.191   4.868  14.165  0.00  0.00    +0.000 N 
ATOM     17  O   UNL     1       6.706   4.161  13.268  0.00  0.00    +0.000 OA
ATOM     18  O   UNL     1       8.128   5.662  13.999  0.00  0.00    +0.000 OA
ENDBRANCH  14  16
ENDBRANCH   9  10
ENDBRANCH   1   9
BRANCH   2  19
ATOM     19  C   UNL     1       2.401   6.473  18.004  0.00  0.00    +0.000 C 
BRANCH  19  20
ATOM     20  O   UNL     1       2.740   7.614  18.806  0.00  0.00    +0.000 OA
BRANCH  20  21
ATOM     21  C   UNL     1       1.958   8.704  18.536  0.00  0.00    +0.000 C 
ATOM     22  O   UNL     1       1.908   9.245  17.437  0.00  0.00    +0.000 OA
BRANCH  21  23
ATOM     23  C   UNL     1       1.250   9.123  19.727  0.00  0.00    +0.000 A 
ATOM     24  C   UNL     1       1.059   8.468  20.935  0.00  0.00    +0.000 A 
ATOM     25  C   UNL     1       0.284   9.237  21.858  0.00  0.00    +0.000 A 
ATOM     26  C   UNL     1      -0.086  10.448  21.318  0.00  0.00    +0.000 A 
ATOM     27  S   UNL     1       0.481  10.657  19.730  0.00  0.00    +0.000 S 
BRANCH  26  28
ATOM     28  N   UNL     1      -0.864  11.475  21.963  0.00  0.00    +0.000 N 
ATOM     29  O   UNL     1      -0.614  11.683  23.156  0.00  0.00    +0.000 OA
ATOM     30  O   UNL     1      -1.714  12.079  21.295  0.00  0.00    +0.000 OA
ENDBRANCH  26  28
ENDBRANCH  21  23
ENDBRANCH  20  21
ENDBRANCH  19  20
ENDBRANCH   2  19
TORSDOF 10
ENDMDL
MODEL 7
REMARK VINA RESULT:      -8.0      3.669      7.960
REMARK  Name = 
REMARK  13 active torsions:
REMARK  status: ('A' for Active; 'I' for Inactive)
REMARK    1  A    between atoms: C_1  and  C_2
REMARK    2  A    between atoms: C_2  and  C_3
REMARK    3  A    between atoms: C_3  and  C_4
REMARK    4  A    between atoms: C_3  and  C_5
REMARK    5  A    between atoms: C_3  and  N_6
REMARK    6  A    between atoms: N_6  and  C_7
REMARK    7  A    between atoms: C_7  and  C_8
REMARK    8  A    between atoms: C_12  and  N_13
REMARK    9  A    between atoms: C_17  and  C_19
REMARK   10  A    between atoms: C_19  and  O_20
REMARK   11  A    between atoms: O_20  and  C_21
REMARK   12  A    between atoms: C_21  and  C_23
REMARK   13  A    between atoms: C_26  and  N_27
REMARK                            x       y       z     vdW  Elec       q    Type
REMARK                         _______ _______ _______ _____ _____    ______ ____
ROOT
ATOM      1  N   UNL     1       3.687   4.644  18.459  0.00  0.00    +0.000 N 
ATOM      2  C   UNL     1       5.071   4.750  18.710  0.00  0.00    +0.000 C 
ATOM      3  O   UNL     1       5.727   3.916  19.338  0.00  0.00    +0.000 OA
ENDROOT
BRANCH   1   4
ATOM      4  C   UNL     1       2.846   3.431  18.949  0.00  0.00    +0.000 C 
ATOM      5  C   UNL     1       3.396   2.126  18.324  0.00  0.00    +0.000 C 
ATOM      6  C   UNL     1       1.375   3.584  18.506  0.00  0.00    +0.000 C 
BRANCH   4   8
ATOM      7  C   UNL     1       1.626   3.688  21.305  0.00  0.00    +0.000 C 
ATOM      8  C   UNL     1       2.853   3.248  20.508  0.00  0.00    +0.000 C 
ENDBRANCH   4   8
ENDBRANCH   1   4
BRANCH   1   9
ATOM      9  C   UNL     1       3.032   5.662  17.604  0.00  0.00    +0.000 C 
BRANCH   9  10
ATOM     10  C   UNL     1       2.628   6.981  18.245  0.00  0.00    +0.000 A 
ATOM     11  C   UNL     1       2.545   8.127  17.429  0.00  0.00    +0.000 A 
ATOM     12  C   UNL     1       2.016   9.330  17.912  0.00  0.00    +0.000 A 
ATOM     13  C   UNL     1       1.521   9.402  19.213  0.00  0.00    +0.000 A 
ATOM     14  C   UNL     1       1.622   8.280  20.041  0.00  0.00    +0.000 A 
ATOM     15  C   UNL     1       2.223   7.099  19.580  0.00  0.00    +0.000 A 
BRANCH  14  16
ATOM     16  N   UNL     1       1.002   8.303  21.374  0.00  0.00    +0.000 N 
ATOM     17  O   UNL     1      -0.093   7.736  21.509  0.00  0.00    +0.000 OA
ATOM     18  O   UNL     1       1.627   8.845  22.296  0.00  0.00    +0.000 OA
ENDBRANCH  14  16
ENDBRANCH   9  10
ENDBRANCH   1   9
BRANCH   2  19
ATOM     19  C   UNL     1       5.851   5.961  18.157  0.00  0.00    +0.000 C 
BRANCH  19  20
ATOM     20  O   UNL     1       5.990   5.880  16.731  0.00  0.00    +0.000 OA
BRANCH  20  21
ATOM     21  C   UNL     1       7.012   5.057  16.343  0.00  0.00    +0.000 C 
ATOM     22  O   UNL     1       7.928   4.721  17.085  0.00  0.00    +0.000 OA
BRANCH  21  23
ATOM     23  C   UNL     1       6.863   4.690  14.950  0.00  0.00    +0.000 A 
ATOM     24  C   UNL     1       7.606   5.061  13.840  0.00  0.00    +0.000 A 
ATOM     25  C   UNL     1       7.115   4.475  12.631  0.00  0.00    +0.000 A 
ATOM     26  C   UNL     1       6.016   3.679  12.869  0.00  0.00    +0.000 A 
ATOM     27  S   UNL     1       5.578   3.641  14.509  0.00  0.00    +0.000 S 
BRANCH  26  28
ATOM     28  N   UNL     1       5.269   2.932  11.890  0.00  0.00    +0.000 N 
ATOM     29  O   UNL     1       4.214   3.445  11.497  0.00  0.00    +0.000 OA
ATOM     30  O   UNL     1       5.723   1.846  11.504  0.00  0.00    +0.000 OA
ENDBRANCH  26  28
ENDBRANCH  21  23
ENDBRANCH  20  21
ENDBRANCH  19  20
ENDBRANCH   2  19
TORSDOF 10
ENDMDL
MODEL 8
REMARK VINA RESULT:      -8.0      0.586      1.444
REMARK  Name = 
REMARK  13 active torsions:
REMARK  status: ('A' for Active; 'I' for Inactive)
REMARK    1  A    between atoms: C_1  and  C_2
REMARK    2  A    between atoms: C_2  and  C_3
REMARK    3  A    between atoms: C_3  and  C_4
REMARK    4  A    between atoms: C_3  and  C_5
REMARK    5  A    between atoms: C_3  and  N_6
REMARK    6  A    between atoms: N_6  and  C_7
REMARK    7  A    between atoms: C_7  and  C_8
REMARK    8  A    between atoms: C_12  and  N_13
REMARK    9  A    between atoms: C_17  and  C_19
REMARK   10  A    between atoms: C_19  and  O_20
REMARK   11  A    between atoms: O_20  and  C_21
REMARK   12  A    between atoms: C_21  and  C_23
REMARK   13  A    between atoms: C_26  and  N_27
REMARK                            x       y       z     vdW  Elec       q    Type
REMARK                         _______ _______ _______ _____ _____    ______ ____
ROOT
ATOM      1  N   UNL     1       2.472   4.571  18.797  0.00  0.00    +0.000 N 
ATOM      2  C   UNL     1       2.281   5.809  19.444  0.00  0.00    +0.000 C 
ATOM      3  O   UNL     1       1.846   5.931  20.592  0.00  0.00    +0.000 OA
ENDROOT
BRANCH   1   4
ATOM      4  C   UNL     1       2.160   3.214  19.491  0.00  0.00    +0.000 C 
ATOM      5  C   UNL     1       0.825   2.645  18.951  0.00  0.00    +0.000 C 
ATOM      6  C   UNL     1       2.007   3.414  21.014  0.00  0.00    +0.000 C 
BRANCH   4   8
ATOM      7  C   UNL     1       4.462   2.083  20.214  0.00  0.00    +0.000 C 
ATOM      8  C   UNL     1       3.264   2.123  19.265  0.00  0.00    +0.000 C 
ENDBRANCH   4   8
ENDBRANCH   1   4
BRANCH   1   9
ATOM      9  C   UNL     1       3.098   4.551  17.453  0.00  0.00    +0.000 C 
BRANCH   9  10
ATOM     10  C   UNL     1       4.616   4.512  17.373  0.00  0.00    +0.000 A 
ATOM     11  C   UNL     1       5.214   4.084  16.171  0.00  0.00    +0.000 A 
ATOM     12  C   UNL     1       6.596   4.186  15.966  0.00  0.00    +0.000 A 
ATOM     13  C   UNL     1       7.406   4.756  16.946  0.00  0.00    +0.000 A 
ATOM     14  C   UNL     1       6.828   5.160  18.154  0.00  0.00    +0.000 A 
ATOM     15  C   UNL     1       5.456   4.986  18.388  0.00  0.00    +0.000 A 
BRANCH  14  16
ATOM     16  N   UNL     1       7.647   5.867  19.150  0.00  0.00    +0.000 N 
ATOM     17  O   UNL     1       7.743   5.361  20.279  0.00  0.00    +0.000 OA
ATOM     18  O   UNL     1       8.231   6.900  18.795  0.00  0.00    +0.000 OA
ENDBRANCH  14  16
ENDBRANCH   9  10
ENDBRANCH   1   9
BRANCH   2  19
ATOM     19  C   UNL     1       2.651   7.114  18.709  0.00  0.00    +0.000 C 
BRANCH  19  20
ATOM     20  O   UNL     1       1.476   7.824  18.291  0.00  0.00    +0.000 OA
BRANCH  20  21
ATOM     21  C   UNL     1       1.641   9.182  18.312  0.00  0.00    +0.000 C 
ATOM     22  O   UNL     1       2.428   9.778  17.585  0.00  0.00    +0.000 OA
BRANCH  21  23
ATOM     23  C   UNL     1       0.791   9.777  19.321  0.00  0.00    +0.000 A 
ATOM     24  C   UNL     1      -0.222  10.718  19.201  0.00  0.00    +0.000 A 
ATOM     25  C   UNL     1      -0.815  11.048  20.460  0.00  0.00    +0.000 A 
ATOM     26  C   UNL     1      -0.231  10.345  21.490  0.00  0.00    +0.000 A 
ATOM     27  S   UNL     1       1.010   9.314  20.959  0.00  0.00    +0.000 S 
BRANCH  26  28
ATOM     28  N   UNL     1      -0.578  10.421  22.887  0.00  0.00    +0.000 N 
ATOM     29  O   UNL     1       0.183   9.844  23.672  0.00  0.00    +0.000 OA
ATOM     30  O   UNL     1      -1.593  11.053  23.209  0.00  0.00    +0.000 OA
ENDBRANCH  26  28
ENDBRANCH  21  23
ENDBRANCH  20  21
ENDBRANCH  19  20
ENDBRANCH   2  19
TORSDOF 10
ENDMDL
MODEL 9
REMARK VINA RESULT:      -7.9      1.831      2.408
REMARK  Name = 
REMARK  13 active torsions:
REMARK  status: ('A' for Active; 'I' for Inactive)
REMARK    1  A    between atoms: C_1  and  C_2
REMARK    2  A    between atoms: C_2  and  C_3
REMARK    3  A    between atoms: C_3  and  C_4
REMARK    4  A    between atoms: C_3  and  C_5
REMARK    5  A    between atoms: C_3  and  N_6
REMARK    6  A    between atoms: N_6  and  C_7
REMARK    7  A    between atoms: C_7  and  C_8
REMARK    8  A    between atoms: C_12  and  N_13
REMARK    9  A    between atoms: C_17  and  C_19
REMARK   10  A    between atoms: C_19  and  O_20
REMARK   11  A    between atoms: O_20  and  C_21
REMARK   12  A    between atoms: C_21  and  C_23
REMARK   13  A    between atoms: C_26  and  N_27
REMARK                            x       y       z     vdW  Elec       q    Type
REMARK                         _______ _______ _______ _____ _____    ______ ____
ROOT
ATOM      1  N   UNL     1       2.476   4.484  18.671  0.00  0.00    +0.000 N 
ATOM      2  C   UNL     1       2.290   5.701  19.358  0.00  0.00    +0.000 C 
ATOM      3  O   UNL     1       1.938   5.786  20.537  0.00  0.00    +0.000 OA
ENDROOT
BRANCH   1   4
ATOM      4  C   UNL     1       2.264   3.104  19.357  0.00  0.00    +0.000 C 
ATOM      5  C   UNL     1       0.808   2.994  19.873  0.00  0.00    +0.000 C 
ATOM      6  C   UNL     1       3.207   2.957  20.570  0.00  0.00    +0.000 C 
BRANCH   4   8
ATOM      7  C   UNL     1       3.877   1.179  18.466  0.00  0.00    +0.000 C 
ATOM      8  C   UNL     1       2.521   1.882  18.407  0.00  0.00    +0.000 C 
ENDBRANCH   4   8
ENDBRANCH   1   4
BRANCH   1   9
ATOM      9  C   UNL     1       2.999   4.513  17.285  0.00  0.00    +0.000 C 
BRANCH   9  10
ATOM     10  C   UNL     1       4.494   4.723  17.090  0.00  0.00    +0.000 A 
ATOM     11  C   UNL     1       5.338   4.617  18.213  0.00  0.00    +0.000 A 
ATOM     12  C   UNL     1       6.732   4.626  18.080  0.00  0.00    +0.000 A 
ATOM     13  C   UNL     1       7.312   4.702  16.815  0.00  0.00    +0.000 A 
ATOM     14  C   UNL     1       6.485   4.834  15.695  0.00  0.00    +0.000 A 
ATOM     15  C   UNL     1       5.091   4.903  15.837  0.00  0.00    +0.000 A 
BRANCH  14  16
ATOM     16  N   UNL     1       7.075   4.798  14.349  0.00  0.00    +0.000 N 
ATOM     17  O   UNL     1       6.574   4.020  13.523  0.00  0.00    +0.000 OA
ATOM     18  O   UNL     1       8.005   5.578  14.101  0.00  0.00    +0.000 OA
ENDBRANCH  14  16
ENDBRANCH   9  10
ENDBRANCH   1   9
BRANCH   2  19
ATOM     19  C   UNL     1       2.559   7.033  18.626  0.00  0.00    +0.000 C 
BRANCH  19  20
ATOM     20  O   UNL     1       2.124   8.152  19.412  0.00  0.00    +0.000 OA
BRANCH  20  21
ATOM     21  C   UNL     1       1.639   9.180  18.650  0.00  0.00    +0.000 C 
ATOM     22  O   UNL     1       1.853   9.290  17.448  0.00  0.00    +0.000 OA
BRANCH  21  23
ATOM     23  C   UNL     1       0.886  10.105  19.472  0.00  0.00    +0.000 A 
ATOM     24  C   UNL     1       0.230  11.278  19.132  0.00  0.00    +0.000 A 
ATOM     25  C   UNL     1      -0.391  11.904  20.257  0.00  0.00    +0.000 A 
ATOM     26  C   UNL     1      -0.185  11.182  21.411  0.00  0.00    +0.000 A 
ATOM     27  S   UNL     1       0.743   9.784  21.151  0.00  0.00    +0.000 S 
BRANCH  26  28
ATOM     28  N   UNL     1      -0.669  11.511  22.728  0.00  0.00    +0.000 N 
ATOM     29  O   UNL     1      -0.654  12.710  23.034  0.00  0.00    +0.000 OA
ATOM     30  O   UNL     1      -1.067  10.592  23.457  0.00  0.00    +0.000 OA
ENDBRANCH  26  28
ENDBRANCH  21  23
ENDBRANCH  20  21
ENDBRANCH  19  20
ENDBRANCH   2  19
TORSDOF 10
ENDMDL
