MODEL 1
REMARK VINA RESULT:      -7.7      0.000      0.000
REMARK  Name = 
REMARK  6 active torsions:
REMARK  status: ('A' for Active; 'I' for Inactive)
REMARK    1  A    between atoms: C_1  and  N_2
REMARK    2  A    between atoms: C_7  and  O_8
REMARK    3  A    between atoms: O_8  and  C_9
REMARK    4  A    between atoms: C_9  and  C_11
REMARK    5  A    between atoms: C_11  and  C_13
REMARK    6  A    between atoms: C_11  and  C_19
REMARK                            x       y       z     vdW  Elec       q    Type
REMARK                         _______ _______ _______ _____ _____    ______ ____
ROOT
ATOM      1  C   UNL     1       5.533   5.206  16.017  0.00  0.00    +0.000 C 
ATOM      2 CL   UNL     1       4.290   6.498  15.564  0.00  0.00    +0.000 Cl
ENDROOT
BRANCH   1   3
ATOM      3  C   UNL     1       6.547   5.765  17.054  0.00  0.00    +0.000 A 
ATOM      4  C   UNL     1       6.897   7.133  17.028  0.00  0.00    +0.000 A 
ATOM      5  C   UNL     1       7.790   7.680  17.956  0.00  0.00    +0.000 A 
ATOM      6  C   UNL     1       8.374   6.870  18.923  0.00  0.00    +0.000 A 
ATOM      7  C   UNL     1       8.070   5.513  18.958  0.00  0.00    +0.000 A 
ATOM      8  C   UNL     1       7.173   4.965  18.032  0.00  0.00    +0.000 A 
ENDBRANCH   1   3
BRANCH   1   9
ATOM      9  C   UNL     1       6.204   4.877  14.645  0.00  0.00    +0.000 A 
ATOM     10  C   UNL     1       7.418   5.449  14.235  0.00  0.00    +0.000 A 
ATOM     11  C   UNL     1       7.986   5.148  12.991  0.00  0.00    +0.000 A 
ATOM     12  C   UNL     1       7.360   4.248  12.133  0.00  0.00    +0.000 A 
ATOM     13  C   UNL     1       6.173   3.643  12.518  0.00  0.00    +0.000 A 
ATOM     14  C   UNL     1       5.599   3.947  13.760  0.00  0.00    +0.000 A 
ENDBRANCH   1   9
BRANCH   1  15
ATOM     15  C   UNL     1       4.751   3.982  16.654  0.00  0.00    +0.000 C 
ATOM     16  O   UNL     1       5.177   2.833  16.701  0.00  0.00    +0.000 OA
BRANCH  15  17
ATOM     17  O   UNL     1       3.536   4.326  17.164  0.00  0.00    +0.000 OA
BRANCH  17  24
ATOM     18  C   UNL     1       2.733   2.561  21.454  0.00  0.00    +0.000 C 
ATOM     19  N   UNL     1       2.680   3.902  20.927  0.00  0.00    +0.000 NA
ATOM     20  C   UNL     1       1.348   4.443  20.694  0.00  0.00    +0.000 C 
ATOM     21  C   UNL     1       1.782   5.895  20.475  0.00  0.00    +0.000 C 
ATOM     22  C   UNL     1       3.156   5.806  19.783  0.00  0.00    +0.000 C 
ATOM     23  C   UNL     1       3.467   4.301  19.741  0.00  0.00    +0.000 C 
ATOM     24  C   UNL     1       2.993   3.704  18.375  0.00  0.00    +0.000 C 
ATOM     25  C   UNL     1       1.473   3.888  18.198  0.00  0.00    +0.000 C 
ATOM     26  C   UNL     1       0.685   3.745  19.494  0.00  0.00    +0.000 C 
ENDBRANCH  17  24
ENDBRANCH  15  17
ENDBRANCH   1  15
TORSDOF 5
ENDMDL
MODEL 2
REMARK VINA RESULT:      -7.4      1.318      1.981
REMARK  Name = 
REMARK  6 active torsions:
REMARK  status: ('A' for Active; 'I' for Inactive)
REMARK    1  A    between atoms: C_1  and  N_2
REMARK    2  A    between atoms: C_7  and  O_8
REMARK    3  A    between atoms: O_8  and  C_9
REMARK    4  A    between atoms: C_9  and  C_11
REMARK    5  A    between atoms: C_11  and  C_13
REMARK    6  A    between atoms: C_11  and  C_19
REMARK                            x       y       z     vdW  Elec       q    Type
REMARK                         _______ _______ _______ _____ _____    ______ ____
ROOT
ATOM      1  C   UNL     1       5.651   5.806  17.281  0.00  0.00    +0.000 C 
ATOM      2 CL   UNL     1       4.039   6.664  16.989  0.00  0.00    +0.000 Cl
ENDROOT
BRANCH   1   3
ATOM      3  C   UNL     1       6.735   6.822  17.740  0.00  0.00    +0.000 A 
ATOM      4  C   UNL     1       6.764   8.118  17.180  0.00  0.00    +0.000 A 
ATOM      5  C   UNL     1       7.709   9.069  17.581  0.00  0.00    +0.000 A 
ATOM      6  C   UNL     1       8.665   8.742  18.536  0.00  0.00    +0.000 A 
ATOM      7  C   UNL     1       8.679   7.465  19.086  0.00  0.00    +0.000 A 
ATOM      8  C   UNL     1       7.731   6.513  18.689  0.00  0.00    +0.000 A 
ENDBRANCH   1   3
BRANCH   1   9
ATOM      9  C   UNL     1       5.969   5.186  15.882  0.00  0.00    +0.000 A 
ATOM     10  C   UNL     1       7.219   5.318  15.257  0.00  0.00    +0.000 A 
ATOM     11  C   UNL     1       7.469   4.766  13.996  0.00  0.00    +0.000 A 
ATOM     12  C   UNL     1       6.475   4.050  13.333  0.00  0.00    +0.000 A 
ATOM     13  C   UNL     1       5.236   3.878  13.933  0.00  0.00    +0.000 A 
ATOM     14  C   UNL     1       4.983   4.434  15.194  0.00  0.00    +0.000 A 
ENDBRANCH   1   9
BRANCH   1  15
ATOM     15  C   UNL     1       5.427   4.726  18.419  0.00  0.00    +0.000 C 
ATOM     16  O   UNL     1       6.098   3.708  18.555  0.00  0.00    +0.000 OA
BRANCH  15  17
ATOM     17  O   UNL     1       4.404   5.036  19.263  0.00  0.00    +0.000 OA
BRANCH  17  24
ATOM     18  C   UNL     1       0.707   2.204  18.579  0.00  0.00    +0.000 C 
ATOM     19  N   UNL     1       1.640   2.341  19.670  0.00  0.00    +0.000 NA
ATOM     20  C   UNL     1       1.139   3.022  20.856  0.00  0.00    +0.000 C 
ATOM     21  C   UNL     1       2.298   2.644  21.781  0.00  0.00    +0.000 C 
ATOM     22  C   UNL     1       3.545   2.617  20.876  0.00  0.00    +0.000 C 
ATOM     23  C   UNL     1       2.999   2.884  19.464  0.00  0.00    +0.000 C 
ATOM     24  C   UNL     1       3.082   4.415  19.149  0.00  0.00    +0.000 C 
ATOM     25  C   UNL     1       2.239   5.224  20.154  0.00  0.00    +0.000 C 
ATOM     26  C   UNL     1       0.954   4.524  20.578  0.00  0.00    +0.000 C 
ENDBRANCH  17  24
ENDBRANCH  15  17
ENDBRANCH   1  15
TORSDOF 5
ENDMDL
MODEL 3
REMARK VINA RESULT:      -7.3      1.322      2.357
REMARK  Name = 
REMARK  6 active torsions:
REMARK  status: ('A' for Active; 'I' for Inactive)
REMARK    1  A    between atoms: C_1  and  N_2
REMARK    2  A    between atoms: C_7  and  O_8
REMARK    3  A    between atoms: O_8  and  C_9
REMARK    4  A    between atoms: C_9  and  C_11
REMARK    5  A    between atoms: C_11  and  C_13
REMARK    6  A    between atoms: C_11  and  C_19
REMARK                            x       y       z     vdW  Elec       q    Type
REMARK                         _______ _______ _______ _____ _____    ______ ____
ROOT
ATOM      1  C   UNL     1       5.607   5.792  17.274  0.00  0.00    +0.000 C 
ATOM      2 CL   UNL     1       3.974   6.620  17.009  0.00  0.00    +0.000 Cl
ENDROOT
BRANCH   1   3
ATOM      3  C   UNL     1       6.681   6.830  17.705  0.00  0.00    +0.000 A 
ATOM      4  C   UNL     1       7.648   6.479  18.673  0.00  0.00    +0.000 A 
ATOM      5  C   UNL     1       8.645   7.377  19.073  0.00  0.00    +0.000 A 
ATOM      6  C   UNL     1       8.688   8.657  18.533  0.00  0.00    +0.000 A 
ATOM      7  C   UNL     1       7.733   9.041  17.598  0.00  0.00    +0.000 A 
ATOM      8  C   UNL     1       6.737   8.143  17.194  0.00  0.00    +0.000 A 
ENDBRANCH   1   3
BRANCH   1   9
ATOM      9  C   UNL     1       5.908   5.170  15.873  0.00  0.00    +0.000 A 
ATOM     10  C   UNL     1       4.947   4.469  15.128  0.00  0.00    +0.000 A 
ATOM     11  C   UNL     1       5.253   3.907  13.883  0.00  0.00    +0.000 A 
ATOM     12  C   UNL     1       6.528   4.050  13.342  0.00  0.00    +0.000 A 
ATOM     13  C   UNL     1       7.495   4.760  14.039  0.00  0.00    +0.000 A 
ATOM     14  C   UNL     1       7.193   5.318  15.288  0.00  0.00    +0.000 A 
ENDBRANCH   1   9
BRANCH   1  15
ATOM     15  C   UNL     1       5.425   4.717  18.424  0.00  0.00    +0.000 C 
ATOM     16  O   UNL     1       6.120   3.715  18.556  0.00  0.00    +0.000 OA
BRANCH  15  17
ATOM     17  O   UNL     1       4.407   5.010  19.281  0.00  0.00    +0.000 OA
BRANCH  17  24
ATOM     18  C   UNL     1       0.702   2.191  18.584  0.00  0.00    +0.000 C 
ATOM     19  N   UNL     1       1.630   2.327  19.680  0.00  0.00    +0.000 NA
ATOM     20  C   UNL     1       1.125   3.013  20.861  0.00  0.00    +0.000 C 
ATOM     21  C   UNL     1       2.278   2.634  21.793  0.00  0.00    +0.000 C 
ATOM     22  C   UNL     1       3.529   2.599  20.895  0.00  0.00    +0.000 C 
ATOM     23  C   UNL     1       2.992   2.864  19.479  0.00  0.00    +0.000 C 
ATOM     24  C   UNL     1       3.083   4.394  19.161  0.00  0.00    +0.000 C 
ATOM     25  C   UNL     1       2.238   5.209  20.159  0.00  0.00    +0.000 C 
ATOM     26  C   UNL     1       0.948   4.515  20.577  0.00  0.00    +0.000 C 
ENDBRANCH  17  24
ENDBRANCH  15  17
ENDBRANCH   1  15
TORSDOF 5
ENDMDL
MODEL 4
REMARK VINA RESULT:      -7.2      0.869      1.443
REMARK  Name = 
REMARK  6 active torsions:
REMARK  status: ('A' for Active; 'I' for Inactive)
REMARK    1  A    between atoms: C_1  and  N_2
REMARK    2  A    between atoms: C_7  and  O_8
REMARK    3  A    between atoms: O_8  and  C_9
REMARK    4  A    between atoms: C_9  and  C_11
REMARK    5  A    between atoms: C_11  and  C_13
REMARK    6  A    between atoms: C_11  and  C_19
REMARK                            x       y       z     vdW  Elec       q    Type
REMARK                         _______ _______ _______ _____ _____    ______ ____
ROOT
ATOM      1  C   UNL     1       5.500   5.496  16.146  0.00  0.00    +0.000 C 
ATOM      2 CL   UNL     1       4.379   6.865  15.605  0.00  0.00    +0.000 Cl
ENDROOT
BRANCH   1   3
ATOM      3  C   UNL     1       6.563   6.026  17.149  0.00  0.00    +0.000 A 
ATOM      4  C   UNL     1       6.974   7.376  17.089  0.00  0.00    +0.000 A 
ATOM      5  C   UNL     1       7.912   7.897  17.986  0.00  0.00    +0.000 A 
ATOM      6  C   UNL     1       8.482   7.078  18.955  0.00  0.00    +0.000 A 
ATOM      7  C   UNL     1       8.117   5.738  19.022  0.00  0.00    +0.000 A 
ATOM      8  C   UNL     1       7.175   5.215  18.127  0.00  0.00    +0.000 A 
ENDBRANCH   1   3
BRANCH   1   9
ATOM      9  C   UNL     1       6.136   5.020  14.800  0.00  0.00    +0.000 A 
ATOM     10  C   UNL     1       7.387   5.466  14.349  0.00  0.00    +0.000 A 
ATOM     11  C   UNL     1       7.923   5.034  13.131  0.00  0.00    +0.000 A 
ATOM     12  C   UNL     1       7.225   4.126  12.340  0.00  0.00    +0.000 A 
ATOM     13  C   UNL     1       5.997   3.643  12.768  0.00  0.00    +0.000 A 
ATOM     14  C   UNL     1       5.456   4.078  13.984  0.00  0.00    +0.000 A 
ENDBRANCH   1   9
BRANCH   1  15
ATOM     15  C   UNL     1       4.611   4.393  16.857  0.00  0.00    +0.000 C 
ATOM     16  O   UNL     1       4.548   3.219  16.508  0.00  0.00    +0.000 OA
BRANCH  15  17
ATOM     17  O   UNL     1       3.908   4.871  17.921  0.00  0.00    +0.000 OA
BRANCH  17  24
ATOM     18  C   UNL     1       0.320   2.012  18.976  0.00  0.00    +0.000 C 
ATOM     19  N   UNL     1       1.582   2.271  19.624  0.00  0.00    +0.000 NA
ATOM     20  C   UNL     1       1.524   3.095  20.824  0.00  0.00    +0.000 C 
ATOM     21  C   UNL     1       2.955   2.822  21.295  0.00  0.00    +0.000 C 
ATOM     22  C   UNL     1       3.784   2.673  20.006  0.00  0.00    +0.000 C 
ATOM     23  C   UNL     1       2.751   2.773  18.872  0.00  0.00    +0.000 C 
ATOM     24  C   UNL     1       2.659   4.253  18.373  0.00  0.00    +0.000 C 
ATOM     25  C   UNL     1       2.213   5.186  19.516  0.00  0.00    +0.000 C 
ATOM     26  C   UNL     1       1.198   4.554  20.460  0.00  0.00    +0.000 C 
ENDBRANCH  17  24
ENDBRANCH  15  17
ENDBRANCH   1  15
TORSDOF 5
ENDMDL
MODEL 5
REMARK VINA RESULT:      -7.1      2.489      7.102
REMARK  Name = 
REMARK  6 active torsions:
REMARK  status: ('A' for Active; 'I' for Inactive)
REMARK    1  A    between atoms: C_1  and  N_2
REMARK    2  A    between atoms: C_7  and  O_8
REMARK    3  A    between atoms: O_8  and  C_9
REMARK    4  A    between atoms: C_9  and  C_11
REMARK    5  A    between atoms: C_11  and  C_13
REMARK    6  A    between atoms: C_11  and  C_19
REMARK                            x       y       z     vdW  Elec       q    Type
REMARK                         _______ _______ _______ _____ _____    ______ ____
ROOT
ATOM      1  C   UNL     1       2.434   6.256  18.996  0.00  0.00    +0.000 C 
ATOM      2 CL   UNL     1       1.633   6.335  17.331  0.00  0.00    +0.000 Cl
ENDROOT
BRANCH   1   3
ATOM      3  C   UNL     1       2.044   4.941  19.727  0.00  0.00    +0.000 A 
ATOM      4  C   UNL     1       1.298   3.954  19.047  0.00  0.00    +0.000 A 
ATOM      5  C   UNL     1       0.945   2.747  19.662  0.00  0.00    +0.000 A 
ATOM      6  C   UNL     1       1.309   2.504  20.982  0.00  0.00    +0.000 A 
ATOM      7  C   UNL     1       2.019   3.469  21.687  0.00  0.00    +0.000 A 
ATOM      8  C   UNL     1       2.378   4.676  21.071  0.00  0.00    +0.000 A 
ENDBRANCH   1   3
BRANCH   1   9
ATOM      9  C   UNL     1       1.868   7.526  19.711  0.00  0.00    +0.000 A 
ATOM     10  C   UNL     1       1.620   7.576  21.091  0.00  0.00    +0.000 A 
ATOM     11  C   UNL     1       1.096   8.722  21.700  0.00  0.00    +0.000 A 
ATOM     12  C   UNL     1       0.824   9.858  20.942  0.00  0.00    +0.000 A 
ATOM     13  C   UNL     1       1.082   9.852  19.579  0.00  0.00    +0.000 A 
ATOM     14  C   UNL     1       1.601   8.704  18.966  0.00  0.00    +0.000 A 
ENDBRANCH   1   9
BRANCH   1  15
ATOM     15  C   UNL     1       4.004   6.293  18.782  0.00  0.00    +0.000 C 
ATOM     16  O   UNL     1       4.825   5.838  19.572  0.00  0.00    +0.000 OA
BRANCH  15  17
ATOM     17  O   UNL     1       4.375   6.881  17.611  0.00  0.00    +0.000 OA
BRANCH  17  24
ATOM     18  C   UNL     1       7.151   5.351  14.131  0.00  0.00    +0.000 C 
ATOM     19  N   UNL     1       7.311   5.379  15.564  0.00  0.00    +0.000 NA
ATOM     20  C   UNL     1       7.147   4.104  16.248  0.00  0.00    +0.000 C 
ATOM     21  C   UNL     1       7.703   4.555  17.600  0.00  0.00    +0.000 C 
ATOM     22  C   UNL     1       7.282   6.030  17.739  0.00  0.00    +0.000 C 
ATOM     23  C   UNL     1       6.592   6.359  16.405  0.00  0.00    +0.000 C 
ATOM     24  C   UNL     1       5.049   6.139  16.543  0.00  0.00    +0.000 C 
ATOM     25  C   UNL     1       4.737   4.673  16.899  0.00  0.00    +0.000 C 
ATOM     26  C   UNL     1       5.670   3.670  16.233  0.00  0.00    +0.000 C 
ENDBRANCH  17  24
ENDBRANCH  15  17
ENDBRANCH   1  15
TORSDOF 5
ENDMDL
MODEL 6
REMARK VINA RESULT:      -7.1      5.290      7.744
REMARK  Name = 
REMARK  6 active torsions:
REMARK  status: ('A' for Active; 'I' for Inactive)
REMARK    1  A    between atoms: C_1  and  N_2
REMARK    2  A    between atoms: C_7  and  O_8
REMARK    3  A    between atoms: O_8  and  C_9
REMARK    4  A    between atoms: C_9  and  C_11
REMARK    5  A    between atoms: C_11  and  C_13
REMARK    6  A    between atoms: C_11  and  C_19
REMARK                            x       y       z     vdW  Elec       q    Type
REMARK                         _______ _______ _______ _____ _____    ______ ____
ROOT
ATOM      1  C   UNL     1       0.683  10.254  19.187  0.00  0.00    +0.000 C 
ATOM      2 CL   UNL     1       0.194   9.669  20.872  0.00  0.00    +0.000 Cl
ENDROOT
BRANCH   1   3
ATOM      3  C   UNL     1       1.454  11.600  19.279  0.00  0.00    +0.000 A 
ATOM      4  C   UNL     1       1.510  12.295  20.508  0.00  0.00    +0.000 A 
ATOM      5  C   UNL     1       2.211  13.499  20.638  0.00  0.00    +0.000 A 
ATOM      6  C   UNL     1       2.857  14.053  19.539  0.00  0.00    +0.000 A 
ATOM      7  C   UNL     1       2.796  13.407  18.309  0.00  0.00    +0.000 A 
ATOM      8  C   UNL     1       2.099  12.199  18.178  0.00  0.00    +0.000 A 
ENDBRANCH   1   3
BRANCH   1   9
ATOM      9  C   UNL     1      -0.693  10.404  18.461  0.00  0.00    +0.000 A 
ATOM     10  C   UNL     1      -1.055   9.630  17.348  0.00  0.00    +0.000 A 
ATOM     11  C   UNL     1      -2.289   9.799  16.709  0.00  0.00    +0.000 A 
ATOM     12  C   UNL     1      -3.202  10.738  17.182  0.00  0.00    +0.000 A 
ATOM     13  C   UNL     1      -2.888  11.501  18.297  0.00  0.00    +0.000 A 
ATOM     14  C   UNL     1      -1.651  11.337  18.935  0.00  0.00    +0.000 A 
ENDBRANCH   1   9
BRANCH   1  15
ATOM     15  C   UNL     1       1.625   9.152  18.545  0.00  0.00    +0.000 C 
ATOM     16  O   UNL     1       2.182   9.260  17.458  0.00  0.00    +0.000 OA
BRANCH  15  17
ATOM     17  O   UNL     1       1.773   8.047  19.328  0.00  0.00    +0.000 OA
BRANCH  17  24
ATOM     18  C   UNL     1       4.841   4.501  18.922  0.00  0.00    +0.000 C 
ATOM     19  N   UNL     1       3.574   4.619  19.600  0.00  0.00    +0.000 NA
ATOM     20  C   UNL     1       2.443   3.964  18.957  0.00  0.00    +0.000 C 
ATOM     21  C   UNL     1       1.476   4.078  20.138  0.00  0.00    +0.000 C 
ATOM     22  C   UNL     1       1.833   5.411  20.824  0.00  0.00    +0.000 C 
ATOM     23  C   UNL     1       3.054   5.928  20.046  0.00  0.00    +0.000 C 
ATOM     24  C   UNL     1       2.582   6.898  18.913  0.00  0.00    +0.000 C 
ATOM     25  C   UNL     1       1.652   6.169  17.923  0.00  0.00    +0.000 C 
ATOM     26  C   UNL     1       2.041   4.717  17.676  0.00  0.00    +0.000 C 
ENDBRANCH  17  24
ENDBRANCH  15  17
ENDBRANCH   1  15
TORSDOF 5
ENDMDL
MODEL 7
REMARK VINA RESULT:      -7.1      0.860      1.956
REMARK  Name = 
REMARK  6 active torsions:
REMARK  status: ('A' for Active; 'I' for Inactive)
REMARK    1  A    between atoms: C_1  and  N_2
REMARK    2  A    between atoms: C_7  and  O_8
REMARK    3  A    between atoms: O_8  and  C_9
REMARK    4  A    between atoms: C_9  and  C_11
REMARK    5  A    between atoms: C_11  and  C_13
REMARK    6  A    between atoms: C_11  and  C_19
REMARK                            x       y       z     vdW  Elec       q    Type
REMARK                         _______ _______ _______ _____ _____    ______ ____
ROOT
ATOM      1  C   UNL     1       5.459   5.520  16.106  0.00  0.00    +0.000 C 
ATOM      2 CL   UNL     1       4.375   6.906  15.538  0.00  0.00    +0.000 Cl
ENDROOT
BRANCH   1   3
ATOM      3  C   UNL     1       6.522   6.038  17.116  0.00  0.00    +0.000 A 
ATOM      4  C   UNL     1       7.066   5.157  18.076  0.00  0.00    +0.000 A 
ATOM      5  C   UNL     1       8.040   5.577  18.989  0.00  0.00    +0.000 A 
ATOM      6  C   UNL     1       8.481   6.896  18.981  0.00  0.00    +0.000 A 
ATOM      7  C   UNL     1       7.944   7.794  18.065  0.00  0.00    +0.000 A 
ATOM      8  C   UNL     1       6.972   7.374  17.148  0.00  0.00    +0.000 A 
ENDBRANCH   1   3
BRANCH   1   9
ATOM      9  C   UNL     1       6.100   5.016  14.773  0.00  0.00    +0.000 A 
ATOM     10  C   UNL     1       5.476   4.079  13.934  0.00  0.00    +0.000 A 
ATOM     11  C   UNL     1       6.084   3.634  12.755  0.00  0.00    +0.000 A 
ATOM     12  C   UNL     1       7.327   4.131  12.374  0.00  0.00    +0.000 A 
ATOM     13  C   UNL     1       7.960   5.078  13.165  0.00  0.00    +0.000 A 
ATOM     14  C   UNL     1       7.357   5.521  14.349  0.00  0.00    +0.000 A 
ENDBRANCH   1   9
BRANCH   1  15
ATOM     15  C   UNL     1       4.539   4.444  16.817  0.00  0.00    +0.000 C 
ATOM     16  O   UNL     1       4.470   3.263  16.492  0.00  0.00    +0.000 OA
BRANCH  15  17
ATOM     17  O   UNL     1       3.817   4.953  17.855  0.00  0.00    +0.000 OA
BRANCH  17  24
ATOM     18  C   UNL     1       0.317   2.026  19.012  0.00  0.00    +0.000 C 
ATOM     19  N   UNL     1       1.596   2.303  19.618  0.00  0.00    +0.000 NA
ATOM     20  C   UNL     1       1.566   3.119  20.825  0.00  0.00    +0.000 C 
ATOM     21  C   UNL     1       3.015   2.867  21.246  0.00  0.00    +0.000 C 
ATOM     22  C   UNL     1       3.802   2.740  19.927  0.00  0.00    +0.000 C 
ATOM     23  C   UNL     1       2.729   2.829  18.830  0.00  0.00    +0.000 C 
ATOM     24  C   UNL     1       2.595   4.311  18.345  0.00  0.00    +0.000 C 
ATOM     25  C   UNL     1       2.174   5.229  19.509  0.00  0.00    +0.000 C 
ATOM     26  C   UNL     1       1.202   4.574  20.483  0.00  0.00    +0.000 C 
ENDBRANCH  17  24
ENDBRANCH  15  17
ENDBRANCH   1  15
TORSDOF 5
ENDMDL
MODEL 8
REMARK VINA RESULT:      -7.0      5.330      7.850
REMARK  Name = 
REMARK  6 active torsions:
REMARK  status: ('A' for Active; 'I' for Inactive)
REMARK    1  A    between atoms: C_1  and  N_2
REMARK    2  A    between atoms: C_7  and  O_8
REMARK    3  A    between atoms: O_8  and  C_9
REMARK    4  A    between atoms: C_9  and  C_11
REMARK    5  A    between atoms: C_11  and  C_13
REMARK    6  A    between atoms: C_11  and  C_19
REMARK                            x       y       z     vdW  Elec       q    Type
REMARK                         _______ _______ _______ _____ _____    ______ ____
ROOT
ATOM      1  C   UNL     1       0.699  10.290  19.176  0.00  0.00    +0.000 C 
ATOM      2 CL   UNL     1       0.274   9.634  20.853  0.00  0.00    +0.000 Cl
ENDROOT
BRANCH   1   3
ATOM      3  C   UNL     1       1.451  11.645  19.295  0.00  0.00    +0.000 A 
ATOM      4  C   UNL     1       1.499  12.315  20.537  0.00  0.00    +0.000 A 
ATOM      5  C   UNL     1       2.183  13.526  20.691  0.00  0.00    +0.000 A 
ATOM      6  C   UNL     1       2.821  14.111  19.603  0.00  0.00    +0.000 A 
ATOM      7  C   UNL     1       2.769  13.488  18.361  0.00  0.00    +0.000 A 
ATOM      8  C   UNL     1       2.087  12.274  18.205  0.00  0.00    +0.000 A 
ENDBRANCH   1   3
BRANCH   1   9
ATOM      9  C   UNL     1      -0.703  10.444  18.502  0.00  0.00    +0.000 A 
ATOM     10  C   UNL     1      -1.131   9.629  17.443  0.00  0.00    +0.000 A 
ATOM     11  C   UNL     1      -2.386   9.802  16.847  0.00  0.00    +0.000 A 
ATOM     12  C   UNL     1      -3.253  10.787  17.311  0.00  0.00    +0.000 A 
ATOM     13  C   UNL     1      -2.872  11.594  18.374  0.00  0.00    +0.000 A 
ATOM     14  C   UNL     1      -1.615  11.425  18.968  0.00  0.00    +0.000 A 
ENDBRANCH   1   9
BRANCH   1  15
ATOM     15  C   UNL     1       1.636   9.229  18.463  0.00  0.00    +0.000 C 
ATOM     16  O   UNL     1       1.919   9.241  17.270  0.00  0.00    +0.000 OA
BRANCH  15  17
ATOM     17  O   UNL     1       2.120   8.280  19.313  0.00  0.00    +0.000 OA
BRANCH  17  24
ATOM     18  C   UNL     1       1.480   3.886  17.751  0.00  0.00    +0.000 C 
ATOM     19  N   UNL     1       2.656   4.609  18.168  0.00  0.00    +0.000 NA
ATOM     20  C   UNL     1       3.182   4.267  19.483  0.00  0.00    +0.000 C 
ATOM     21  C   UNL     1       4.517   5.002  19.336  0.00  0.00    +0.000 C 
ATOM     22  C   UNL     1       4.203   6.242  18.478  0.00  0.00    +0.000 C 
ATOM     23  C   UNL     1       2.721   6.084  18.103  0.00  0.00    +0.000 C 
ATOM     24  C   UNL     1       1.833   6.854  19.136  0.00  0.00    +0.000 C 
ATOM     25  C   UNL     1       2.035   6.289  20.556  0.00  0.00    +0.000 C 
ATOM     26  C   UNL     1       2.244   4.781  20.589  0.00  0.00    +0.000 C 
ENDBRANCH  17  24
ENDBRANCH  15  17
ENDBRANCH   1  15
TORSDOF 5
ENDMDL
MODEL 9
REMARK VINA RESULT:      -6.9      5.320      7.734
REMARK  Name = 
REMARK  6 active torsions:
REMARK  status: ('A' for Active; 'I' for Inactive)
REMARK    1  A    between atoms: C_1  and  N_2
REMARK    2  A    between atoms: C_7  and  O_8
REMARK    3  A    between atoms: O_8  and  C_9
REMARK    4  A    between atoms: C_9  and  C_11
REMARK    5  A    between atoms: C_11  and  C_13
REMARK    6  A    between atoms: C_11  and  C_19
REMARK                            x       y       z     vdW  Elec       q    Type
REMARK                         _______ _______ _______ _____ _____    ______ ____
ROOT
ATOM      1  C   UNL     1       0.580  10.253  19.196  0.00  0.00    +0.000 C 
ATOM      2 CL   UNL     1       0.056   9.611  20.848  0.00  0.00    +0.000 Cl
ENDROOT
BRANCH   1   3
ATOM      3  C   UNL     1       1.368  11.584  19.352  0.00  0.00    +0.000 A 
ATOM      4  C   UNL     1       2.000  12.162  18.230  0.00  0.00    +0.000 A 
ATOM      5  C   UNL     1       2.701  13.370  18.323  0.00  0.00    +0.000 A 
ATOM      6  C   UNL     1       2.807  14.022  19.547  0.00  0.00    +0.000 A 
ATOM      7  C   UNL     1       2.219  13.463  20.676  0.00  0.00    +0.000 A 
ATOM      8  C   UNL     1       1.513  12.256  20.583  0.00  0.00    +0.000 A 
ENDBRANCH   1   3
BRANCH   1   9
ATOM      9  C   UNL     1      -0.782  10.450  18.455  0.00  0.00    +0.000 A 
ATOM     10  C   UNL     1      -1.725  11.415  18.840  0.00  0.00    +0.000 A 
ATOM     11  C   UNL     1      -2.944  11.556  18.167  0.00  0.00    +0.000 A 
ATOM     12  C   UNL     1      -3.242  10.744  17.076  0.00  0.00    +0.000 A 
ATOM     13  C   UNL     1      -2.321   9.798  16.651  0.00  0.00    +0.000 A 
ATOM     14  C   UNL     1      -1.102   9.651  17.327  0.00  0.00    +0.000 A 
ENDBRANCH   1   9
BRANCH   1  15
ATOM     15  C   UNL     1       1.517   9.164  18.526  0.00  0.00    +0.000 C 
ATOM     16  O   UNL     1       2.129   9.323  17.475  0.00  0.00    +0.000 OA
BRANCH  15  17
ATOM     17  O   UNL     1       1.594   8.006  19.241  0.00  0.00    +0.000 OA
BRANCH  17  24
ATOM     18  C   UNL     1       5.014   4.775  19.103  0.00  0.00    +0.000 C 
ATOM     19  N   UNL     1       3.696   4.774  19.689  0.00  0.00    +0.000 NA
ATOM     20  C   UNL     1       2.683   4.006  18.978  0.00  0.00    +0.000 C 
ATOM     21  C   UNL     1       1.628   4.034  20.087  0.00  0.00    +0.000 C 
ATOM     22  C   UNL     1       1.804   5.401  20.777  0.00  0.00    +0.000 C 
ATOM     23  C   UNL     1       3.021   6.029  20.079  0.00  0.00    +0.000 C 
ATOM     24  C   UNL     1       2.539   6.939  18.901  0.00  0.00    +0.000 C 
ATOM     25  C   UNL     1       1.757   6.115  17.859  0.00  0.00    +0.000 C 
ATOM     26  C   UNL     1       2.302   4.706  17.661  0.00  0.00    +0.000 C 
ENDBRANCH  17  24
ENDBRANCH  15  17
ENDBRANCH   1  15
TORSDOF 5
ENDMDL
