MODEL 1
REMARK VINA RESULT:      -8.3      0.000      0.000
REMARK  Name = 
REMARK  10 active torsions:
REMARK  status: ('A' for Active; 'I' for Inactive)
REMARK    1  A    between atoms: C_1  and  C_2
REMARK    2  A    between atoms: C_2  and  C_3
REMARK    3  A    between atoms: C_2  and  C_4
REMARK    4  A    between atoms: C_7  and  C_8
REMARK    5  A    between atoms: C_8  and  N_9
REMARK    6  A    between atoms: N_9  and  C_10
REMARK    7  A    between atoms: C_10  and  C_11
REMARK    8  A    between atoms: C_10  and  C_17
REMARK    9  A    between atoms: C_17  and  C_18
REMARK   10  A    between atoms: C_18  and  O_19
REMARK                            x       y       z     vdW  Elec       q    Type
REMARK                         _______ _______ _______ _____ _____    ______ ____
ROOT
ATOM      1  C   UNL     1       3.342   6.035  17.861  0.00  0.00    +0.000 C 
ENDROOT
BRANCH   1   2
ATOM      2  C   UNL     1       2.413   4.975  18.541  0.00  0.00    +0.000 A 
ATOM      3  C   UNL     1       1.988   5.095  19.882  0.00  0.00    +0.000 A 
ATOM      4  C   UNL     1       1.230   4.097  20.507  0.00  0.00    +0.000 A 
ATOM      5  C   UNL     1       0.910   2.933  19.819  0.00  0.00    +0.000 A 
ATOM      6  C   UNL     1       1.287   2.801  18.488  0.00  0.00    +0.000 A 
ATOM      7  C   UNL     1       1.987   3.829  17.845  0.00  0.00    +0.000 A 
ENDBRANCH   1   2
BRANCH   1   8
ATOM      8  C   UNL     1       4.883   5.547  17.804  0.00  0.00    +0.000 C 
ATOM      9  C   UNL     1       5.858   6.738  17.568  0.00  0.00    +0.000 C 
ATOM     10  C   UNL     1       7.248   6.388  17.052  0.00  0.00    +0.000 C 
ATOM     11  O   UNL     1       7.153   5.609  15.869  0.00  0.00    +0.000 OA
ATOM     12  C   UNL     1       6.533   4.359  16.144  0.00  0.00    +0.000 C 
ATOM     13  C   UNL     1       5.097   4.564  16.607  0.00  0.00    +0.000 C 
BRANCH   8  14
ATOM     14  C   UNL     1       5.213   4.861  19.156  0.00  0.00    +0.000 C 
BRANCH  14  15
ATOM     15  O   UNL     1       5.486   3.473  19.023  0.00  0.00    +0.000 OA
ATOM     16  H   UNL     1       4.662   2.998  19.222  0.00  0.00    +0.000 HD
ENDBRANCH  14  15
ENDBRANCH   8  14
ENDBRANCH   1   8
BRANCH   1  17
ATOM     17  N   UNL     1       3.094   7.347  18.526  0.00  0.00    +0.000 NA
ATOM     18  H   UNL     1       2.398   7.152  19.255  0.00  0.00    +0.000 HD
BRANCH  17  19
ATOM     19  C   UNL     1       2.483   8.439  17.749  0.00  0.00    +0.000 C 
BRANCH  19  23
ATOM     20  C   UNL     1      -0.311  10.219  19.025  0.00  0.00    +0.000 A 
ATOM     21  N   UNL     1       0.147   9.720  20.181  0.00  0.00    +0.000 NA
ATOM     22  O   UNL     1       1.260   8.972  19.784  0.00  0.00    +0.000 OA
ATOM     23  C   UNL     1       1.349   9.109  18.432  0.00  0.00    +0.000 A 
ATOM     24  N   UNL     1       0.408   9.858  17.915  0.00  0.00    +0.000 NA
BRANCH  20  26
ATOM     25  C   UNL     1      -1.205  12.440  18.356  0.00  0.00    +0.000 C 
ATOM     26  C   UNL     1      -1.533  11.056  18.919  0.00  0.00    +0.000 C 
ATOM     27  C   UNL     1      -2.575  10.354  18.044  0.00  0.00    +0.000 C 
ENDBRANCH  20  26
ENDBRANCH  19  23
ENDBRANCH  17  19
ENDBRANCH   1  17
TORSDOF 8
ENDMDL
MODEL 2
REMARK VINA RESULT:      -8.2      2.964      6.974
REMARK  Name = 
REMARK  10 active torsions:
REMARK  status: ('A' for Active; 'I' for Inactive)
REMARK    1  A    between atoms: C_1  and  C_2
REMARK    2  A    between atoms: C_2  and  C_3
REMARK    3  A    between atoms: C_2  and  C_4
REMARK    4  A    between atoms: C_7  and  C_8
REMARK    5  A    between atoms: C_8  and  N_9
REMARK    6  A    between atoms: N_9  and  C_10
REMARK    7  A    between atoms: C_10  and  C_11
REMARK    8  A    between atoms: C_10  and  C_17
REMARK    9  A    between atoms: C_17  and  C_18
REMARK   10  A    between atoms: C_18  and  O_19
REMARK                            x       y       z     vdW  Elec       q    Type
REMARK                         _______ _______ _______ _____ _____    ______ ____
ROOT
ATOM      1  C   UNL     1       3.540   5.178  18.012  0.00  0.00    +0.000 C 
ENDROOT
BRANCH   1   2
ATOM      2  C   UNL     1       2.758   6.465  18.439  0.00  0.00    +0.000 A 
ATOM      3  C   UNL     1       2.395   7.468  17.514  0.00  0.00    +0.000 A 
ATOM      4  C   UNL     1       1.774   8.655  17.921  0.00  0.00    +0.000 A 
ATOM      5  C   UNL     1       1.534   8.888  19.269  0.00  0.00    +0.000 A 
ATOM      6  C   UNL     1       1.850   7.905  20.199  0.00  0.00    +0.000 A 
ATOM      7  C   UNL     1       2.410   6.691  19.783  0.00  0.00    +0.000 A 
ENDBRANCH   1   2
BRANCH   1   8
ATOM      8  C   UNL     1       2.927   3.841  18.686  0.00  0.00    +0.000 C 
ATOM      9  C   UNL     1       1.369   3.847  18.669  0.00  0.00    +0.000 C 
ATOM     10  C   UNL     1       0.674   2.904  19.643  0.00  0.00    +0.000 C 
ATOM     11  O   UNL     1       1.136   3.135  20.966  0.00  0.00    +0.000 OA
ATOM     12  C   UNL     1       2.519   2.823  21.071  0.00  0.00    +0.000 C 
ATOM     13  C   UNL     1       3.346   3.750  20.189  0.00  0.00    +0.000 C 
BRANCH   8  14
ATOM     14  C   UNL     1       3.454   2.622  17.885  0.00  0.00    +0.000 C 
BRANCH  14  15
ATOM     15  O   UNL     1       4.613   2.919  17.119  0.00  0.00    +0.000 OA
ATOM     16  H   UNL     1       4.810   2.135  16.580  0.00  0.00    +0.000 HD
ENDBRANCH  14  15
ENDBRANCH   8  14
ENDBRANCH   1   8
BRANCH   1  17
ATOM     17  N   UNL     1       4.990   5.428  18.256  0.00  0.00    +0.000 NA
ATOM     18  H   UNL     1       5.036   5.862  19.184  0.00  0.00    +0.000 HD
BRANCH  17  19
ATOM     19  C   UNL     1       5.706   6.383  17.392  0.00  0.00    +0.000 C 
BRANCH  19  23
ATOM     20  C   UNL     1       6.675   4.718  14.412  0.00  0.00    +0.000 A 
ATOM     21  N   UNL     1       7.800   5.415  14.619  0.00  0.00    +0.000 NA
ATOM     22  O   UNL     1       7.515   6.135  15.784  0.00  0.00    +0.000 OA
ATOM     23  C   UNL     1       6.250   5.786  16.148  0.00  0.00    +0.000 A 
ATOM     24  N   UNL     1       5.687   4.925  15.339  0.00  0.00    +0.000 NA
BRANCH  20  26
ATOM     25  C   UNL     1       4.982   3.712  12.893  0.00  0.00    +0.000 C 
ATOM     26  C   UNL     1       6.467   3.824  13.243  0.00  0.00    +0.000 C 
ATOM     27  C   UNL     1       7.263   4.340  12.041  0.00  0.00    +0.000 C 
ENDBRANCH  20  26
ENDBRANCH  19  23
ENDBRANCH  17  19
ENDBRANCH   1  17
TORSDOF 8
ENDMDL
MODEL 3
REMARK VINA RESULT:      -8.1      1.347      1.644
REMARK  Name = 
REMARK  10 active torsions:
REMARK  status: ('A' for Active; 'I' for Inactive)
REMARK    1  A    between atoms: C_1  and  C_2
REMARK    2  A    between atoms: C_2  and  C_3
REMARK    3  A    between atoms: C_2  and  C_4
REMARK    4  A    between atoms: C_7  and  C_8
REMARK    5  A    between atoms: C_8  and  N_9
REMARK    6  A    between atoms: N_9  and  C_10
REMARK    7  A    between atoms: C_10  and  C_11
REMARK    8  A    between atoms: C_10  and  C_17
REMARK    9  A    between atoms: C_17  and  C_18
REMARK   10  A    between atoms: C_18  and  O_19
REMARK                            x       y       z     vdW  Elec       q    Type
REMARK                         _______ _______ _______ _____ _____    ______ ____
ROOT
ATOM      1  C   UNL     1       3.177   6.052  17.890  0.00  0.00    +0.000 C 
ENDROOT
BRANCH   1   2
ATOM      2  C   UNL     1       2.278   4.980  18.592  0.00  0.00    +0.000 A 
ATOM      3  C   UNL     1       1.910   5.079  19.952  0.00  0.00    +0.000 A 
ATOM      4  C   UNL     1       1.180   4.071  20.592  0.00  0.00    +0.000 A 
ATOM      5  C   UNL     1       0.832   2.917  19.901  0.00  0.00    +0.000 A 
ATOM      6  C   UNL     1       1.152   2.805  18.553  0.00  0.00    +0.000 A 
ATOM      7  C   UNL     1       1.824   3.844  17.897  0.00  0.00    +0.000 A 
ENDBRANCH   1   2
BRANCH   1   8
ATOM      8  C   UNL     1       4.714   5.567  17.760  0.00  0.00    +0.000 C 
ATOM      9  C   UNL     1       5.671   6.755  17.446  0.00  0.00    +0.000 C 
ATOM     10  C   UNL     1       7.033   6.397  16.864  0.00  0.00    +0.000 C 
ATOM     11  O   UNL     1       6.876   5.593  15.704  0.00  0.00    +0.000 OA
ATOM     12  C   UNL     1       6.277   4.348  16.039  0.00  0.00    +0.000 C 
ATOM     13  C   UNL     1       4.867   4.559  16.575  0.00  0.00    +0.000 C 
BRANCH   8  14
ATOM     14  C   UNL     1       5.120   4.911  19.106  0.00  0.00    +0.000 C 
BRANCH  14  15
ATOM     15  O   UNL     1       5.369   3.517  18.993  0.00  0.00    +0.000 OA
ATOM     16  H   UNL     1       5.789   3.369  18.128  0.00  0.00    +0.000 HD
ENDBRANCH  14  15
ENDBRANCH   8  14
ENDBRANCH   1   8
BRANCH   1  17
ATOM     17  N   UNL     1       2.957   7.353  18.586  0.00  0.00    +0.000 NA
ATOM     18  H   UNL     1       2.424   7.119  19.431  0.00  0.00    +0.000 HD
BRANCH  17  19
ATOM     19  C   UNL     1       2.132   8.384  17.931  0.00  0.00    +0.000 C 
BRANCH  19  23
ATOM     20  C   UNL     1       0.288  10.049  20.465  0.00  0.00    +0.000 A 
ATOM     21  N   UNL     1      -0.411  10.475  19.404  0.00  0.00    +0.000 NA
ATOM     22  O   UNL     1       0.255   9.880  18.328  0.00  0.00    +0.000 OA
ATOM     23  C   UNL     1       1.278   9.159  18.864  0.00  0.00    +0.000 A 
ATOM     24  N   UNL     1       1.348   9.232  20.170  0.00  0.00    +0.000 NA
BRANCH  20  26
ATOM     25  C   UNL     1      -1.118  11.513  21.900  0.00  0.00    +0.000 C 
ATOM     26  C   UNL     1      -0.009  10.460  21.862  0.00  0.00    +0.000 C 
ATOM     27  C   UNL     1      -0.401   9.238  22.697  0.00  0.00    +0.000 C 
ENDBRANCH  20  26
ENDBRANCH  19  23
ENDBRANCH  17  19
ENDBRANCH   1  17
TORSDOF 8
ENDMDL
MODEL 4
REMARK VINA RESULT:      -8.1      3.556      7.065
REMARK  Name = 
REMARK  10 active torsions:
REMARK  status: ('A' for Active; 'I' for Inactive)
REMARK    1  A    between atoms: C_1  and  C_2
REMARK    2  A    between atoms: C_2  and  C_3
REMARK    3  A    between atoms: C_2  and  C_4
REMARK    4  A    between atoms: C_7  and  C_8
REMARK    5  A    between atoms: C_8  and  N_9
REMARK    6  A    between atoms: N_9  and  C_10
REMARK    7  A    between atoms: C_10  and  C_11
REMARK    8  A    between atoms: C_10  and  C_17
REMARK    9  A    between atoms: C_17  and  C_18
REMARK   10  A    between atoms: C_18  and  O_19
REMARK                            x       y       z     vdW  Elec       q    Type
REMARK                         _______ _______ _______ _____ _____    ______ ____
ROOT
ATOM      1  C   UNL     1       4.234   4.100  18.106  0.00  0.00    +0.000 C 
ENDROOT
BRANCH   1   2
ATOM      2  C   UNL     1       3.674   5.546  18.317  0.00  0.00    +0.000 A 
ATOM      3  C   UNL     1       2.996   5.928  19.495  0.00  0.00    +0.000 A 
ATOM      4  C   UNL     1       2.423   7.198  19.636  0.00  0.00    +0.000 A 
ATOM      5  C   UNL     1       2.478   8.106  18.587  0.00  0.00    +0.000 A 
ATOM      6  C   UNL     1       3.166   7.771  17.427  0.00  0.00    +0.000 A 
ATOM      7  C   UNL     1       3.796   6.525  17.314  0.00  0.00    +0.000 A 
ENDBRANCH   1   2
BRANCH   1   8
ATOM      8  C   UNL     1       3.210   2.967  18.640  0.00  0.00    +0.000 C 
ATOM      9  C   UNL     1       1.773   3.175  18.078  0.00  0.00    +0.000 C 
ATOM     10  C   UNL     1       0.641   2.482  18.827  0.00  0.00    +0.000 C 
ATOM     11  O   UNL     1       0.671   2.839  20.202  0.00  0.00    +0.000 OA
ATOM     12  C   UNL     1       1.864   2.367  20.813  0.00  0.00    +0.000 C 
ATOM     13  C   UNL     1       3.084   3.040  20.197  0.00  0.00    +0.000 C 
BRANCH   8  14
ATOM     14  C   UNL     1       3.754   1.586  18.189  0.00  0.00    +0.000 C 
BRANCH  14  15
ATOM     15  O   UNL     1       4.669   1.018  19.116  0.00  0.00    +0.000 OA
ATOM     16  H   UNL     1       5.563   1.259  18.822  0.00  0.00    +0.000 HD
ENDBRANCH  14  15
ENDBRANCH   8  14
ENDBRANCH   1   8
BRANCH   1  17
ATOM     17  N   UNL     1       5.611   4.060  18.678  0.00  0.00    +0.000 NA
ATOM     18  H   UNL     1       5.512   4.400  19.641  0.00  0.00    +0.000 HD
BRANCH  17  19
ATOM     19  C   UNL     1       6.649   4.936  18.107  0.00  0.00    +0.000 C 
BRANCH  19  23
ATOM     20  C   UNL     1       6.751   4.375  14.604  0.00  0.00    +0.000 A 
ATOM     21  N   UNL     1       7.455   5.515  14.639  0.00  0.00    +0.000 NA
ATOM     22  O   UNL     1       7.462   5.840  15.999  0.00  0.00    +0.000 OA
ATOM     23  C   UNL     1       6.763   4.856  16.630  0.00  0.00    +0.000 A 
ATOM     24  N   UNL     1       6.300   3.936  15.821  0.00  0.00    +0.000 NA
BRANCH  20  26
ATOM     25  C   UNL     1       4.933   3.770  13.020  0.00  0.00    +0.000 C 
ATOM     26  C   UNL     1       6.422   3.653  13.348  0.00  0.00    +0.000 C 
ATOM     27  C   UNL     1       7.269   4.195  12.194  0.00  0.00    +0.000 C 
ENDBRANCH  20  26
ENDBRANCH  19  23
ENDBRANCH  17  19
ENDBRANCH   1  17
TORSDOF 8
ENDMDL
MODEL 5
REMARK VINA RESULT:      -8.1      0.486      1.072
REMARK  Name = 
REMARK  10 active torsions:
REMARK  status: ('A' for Active; 'I' for Inactive)
REMARK    1  A    between atoms: C_1  and  C_2
REMARK    2  A    between atoms: C_2  and  C_3
REMARK    3  A    between atoms: C_2  and  C_4
REMARK    4  A    between atoms: C_7  and  C_8
REMARK    5  A    between atoms: C_8  and  N_9
REMARK    6  A    between atoms: N_9  and  C_10
REMARK    7  A    between atoms: C_10  and  C_11
REMARK    8  A    between atoms: C_10  and  C_17
REMARK    9  A    between atoms: C_17  and  C_18
REMARK   10  A    between atoms: C_18  and  O_19
REMARK                            x       y       z     vdW  Elec       q    Type
REMARK                         _______ _______ _______ _____ _____    ______ ____
ROOT
ATOM      1  C   UNL     1       3.397   5.871  17.839  0.00  0.00    +0.000 C 
ENDROOT
BRANCH   1   2
ATOM      2  C   UNL     1       2.514   4.824  18.597  0.00  0.00    +0.000 A 
ATOM      3  C   UNL     1       1.933   3.715  17.944  0.00  0.00    +0.000 A 
ATOM      4  C   UNL     1       1.074   2.834  18.613  0.00  0.00    +0.000 A 
ATOM      5  C   UNL     1       0.741   3.062  19.942  0.00  0.00    +0.000 A 
ATOM      6  C   UNL     1       1.323   4.126  20.620  0.00  0.00    +0.000 A 
ATOM      7  C   UNL     1       2.235   4.967  19.968  0.00  0.00    +0.000 A 
ENDBRANCH   1   2
BRANCH   1   8
ATOM      8  C   UNL     1       4.910   5.344  17.616  0.00  0.00    +0.000 C 
ATOM      9  C   UNL     1       5.930   6.520  17.562  0.00  0.00    +0.000 C 
ATOM     10  C   UNL     1       7.280   6.221  16.924  0.00  0.00    +0.000 C 
ATOM     11  O   UNL     1       7.101   5.686  15.620  0.00  0.00    +0.000 OA
ATOM     12  C   UNL     1       6.435   4.432  15.684  0.00  0.00    +0.000 C 
ATOM     13  C   UNL     1       5.030   4.599  16.247  0.00  0.00    +0.000 C 
BRANCH   8  14
ATOM     14  C   UNL     1       5.262   4.400  18.797  0.00  0.00    +0.000 C 
BRANCH  14  15
ATOM     15  O   UNL     1       6.087   5.017  19.775  0.00  0.00    +0.000 OA
ATOM     16  H   UNL     1       6.914   4.507  19.817  0.00  0.00    +0.000 HD
ENDBRANCH  14  15
ENDBRANCH   8  14
ENDBRANCH   1   8
BRANCH   1  17
ATOM     17  N   UNL     1       3.256   7.178  18.544  0.00  0.00    +0.000 NA
ATOM     18  H   UNL     1       2.527   7.024  19.250  0.00  0.00    +0.000 HD
BRANCH  17  19
ATOM     19  C   UNL     1       2.767   8.347  17.792  0.00  0.00    +0.000 C 
BRANCH  19  23
ATOM     20  C   UNL     1      -0.185  10.017  18.839  0.00  0.00    +0.000 A 
ATOM     21  N   UNL     1       0.305   9.712  20.048  0.00  0.00    +0.000 NA
ATOM     22  O   UNL     1       1.484   9.022  19.747  0.00  0.00    +0.000 OA
ATOM     23  C   UNL     1       1.572   8.994  18.388  0.00  0.00    +0.000 A 
ATOM     24  N   UNL     1       0.573   9.584  17.782  0.00  0.00    +0.000 NA
BRANCH  20  26
ATOM     25  C   UNL     1      -1.255  12.220  18.410  0.00  0.00    +0.000 C 
ATOM     26  C   UNL     1      -1.476  10.722  18.631  0.00  0.00    +0.000 C 
ATOM     27  C   UNL     1      -2.222  10.110  17.443  0.00  0.00    +0.000 C 
ENDBRANCH  20  26
ENDBRANCH  19  23
ENDBRANCH  17  19
ENDBRANCH   1  17
TORSDOF 8
ENDMDL
MODEL 6
REMARK VINA RESULT:      -8.0      1.398      1.901
REMARK  Name = 
REMARK  10 active torsions:
REMARK  status: ('A' for Active; 'I' for Inactive)
REMARK    1  A    between atoms: C_1  and  C_2
REMARK    2  A    between atoms: C_2  and  C_3
REMARK    3  A    between atoms: C_2  and  C_4
REMARK    4  A    between atoms: C_7  and  C_8
REMARK    5  A    between atoms: C_8  and  N_9
REMARK    6  A    between atoms: N_9  and  C_10
REMARK    7  A    between atoms: C_10  and  C_11
REMARK    8  A    between atoms: C_10  and  C_17
REMARK    9  A    between atoms: C_17  and  C_18
REMARK   10  A    between atoms: C_18  and  O_19
REMARK                            x       y       z     vdW  Elec       q    Type
REMARK                         _______ _______ _______ _____ _____    ______ ____
ROOT
ATOM      1  C   UNL     1       3.391   5.836  17.760  0.00  0.00    +0.000 C 
ENDROOT
BRANCH   1   2
ATOM      2  C   UNL     1       2.511   4.780  18.508  0.00  0.00    +0.000 A 
ATOM      3  C   UNL     1       2.060   3.597  17.884  0.00  0.00    +0.000 A 
ATOM      4  C   UNL     1       1.202   2.702  18.535  0.00  0.00    +0.000 A 
ATOM      5  C   UNL     1       0.738   2.987  19.813  0.00  0.00    +0.000 A 
ATOM      6  C   UNL     1       1.190   4.128  20.465  0.00  0.00    +0.000 A 
ATOM      7  C   UNL     1       2.102   4.987  19.838  0.00  0.00    +0.000 A 
ENDBRANCH   1   2
BRANCH   1   8
ATOM      8  C   UNL     1       4.922   5.343  17.590  0.00  0.00    +0.000 C 
ATOM      9  C   UNL     1       5.911   6.543  17.514  0.00  0.00    +0.000 C 
ATOM     10  C   UNL     1       7.284   6.257  16.917  0.00  0.00    +0.000 C 
ATOM     11  O   UNL     1       7.148   5.670  15.631  0.00  0.00    +0.000 OA
ATOM     12  C   UNL     1       6.514   4.401  15.728  0.00  0.00    +0.000 C 
ATOM     13  C   UNL     1       5.092   4.551  16.253  0.00  0.00    +0.000 C 
BRANCH   8  14
ATOM     14  C   UNL     1       5.271   4.454  18.813  0.00  0.00    +0.000 C 
BRANCH  14  15
ATOM     15  O   UNL     1       6.084   5.119  19.770  0.00  0.00    +0.000 OA
ATOM     16  H   UNL     1       5.681   4.971  20.642  0.00  0.00    +0.000 HD
ENDBRANCH  14  15
ENDBRANCH   8  14
ENDBRANCH   1   8
BRANCH   1  17
ATOM     17  N   UNL     1       3.198   7.150  18.439  0.00  0.00    +0.000 NA
ATOM     18  H   UNL     1       2.651   6.939  19.281  0.00  0.00    +0.000 HD
BRANCH  17  19
ATOM     19  C   UNL     1       2.405   8.194  17.766  0.00  0.00    +0.000 C 
BRANCH  19  23
ATOM     20  C   UNL     1       0.493   9.854  20.252  0.00  0.00    +0.000 A 
ATOM     21  N   UNL     1      -0.096  10.381  19.170  0.00  0.00    +0.000 NA
ATOM     22  O   UNL     1       0.606   9.795  18.112  0.00  0.00    +0.000 OA
ATOM     23  C   UNL     1       1.537   8.979  18.678  0.00  0.00    +0.000 A 
ATOM     24  N   UNL     1       1.515   8.981  19.987  0.00  0.00    +0.000 NA
BRANCH  20  26
ATOM     25  C   UNL     1      -0.909  11.345  21.664  0.00  0.00    +0.000 C 
ATOM     26  C   UNL     1       0.122  10.215  21.645  0.00  0.00    +0.000 C 
ATOM     27  C   UNL     1      -0.418   8.984  22.379  0.00  0.00    +0.000 C 
ENDBRANCH  20  26
ENDBRANCH  19  23
ENDBRANCH  17  19
ENDBRANCH   1  17
TORSDOF 8
ENDMDL
MODEL 7
REMARK VINA RESULT:      -7.9      3.008      6.720
REMARK  Name = 
REMARK  10 active torsions:
REMARK  status: ('A' for Active; 'I' for Inactive)
REMARK    1  A    between atoms: C_1  and  C_2
REMARK    2  A    between atoms: C_2  and  C_3
REMARK    3  A    between atoms: C_2  and  C_4
REMARK    4  A    between atoms: C_7  and  C_8
REMARK    5  A    between atoms: C_8  and  N_9
REMARK    6  A    between atoms: N_9  and  C_10
REMARK    7  A    between atoms: C_10  and  C_11
REMARK    8  A    between atoms: C_10  and  C_17
REMARK    9  A    between atoms: C_17  and  C_18
REMARK   10  A    between atoms: C_18  and  O_19
REMARK                            x       y       z     vdW  Elec       q    Type
REMARK                         _______ _______ _______ _____ _____    ______ ____
ROOT
ATOM      1  C   UNL     1       3.993   5.159  18.814  0.00  0.00    +0.000 C 
ENDROOT
BRANCH   1   2
ATOM      2  C   UNL     1       3.145   6.470  18.927  0.00  0.00    +0.000 A 
ATOM      3  C   UNL     1       2.446   6.816  20.104  0.00  0.00    +0.000 A 
ATOM      4  C   UNL     1       1.621   7.946  20.164  0.00  0.00    +0.000 A 
ATOM      5  C   UNL     1       1.441   8.738  19.037  0.00  0.00    +0.000 A 
ATOM      6  C   UNL     1       2.141   8.440  17.874  0.00  0.00    +0.000 A 
ATOM      7  C   UNL     1       3.018   7.349  17.836  0.00  0.00    +0.000 A 
ENDBRANCH   1   2
BRANCH   1   8
ATOM      8  C   UNL     1       3.109   3.836  19.106  0.00  0.00    +0.000 C 
ATOM      9  C   UNL     1       1.797   3.820  18.266  0.00  0.00    +0.000 C 
ATOM     10  C   UNL     1       0.687   2.899  18.755  0.00  0.00    +0.000 C 
ATOM     11  O   UNL     1       0.379   3.177  20.113  0.00  0.00    +0.000 OA
ATOM     12  C   UNL     1       1.495   2.887  20.946  0.00  0.00    +0.000 C 
ATOM     13  C   UNL     1       2.668   3.797  20.605  0.00  0.00    +0.000 C 
BRANCH   8  14
ATOM     14  C   UNL     1       3.975   2.599  18.747  0.00  0.00    +0.000 C 
BRANCH  14  15
ATOM     15  O   UNL     1       4.430   2.611  17.401  0.00  0.00    +0.000 OA
ATOM     16  H   UNL     1       3.643   2.647  16.832  0.00  0.00    +0.000 HD
ENDBRANCH  14  15
ENDBRANCH   8  14
ENDBRANCH   1   8
BRANCH   1  17
ATOM     17  N   UNL     1       5.210   5.333  19.659  0.00  0.00    +0.000 NA
ATOM     18  H   UNL     1       5.148   6.289  20.025  0.00  0.00    +0.000 HD
BRANCH  17  19
ATOM     19  C   UNL     1       6.536   5.293  19.019  0.00  0.00    +0.000 C 
BRANCH  19  23
ATOM     20  C   UNL     1       6.604   4.986  15.484  0.00  0.00    +0.000 A 
ATOM     21  N   UNL     1       6.220   6.268  15.560  0.00  0.00    +0.000 NA
ATOM     22  O   UNL     1       6.144   6.493  16.939  0.00  0.00    +0.000 OA
ATOM     23  C   UNL     1       6.495   5.320  17.536  0.00  0.00    +0.000 A 
ATOM     24  N   UNL     1       6.780   4.362  16.691  0.00  0.00    +0.000 NA
BRANCH  20  26
ATOM     25  C   UNL     1       5.423   3.886  13.592  0.00  0.00    +0.000 C 
ATOM     26  C   UNL     1       6.777   4.257  14.201  0.00  0.00    +0.000 C 
ATOM     27  C   UNL     1       7.590   5.107  13.221  0.00  0.00    +0.000 C 
ENDBRANCH  20  26
ENDBRANCH  19  23
ENDBRANCH  17  19
ENDBRANCH   1  17
TORSDOF 8
ENDMDL
MODEL 8
REMARK VINA RESULT:      -7.9      1.069      1.661
REMARK  Name = 
REMARK  10 active torsions:
REMARK  status: ('A' for Active; 'I' for Inactive)
REMARK    1  A    between atoms: C_1  and  C_2
REMARK    2  A    between atoms: C_2  and  C_3
REMARK    3  A    between atoms: C_2  and  C_4
REMARK    4  A    between atoms: C_7  and  C_8
REMARK    5  A    between atoms: C_8  and  N_9
REMARK    6  A    between atoms: N_9  and  C_10
REMARK    7  A    between atoms: C_10  and  C_11
REMARK    8  A    between atoms: C_10  and  C_17
REMARK    9  A    between atoms: C_17  and  C_18
REMARK   10  A    between atoms: C_18  and  O_19
REMARK                            x       y       z     vdW  Elec       q    Type
REMARK                         _______ _______ _______ _____ _____    ______ ____
ROOT
ATOM      1  C   UNL     1       3.366   5.913  17.796  0.00  0.00    +0.000 C 
ENDROOT
BRANCH   1   2
ATOM      2  C   UNL     1       2.504   4.826  18.521  0.00  0.00    +0.000 A 
ATOM      3  C   UNL     1       2.117   3.625  17.886  0.00  0.00    +0.000 A 
ATOM      4  C   UNL     1       1.273   2.700  18.513  0.00  0.00    +0.000 A 
ATOM      5  C   UNL     1       0.760   2.970  19.776  0.00  0.00    +0.000 A 
ATOM      6  C   UNL     1       1.150   4.128  20.438  0.00  0.00    +0.000 A 
ATOM      7  C   UNL     1       2.047   5.019  19.837  0.00  0.00    +0.000 A 
ENDBRANCH   1   2
BRANCH   1   8
ATOM      8  C   UNL     1       4.937   5.528  17.774  0.00  0.00    +0.000 C 
ATOM      9  C   UNL     1       5.837   6.782  17.566  0.00  0.00    +0.000 C 
ATOM     10  C   UNL     1       7.259   6.528  17.082  0.00  0.00    +0.000 C 
ATOM     11  O   UNL     1       7.242   5.751  15.893  0.00  0.00    +0.000 OA
ATOM     12  C   UNL     1       6.701   4.461  16.148  0.00  0.00    +0.000 C 
ATOM     13  C   UNL     1       5.244   4.568  16.578  0.00  0.00    +0.000 C 
BRANCH   8  14
ATOM     14  C   UNL     1       5.280   4.857  19.130  0.00  0.00    +0.000 C 
BRANCH  14  15
ATOM     15  O   UNL     1       5.598   3.478  19.003  0.00  0.00    +0.000 OA
ATOM     16  H   UNL     1       4.757   2.991  18.975  0.00  0.00    +0.000 HD
ENDBRANCH  14  15
ENDBRANCH   8  14
ENDBRANCH   1   8
BRANCH   1  17
ATOM     17  N   UNL     1       3.024   7.235  18.396  0.00  0.00    +0.000 NA
ATOM     18  H   UNL     1       2.297   7.035  19.092  0.00  0.00    +0.000 HD
BRANCH  17  19
ATOM     19  C   UNL     1       2.411   8.269  17.544  0.00  0.00    +0.000 C 
BRANCH  19  23
ATOM     20  C   UNL     1       1.231  11.240  19.087  0.00  0.00    +0.000 A 
ATOM     21  N   UNL     1       0.749  10.357  19.972  0.00  0.00    +0.000 NA
ATOM     22  O   UNL     1       1.151   9.127  19.441  0.00  0.00    +0.000 OA
ATOM     23  C   UNL     1       1.833   9.410  18.297  0.00  0.00    +0.000 A 
ATOM     24  N   UNL     1       1.907  10.690  18.029  0.00  0.00    +0.000 NA
BRANCH  20  26
ATOM     25  C   UNL     1      -0.283  13.121  18.496  0.00  0.00    +0.000 C 
ATOM     26  C   UNL     1       1.015  12.706  19.191  0.00  0.00    +0.000 C 
ATOM     27  C   UNL     1       0.995  13.130  20.662  0.00  0.00    +0.000 C 
ENDBRANCH  20  26
ENDBRANCH  19  23
ENDBRANCH  17  19
ENDBRANCH   1  17
TORSDOF 8
ENDMDL
MODEL 9
REMARK VINA RESULT:      -7.8      1.583      2.209
REMARK  Name = 
REMARK  10 active torsions:
REMARK  status: ('A' for Active; 'I' for Inactive)
REMARK    1  A    between atoms: C_1  and  C_2
REMARK    2  A    between atoms: C_2  and  C_3
REMARK    3  A    between atoms: C_2  and  C_4
REMARK    4  A    between atoms: C_7  and  C_8
REMARK    5  A    between atoms: C_8  and  N_9
REMARK    6  A    between atoms: N_9  and  C_10
REMARK    7  A    between atoms: C_10  and  C_11
REMARK    8  A    between atoms: C_10  and  C_17
REMARK    9  A    between atoms: C_17  and  C_18
REMARK   10  A    between atoms: C_18  and  O_19
REMARK                            x       y       z     vdW  Elec       q    Type
REMARK                         _______ _______ _______ _____ _____    ______ ____
ROOT
ATOM      1  C   UNL     1       3.090   6.179  17.921  0.00  0.00    +0.000 C 
ENDROOT
BRANCH   1   2
ATOM      2  C   UNL     1       2.238   5.106  18.676  0.00  0.00    +0.000 A 
ATOM      3  C   UNL     1       2.088   5.114  20.080  0.00  0.00    +0.000 A 
ATOM      4  C   UNL     1       1.396   4.099  20.752  0.00  0.00    +0.000 A 
ATOM      5  C   UNL     1       0.869   3.028  20.043  0.00  0.00    +0.000 A 
ATOM      6  C   UNL     1       0.972   3.009  18.657  0.00  0.00    +0.000 A 
ATOM      7  C   UNL     1       1.606   4.059  17.980  0.00  0.00    +0.000 A 
ENDBRANCH   1   2
BRANCH   1   8
ATOM      8  C   UNL     1       4.616   5.694  17.693  0.00  0.00    +0.000 C 
ATOM      9  C   UNL     1       5.310   5.316  19.035  0.00  0.00    +0.000 C 
ATOM     10  C   UNL     1       6.833   5.281  19.029  0.00  0.00    +0.000 C 
ATOM     11  O   UNL     1       7.351   6.516  18.556  0.00  0.00    +0.000 OA
ATOM     12  C   UNL     1       6.979   6.726  17.200  0.00  0.00    +0.000 C 
ATOM     13  C   UNL     1       5.467   6.850  17.073  0.00  0.00    +0.000 C 
BRANCH   8  14
ATOM     14  C   UNL     1       4.586   4.458  16.755  0.00  0.00    +0.000 C 
BRANCH  14  15
ATOM     15  O   UNL     1       4.906   3.246  17.421  0.00  0.00    +0.000 OA
ATOM     16  H   UNL     1       5.083   3.467  18.352  0.00  0.00    +0.000 HD
ENDBRANCH  14  15
ENDBRANCH   8  14
ENDBRANCH   1   8
BRANCH   1  17
ATOM     17  N   UNL     1       2.916   7.479  18.632  0.00  0.00    +0.000 NA
ATOM     18  H   UNL     1       2.382   7.252  19.479  0.00  0.00    +0.000 HD
BRANCH  17  19
ATOM     19  C   UNL     1       2.118   8.541  17.995  0.00  0.00    +0.000 C 
BRANCH  19  23
ATOM     20  C   UNL     1       0.091  10.023  20.504  0.00  0.00    +0.000 A 
ATOM     21  N   UNL     1      -0.181  10.875  19.506  0.00  0.00    +0.000 NA
ATOM     22  O   UNL     1       0.595  10.384  18.451  0.00  0.00    +0.000 OA
ATOM     23  C   UNL     1       1.244   9.288  18.933  0.00  0.00    +0.000 A 
ATOM     24  N   UNL     1       0.976   9.025  20.188  0.00  0.00    +0.000 NA
BRANCH  20  26
ATOM     25  C   UNL     1       0.395   9.415  22.895  0.00  0.00    +0.000 C 
ATOM     26  C   UNL     1      -0.467  10.160  21.873  0.00  0.00    +0.000 C 
ATOM     27  C   UNL     1      -0.584  11.640  22.247  0.00  0.00    +0.000 C 
ENDBRANCH  20  26
ENDBRANCH  19  23
ENDBRANCH  17  19
ENDBRANCH   1  17
TORSDOF 8
ENDMDL
