MODEL 1
REMARK VINA RESULT:      -8.1      0.000      0.000
REMARK  Name = 
REMARK  3 active torsions:
REMARK  status: ('A' for Active; 'I' for Inactive)
REMARK    1  A    between atoms: C_1  and  C_2
REMARK    2  A    between atoms: C_5  and  C_6
REMARK    3  A    between atoms: N_11  and  C_12
REMARK                            x       y       z     vdW  Elec       q    Type
REMARK                         _______ _______ _______ _____ _____    ______ ____
ROOT
ATOM      1  C   UNL     1       5.612   4.771  15.478  0.00  0.00    +0.000 A 
ATOM      2  C   UNL     1       5.588   6.070  15.937  0.00  0.00    +0.000 A 
ATOM      3  C   UNL     1       5.035   6.248  17.174  0.00  0.00    +0.000 A 
ATOM      4  N   UNL     1       4.531   5.243  17.901  0.00  0.00    +0.000 NA
ATOM      5  C   UNL     1       4.603   4.001  17.391  0.00  0.00    +0.000 A 
ATOM      6  N   UNL     1       4.161   2.921  18.153  0.00  0.00    +0.000 N 
ATOM      7  N   UNL     1       5.141   3.724  16.193  0.00  0.00    +0.000 NA
ATOM      8  H   UNL     1       4.401   2.043  17.720  0.00  0.00    +0.000 HD
ENDROOT
BRANCH   1  13
ATOM      9  C   UNL     1       5.678   2.230  11.407  0.00  0.00    +0.000 C 
ATOM     10  C   UNL     1       6.207   3.274  12.306  0.00  0.00    +0.000 A 
ATOM     11  C   UNL     1       7.219   4.202  12.201  0.00  0.00    +0.000 A 
ATOM     12  C   UNL     1       7.202   4.947  13.406  0.00  0.00    +0.000 A 
ATOM     13  C   UNL     1       6.175   4.437  14.176  0.00  0.00    +0.000 A 
ATOM     14  O   UNL     1       5.581   3.399  13.508  0.00  0.00    +0.000 OA
ENDBRANCH   1  13
BRANCH   6  15
ATOM     15  C   UNL     1       3.164   2.878  19.138  0.00  0.00    +0.000 A 
ATOM     16  C   UNL     1       1.810   3.092  18.846  0.00  0.00    +0.000 A 
ATOM     17  C   UNL     1       0.842   3.081  19.853  0.00  0.00    +0.000 A 
ATOM     18  C   UNL     1       1.218   2.882  21.178  0.00  0.00    +0.000 A 
ATOM     19  C   UNL     1       2.561   2.689  21.492  0.00  0.00    +0.000 A 
ATOM     20  C   UNL     1       3.526   2.681  20.478  0.00  0.00    +0.000 A 
ENDBRANCH   6  15
TORSDOF 2
ENDMDL
MODEL 2
REMARK VINA RESULT:      -8.1      0.081      1.106
REMARK  Name = 
REMARK  3 active torsions:
REMARK  status: ('A' for Active; 'I' for Inactive)
REMARK    1  A    between atoms: C_1  and  C_2
REMARK    2  A    between atoms: C_5  and  C_6
REMARK    3  A    between atoms: N_11  and  C_12
REMARK                            x       y       z     vdW  Elec       q    Type
REMARK                         _______ _______ _______ _____ _____    ______ ____
ROOT
ATOM      1  C   UNL     1       5.602   4.815  15.462  0.00  0.00    +0.000 A 
ATOM      2  C   UNL     1       5.561   6.127  15.882  0.00  0.00    +0.000 A 
ATOM      3  C   UNL     1       5.018   6.332  17.119  0.00  0.00    +0.000 A 
ATOM      4  N   UNL     1       4.540   5.341  17.881  0.00  0.00    +0.000 NA
ATOM      5  C   UNL     1       4.627   4.086  17.408  0.00  0.00    +0.000 A 
ATOM      6  N   UNL     1       4.211   3.022  18.207  0.00  0.00    +0.000 N 
ATOM      7  N   UNL     1       5.156   3.782  16.212  0.00  0.00    +0.000 NA
ATOM      8  H   UNL     1       4.461   2.136  17.797  0.00  0.00    +0.000 HD
ENDROOT
BRANCH   1  13
ATOM      9  C   UNL     1       5.591   2.241  11.411  0.00  0.00    +0.000 C 
ATOM     10  C   UNL     1       6.153   3.273  12.303  0.00  0.00    +0.000 A 
ATOM     11  C   UNL     1       7.198   4.164  12.194  0.00  0.00    +0.000 A 
ATOM     12  C   UNL     1       7.203   4.919  13.393  0.00  0.00    +0.000 A 
ATOM     13  C   UNL     1       6.156   4.451  14.164  0.00  0.00    +0.000 A 
ATOM     14  O   UNL     1       5.529   3.429  13.502  0.00  0.00    +0.000 OA
ENDBRANCH   1  13
BRANCH   6  15
ATOM     15  C   UNL     1       3.226   2.992  19.204  0.00  0.00    +0.000 A 
ATOM     16  C   UNL     1       3.528   2.758  20.552  0.00  0.00    +0.000 A 
ATOM     17  C   UNL     1       2.521   2.695  21.519  0.00  0.00    +0.000 A 
ATOM     18  C   UNL     1       1.189   2.839  21.147  0.00  0.00    +0.000 A 
ATOM     19  C   UNL     1       0.865   3.052  19.809  0.00  0.00    +0.000 A 
ATOM     20  C   UNL     1       1.878   3.134  18.846  0.00  0.00    +0.000 A 
ENDBRANCH   6  15
TORSDOF 2
ENDMDL
MODEL 3
REMARK VINA RESULT:      -7.8      1.251      2.027
REMARK  Name = 
REMARK  3 active torsions:
REMARK  status: ('A' for Active; 'I' for Inactive)
REMARK    1  A    between atoms: C_1  and  C_2
REMARK    2  A    between atoms: C_5  and  C_6
REMARK    3  A    between atoms: N_11  and  C_12
REMARK                            x       y       z     vdW  Elec       q    Type
REMARK                         _______ _______ _______ _____ _____    ______ ____
ROOT
ATOM      1  C   UNL     1       6.332   4.533  16.012  0.00  0.00    +0.000 A 
ATOM      2  C   UNL     1       7.069   5.293  16.894  0.00  0.00    +0.000 A 
ATOM      3  C   UNL     1       6.683   5.216  18.202  0.00  0.00    +0.000 A 
ATOM      4  N   UNL     1       5.652   4.469  18.618  0.00  0.00    +0.000 NA
ATOM      5  C   UNL     1       4.990   3.744  17.699  0.00  0.00    +0.000 A 
ATOM      6  N   UNL     1       3.964   2.895  18.107  0.00  0.00    +0.000 N 
ATOM      7  N   UNL     1       5.303   3.743  16.394  0.00  0.00    +0.000 NA
ATOM      8  H   UNL     1       3.650   2.308  17.350  0.00  0.00    +0.000 HD
ENDROOT
BRANCH   1  13
ATOM      9  C   UNL     1       8.694   6.144  12.156  0.00  0.00    +0.000 C 
ATOM     10  C   UNL     1       7.718   5.255  12.815  0.00  0.00    +0.000 A 
ATOM     11  C   UNL     1       6.931   4.211  12.380  0.00  0.00    +0.000 A 
ATOM     12  C   UNL     1       6.231   3.740  13.519  0.00  0.00    +0.000 A 
ATOM     13  C   UNL     1       6.634   4.519  14.586  0.00  0.00    +0.000 A 
ATOM     14  O   UNL     1       7.529   5.458  14.147  0.00  0.00    +0.000 OA
ENDBRANCH   1  13
BRANCH   6  15
ATOM     15  C   UNL     1       3.100   3.009  19.206  0.00  0.00    +0.000 A 
ATOM     16  C   UNL     1       3.433   2.522  20.477  0.00  0.00    +0.000 A 
ATOM     17  C   UNL     1       2.538   2.615  21.545  0.00  0.00    +0.000 A 
ATOM     18  C   UNL     1       1.279   3.174  21.351  0.00  0.00    +0.000 A 
ATOM     19  C   UNL     1       0.920   3.645  20.091  0.00  0.00    +0.000 A 
ATOM     20  C   UNL     1       1.827   3.568  19.028  0.00  0.00    +0.000 A 
ENDBRANCH   6  15
TORSDOF 2
ENDMDL
MODEL 4
REMARK VINA RESULT:      -7.7      1.223      1.691
REMARK  Name = 
REMARK  3 active torsions:
REMARK  status: ('A' for Active; 'I' for Inactive)
REMARK    1  A    between atoms: C_1  and  C_2
REMARK    2  A    between atoms: C_5  and  C_6
REMARK    3  A    between atoms: N_11  and  C_12
REMARK                            x       y       z     vdW  Elec       q    Type
REMARK                         _______ _______ _______ _____ _____    ______ ____
ROOT
ATOM      1  C   UNL     1       6.270   4.629  16.026  0.00  0.00    +0.000 A 
ATOM      2  C   UNL     1       6.907   5.492  16.891  0.00  0.00    +0.000 A 
ATOM      3  C   UNL     1       6.486   5.442  18.190  0.00  0.00    +0.000 A 
ATOM      4  N   UNL     1       5.513   4.625  18.612  0.00  0.00    +0.000 NA
ATOM      5  C   UNL     1       4.948   3.802  17.711  0.00  0.00    +0.000 A 
ATOM      6  N   UNL     1       3.987   2.884  18.130  0.00  0.00    +0.000 N 
ATOM      7  N   UNL     1       5.302   3.768  16.417  0.00  0.00    +0.000 NA
ATOM      8  H   UNL     1       3.751   2.237  17.394  0.00  0.00    +0.000 HD
ENDROOT
BRANCH   1  13
ATOM      9  C   UNL     1       8.756   6.136  12.207  0.00  0.00    +0.000 C 
ATOM     10  C   UNL     1       7.760   5.264  12.858  0.00  0.00    +0.000 A 
ATOM     11  C   UNL     1       6.990   4.206  12.427  0.00  0.00    +0.000 A 
ATOM     12  C   UNL     1       6.252   3.766  13.555  0.00  0.00    +0.000 A 
ATOM     13  C   UNL     1       6.619   4.576  14.612  0.00  0.00    +0.000 A 
ATOM     14  O   UNL     1       7.527   5.504  14.177  0.00  0.00    +0.000 OA
ENDBRANCH   1  13
BRANCH   6  15
ATOM     15  C   UNL     1       3.080   2.972  19.197  0.00  0.00    +0.000 A 
ATOM     16  C   UNL     1       1.832   3.597  19.073  0.00  0.00    +0.000 A 
ATOM     17  C   UNL     1       0.964   3.703  20.162  0.00  0.00    +0.000 A 
ATOM     18  C   UNL     1       1.344   3.208  21.405  0.00  0.00    +0.000 A 
ATOM     19  C   UNL     1       2.589   2.601  21.555  0.00  0.00    +0.000 A 
ATOM     20  C   UNL     1       3.448   2.479  20.457  0.00  0.00    +0.000 A 
ENDBRANCH   6  15
TORSDOF 2
ENDMDL
MODEL 5
REMARK VINA RESULT:      -7.6      4.744      7.203
REMARK  Name = 
REMARK  3 active torsions:
REMARK  status: ('A' for Active; 'I' for Inactive)
REMARK    1  A    between atoms: C_1  and  C_2
REMARK    2  A    between atoms: C_5  and  C_6
REMARK    3  A    between atoms: N_11  and  C_12
REMARK                            x       y       z     vdW  Elec       q    Type
REMARK                         _______ _______ _______ _____ _____    ______ ____
ROOT
ATOM      1  C   UNL     1       7.286   5.937  16.953  0.00  0.00    +0.000 A 
ATOM      2  C   UNL     1       7.575   5.224  18.095  0.00  0.00    +0.000 A 
ATOM      3  C   UNL     1       8.091   5.953  19.130  0.00  0.00    +0.000 A 
ATOM      4  N   UNL     1       8.321   7.269  19.053  0.00  0.00    +0.000 NA
ATOM      5  C   UNL     1       8.000   7.898  17.908  0.00  0.00    +0.000 A 
ATOM      6  N   UNL     1       8.153   9.280  17.821  0.00  0.00    +0.000 N 
ATOM      7  N   UNL     1       7.476   7.272  16.844  0.00  0.00    +0.000 NA
ATOM      8  H   UNL     1       7.746   9.642  16.972  0.00  0.00    +0.000 HD
ENDROOT
BRANCH   1  13
ATOM      9  C   UNL     1       7.476   4.627  12.339  0.00  0.00    +0.000 C 
ATOM     10  C   UNL     1       6.814   4.683  13.656  0.00  0.00    +0.000 A 
ATOM     11  C   UNL     1       5.649   4.151  14.163  0.00  0.00    +0.000 A 
ATOM     12  C   UNL     1       5.592   4.544  15.524  0.00  0.00    +0.000 A 
ATOM     13  C   UNL     1       6.730   5.287  15.773  0.00  0.00    +0.000 A 
ATOM     14  O   UNL     1       7.465   5.387  14.622  0.00  0.00    +0.000 OA
ENDBRANCH   1  13
BRANCH   6  15
ATOM     15  C   UNL     1       9.065  10.118  18.480  0.00  0.00    +0.000 A 
ATOM     16  C   UNL     1       9.048  10.300  19.870  0.00  0.00    +0.000 A 
ATOM     17  C   UNL     1       9.944  11.169  20.496  0.00  0.00    +0.000 A 
ATOM     18  C   UNL     1      10.856  11.895  19.737  0.00  0.00    +0.000 A 
ATOM     19  C   UNL     1      10.875  11.745  18.352  0.00  0.00    +0.000 A 
ATOM     20  C   UNL     1       9.989  10.857  17.730  0.00  0.00    +0.000 A 
ENDBRANCH   6  15
TORSDOF 2
ENDMDL
MODEL 6
REMARK VINA RESULT:      -7.5      4.762      7.197
REMARK  Name = 
REMARK  3 active torsions:
REMARK  status: ('A' for Active; 'I' for Inactive)
REMARK    1  A    between atoms: C_1  and  C_2
REMARK    2  A    between atoms: C_5  and  C_6
REMARK    3  A    between atoms: N_11  and  C_12
REMARK                            x       y       z     vdW  Elec       q    Type
REMARK                         _______ _______ _______ _____ _____    ______ ____
ROOT
ATOM      1  C   UNL     1       7.259   6.021  16.949  0.00  0.00    +0.000 A 
ATOM      2  C   UNL     1       7.576   5.311  18.086  0.00  0.00    +0.000 A 
ATOM      3  C   UNL     1       8.113   6.044  19.107  0.00  0.00    +0.000 A 
ATOM      4  N   UNL     1       8.336   7.361  19.023  0.00  0.00    +0.000 NA
ATOM      5  C   UNL     1       7.986   7.986  17.884  0.00  0.00    +0.000 A 
ATOM      6  N   UNL     1       8.131   9.369  17.791  0.00  0.00    +0.000 N 
ATOM      7  N   UNL     1       7.440   7.356  16.833  0.00  0.00    +0.000 NA
ATOM      8  H   UNL     1       7.703   9.727  16.951  0.00  0.00    +0.000 HD
ENDROOT
BRANCH   1  13
ATOM      9  C   UNL     1       7.424   4.546  12.384  0.00  0.00    +0.000 C 
ATOM     10  C   UNL     1       6.751   4.687  13.689  0.00  0.00    +0.000 A 
ATOM     11  C   UNL     1       5.549   4.244  14.197  0.00  0.00    +0.000 A 
ATOM     12  C   UNL     1       5.500   4.685  15.543  0.00  0.00    +0.000 A 
ATOM     13  C   UNL     1       6.678   5.366  15.783  0.00  0.00    +0.000 A 
ATOM     14  O   UNL     1       7.431   5.383  14.640  0.00  0.00    +0.000 OA
ENDBRANCH   1  13
BRANCH   6  15
ATOM     15  C   UNL     1       9.054  10.211  18.428  0.00  0.00    +0.000 A 
ATOM     16  C   UNL     1      10.056  10.895  17.725  0.00  0.00    +0.000 A 
ATOM     17  C   UNL     1      10.987  11.697  18.390  0.00  0.00    +0.000 A 
ATOM     18  C   UNL     1      10.947  11.808  19.775  0.00  0.00    +0.000 A 
ATOM     19  C   UNL     1       9.972  11.120  20.495  0.00  0.00    +0.000 A 
ATOM     20  C   UNL     1       9.029  10.333  19.824  0.00  0.00    +0.000 A 
ENDBRANCH   6  15
TORSDOF 2
ENDMDL
MODEL 7
REMARK VINA RESULT:      -7.4      2.039      2.331
REMARK  Name = 
REMARK  3 active torsions:
REMARK  status: ('A' for Active; 'I' for Inactive)
REMARK    1  A    between atoms: C_1  and  C_2
REMARK    2  A    between atoms: C_5  and  C_6
REMARK    3  A    between atoms: N_11  and  C_12
REMARK                            x       y       z     vdW  Elec       q    Type
REMARK                         _______ _______ _______ _____ _____    ______ ____
ROOT
ATOM      1  C   UNL     1       6.287   4.610  15.673  0.00  0.00    +0.000 A 
ATOM      2  C   UNL     1       7.288   4.694  16.616  0.00  0.00    +0.000 A 
ATOM      3  C   UNL     1       6.872   4.913  17.899  0.00  0.00    +0.000 A 
ATOM      4  N   UNL     1       5.583   5.055  18.235  0.00  0.00    +0.000 NA
ATOM      5  C   UNL     1       4.664   4.946  17.260  0.00  0.00    +0.000 A 
ATOM      6  N   UNL     1       3.310   5.009  17.586  0.00  0.00    +0.000 N 
ATOM      7  N   UNL     1       4.973   4.718  15.974  0.00  0.00    +0.000 NA
ATOM      8  H   UNL     1       2.731   4.773  16.795  0.00  0.00    +0.000 HD
ENDROOT
BRANCH   1  13
ATOM      9  C   UNL     1       5.538   2.397  11.480  0.00  0.00    +0.000 C 
ATOM     10  C   UNL     1       6.246   3.365  12.340  0.00  0.00    +0.000 A 
ATOM     11  C   UNL     1       7.237   4.294  12.116  0.00  0.00    +0.000 A 
ATOM     12  C   UNL     1       7.461   4.943  13.356  0.00  0.00    +0.000 A 
ATOM     13  C   UNL     1       6.588   4.377  14.266  0.00  0.00    +0.000 A 
ATOM     14  O   UNL     1       5.861   3.397  13.645  0.00  0.00    +0.000 OA
ENDBRANCH   1  13
BRANCH   6  15
ATOM     15  C   UNL     1       2.680   5.688  18.639  0.00  0.00    +0.000 A 
ATOM     16  C   UNL     1       2.605   7.086  18.693  0.00  0.00    +0.000 A 
ATOM     17  C   UNL     1       2.004   7.737  19.773  0.00  0.00    +0.000 A 
ATOM     18  C   UNL     1       1.493   6.998  20.834  0.00  0.00    +0.000 A 
ATOM     19  C   UNL     1       1.576   5.608  20.811  0.00  0.00    +0.000 A 
ATOM     20  C   UNL     1       2.161   4.958  19.717  0.00  0.00    +0.000 A 
ENDBRANCH   6  15
TORSDOF 2
ENDMDL
MODEL 8
REMARK VINA RESULT:      -7.3      1.970      2.326
REMARK  Name = 
REMARK  3 active torsions:
REMARK  status: ('A' for Active; 'I' for Inactive)
REMARK    1  A    between atoms: C_1  and  C_2
REMARK    2  A    between atoms: C_5  and  C_6
REMARK    3  A    between atoms: N_11  and  C_12
REMARK                            x       y       z     vdW  Elec       q    Type
REMARK                         _______ _______ _______ _____ _____    ______ ____
ROOT
ATOM      1  C   UNL     1       6.334   4.558  15.588  0.00  0.00    +0.000 A 
ATOM      2  C   UNL     1       7.366   4.688  16.492  0.00  0.00    +0.000 A 
ATOM      3  C   UNL     1       6.990   4.896  17.789  0.00  0.00    +0.000 A 
ATOM      4  N   UNL     1       5.711   4.984  18.174  0.00  0.00    +0.000 NA
ATOM      5  C   UNL     1       4.760   4.833  17.236  0.00  0.00    +0.000 A 
ATOM      6  N   UNL     1       3.418   4.840  17.613  0.00  0.00    +0.000 N 
ATOM      7  N   UNL     1       5.029   4.612  15.940  0.00  0.00    +0.000 NA
ATOM      8  H   UNL     1       2.820   4.576  16.846  0.00  0.00    +0.000 HD
ENDROOT
BRANCH   1  13
ATOM      9  C   UNL     1       5.421   2.400  11.399  0.00  0.00    +0.000 C 
ATOM     10  C   UNL     1       6.173   3.344  12.247  0.00  0.00    +0.000 A 
ATOM     11  C   UNL     1       7.177   4.256  12.003  0.00  0.00    +0.000 A 
ATOM     12  C   UNL     1       7.449   4.888  13.242  0.00  0.00    +0.000 A 
ATOM     13  C   UNL     1       6.590   4.332  14.171  0.00  0.00    +0.000 A 
ATOM     14  O   UNL     1       5.825   3.373  13.562  0.00  0.00    +0.000 OA
ENDBRANCH   1  13
BRANCH   6  15
ATOM     15  C   UNL     1       2.801   5.496  18.688  0.00  0.00    +0.000 A 
ATOM     16  C   UNL     1       2.124   4.804  19.702  0.00  0.00    +0.000 A 
ATOM     17  C   UNL     1       1.486   5.485  20.741  0.00  0.00    +0.000 A 
ATOM     18  C   UNL     1       1.489   6.876  20.767  0.00  0.00    +0.000 A 
ATOM     19  C   UNL     1       2.138   7.584  19.758  0.00  0.00    +0.000 A 
ATOM     20  C   UNL     1       2.794   6.897  18.729  0.00  0.00    +0.000 A 
ENDBRANCH   6  15
TORSDOF 2
ENDMDL
MODEL 9
REMARK VINA RESULT:      -6.9      2.268      7.303
REMARK  Name = 
REMARK  3 active torsions:
REMARK  status: ('A' for Active; 'I' for Inactive)
REMARK    1  A    between atoms: C_1  and  C_2
REMARK    2  A    between atoms: C_5  and  C_6
REMARK    3  A    between atoms: N_11  and  C_12
REMARK                            x       y       z     vdW  Elec       q    Type
REMARK                         _______ _______ _______ _____ _____    ______ ____
ROOT
ATOM      1  C   UNL     1       4.559   4.871  18.676  0.00  0.00    +0.000 A 
ATOM      2  C   UNL     1       5.835   4.803  19.191  0.00  0.00    +0.000 A 
ATOM      3  C   UNL     1       6.843   4.812  18.268  0.00  0.00    +0.000 A 
ATOM      4  N   UNL     1       6.626   4.868  16.948  0.00  0.00    +0.000 NA
ATOM      5  C   UNL     1       5.353   4.946  16.523  0.00  0.00    +0.000 A 
ATOM      6  N   UNL     1       5.093   5.085  15.161  0.00  0.00    +0.000 N 
ATOM      7  N   UNL     1       4.297   4.958  17.352  0.00  0.00    +0.000 NA
ATOM      8  H   UNL     1       4.118   5.276  14.991  0.00  0.00    +0.000 HD
ENDROOT
BRANCH   1  13
ATOM      9  C   UNL     1       1.534   2.731  21.728  0.00  0.00    +0.000 C 
ATOM     10  C   UNL     1       2.000   3.893  20.947  0.00  0.00    +0.000 A 
ATOM     11  C   UNL     1       1.590   5.204  20.850  0.00  0.00    +0.000 A 
ATOM     12  C   UNL     1       2.480   5.833  19.944  0.00  0.00    +0.000 A 
ATOM     13  C   UNL     1       3.389   4.872  19.545  0.00  0.00    +0.000 A 
ATOM     14  O   UNL     1       3.079   3.681  20.146  0.00  0.00    +0.000 OA
ENDBRANCH   1  13
BRANCH   6  15
ATOM     15  C   UNL     1       5.841   4.635  14.063  0.00  0.00    +0.000 A 
ATOM     16  C   UNL     1       7.074   5.200  13.712  0.00  0.00    +0.000 A 
ATOM     17  C   UNL     1       7.780   4.758  12.591  0.00  0.00    +0.000 A 
ATOM     18  C   UNL     1       7.247   3.758  11.784  0.00  0.00    +0.000 A 
ATOM     19  C   UNL     1       6.013   3.197  12.103  0.00  0.00    +0.000 A 
ATOM     20  C   UNL     1       5.318   3.629  13.239  0.00  0.00    +0.000 A 
ENDBRANCH   6  15
TORSDOF 2
ENDMDL
