MODEL 1
REMARK VINA RESULT:      -8.2      0.000      0.000
REMARK  Name = 
REMARK  11 active torsions:
REMARK  status: ('A' for Active; 'I' for Inactive)
REMARK    1  A    between atoms: N_1  and  C_2
REMARK    2  A    between atoms: C_2  and  C_4
REMARK    3  A    between atoms: C_8  and  C_9
REMARK    4  A    between atoms: N_11  and  C_12
REMARK    5  A    between atoms: C_12  and  C_13
REMARK    6  A    between atoms: C_13  and  C_14
REMARK    7  A    between atoms: C_13  and  C_17
REMARK    8  A    between atoms: C_22  and  C_23
REMARK    9  A    between atoms: C_23  and  O_24
REMARK   10  A    between atoms: C_23  and  C_25
REMARK   11  A    between atoms: C_25  and  C_26
REMARK                            x       y       z     vdW  Elec       q    Type
REMARK                         _______ _______ _______ _____ _____    ______ ____
ROOT
ATOM      1  C   UNL     1       5.115   5.221  15.705  0.00  0.00    +0.000 A 
ATOM      2  C   UNL     1       4.716   6.551  15.792  0.00  0.00    +0.000 A 
ATOM      3  N   UNL     1       4.788   6.805  17.127  0.00  0.00    +0.000 N 
ATOM      4  C   UNL     1       4.169   5.727  17.706  0.00  0.00    +0.000 A 
ATOM      5  C   UNL     1       3.537   5.674  18.944  0.00  0.00    +0.000 A 
ATOM      6  C   UNL     1       3.076   4.455  19.436  0.00  0.00    +0.000 A 
ATOM      7  C   UNL     1       3.354   3.311  18.665  0.00  0.00    +0.000 A 
ATOM      8  C   UNL     1       4.074   3.379  17.415  0.00  0.00    +0.000 A 
ATOM      9  C   UNL     1       4.455   4.634  16.871  0.00  0.00    +0.000 A 
ENDROOT
BRANCH   1  14
ATOM     10  C   UNL     1       6.139   3.467  12.480  0.00  0.00    +0.000 A 
ATOM     11  C   UNL     1       7.352   4.078  12.187  0.00  0.00    +0.000 A 
ATOM     12  C   UNL     1       7.866   5.062  13.057  0.00  0.00    +0.000 A 
ATOM     13  C   UNL     1       7.174   5.474  14.219  0.00  0.00    +0.000 A 
ATOM     14  C   UNL     1       5.968   4.876  14.548  0.00  0.00    +0.000 A 
ATOM     15  C   UNL     1       5.489   3.870  13.658  0.00  0.00    +0.000 A 
BRANCH  10  16
ATOM     16  C   UNL     1       5.518   2.447  11.566  0.00  0.00    +0.000 C 
ATOM     17  S   UNL     1       6.251   1.031  11.046  0.00  0.00    +0.000 S 
BRANCH  16  18
ATOM     18  N   UNL     1       4.246   2.681  11.105  0.00  0.00    +0.000 N 
ATOM     19  H   UNL     1       3.962   2.252  10.233  0.00  0.00    +0.000 HD
ATOM     20  H   UNL     1       3.609   3.360  11.517  0.00  0.00    +0.000 HD
ENDBRANCH  16  18
ENDBRANCH  10  16
ENDBRANCH   1  14
BRANCH   3  21
ATOM     21  C   UNL     1       5.882   7.466  17.838  0.00  0.00    +0.000 C 
BRANCH  21  22
ATOM     22  C   UNL     1       7.316   7.102  17.474  0.00  0.00    +0.000 C 
BRANCH  22  23
ATOM     23  C   UNL     1       8.265   8.237  17.702  0.00  0.00    +0.000 C 
ATOM     24  F   UNL     1       7.638   9.435  17.652  0.00  0.00    +0.000 F 
ATOM     25  F   UNL     1       8.802   8.141  18.943  0.00  0.00    +0.000 F 
ENDBRANCH  22  23
BRANCH  22  26
ATOM     26  C   UNL     1       7.761   5.957  18.354  0.00  0.00    +0.000 C 
ATOM     27  F   UNL     1       6.887   5.801  19.382  0.00  0.00    +0.000 F 
ATOM     28  F   UNL     1       7.729   4.800  17.648  0.00  0.00    +0.000 F 
ENDBRANCH  22  26
ENDBRANCH  21  22
ENDBRANCH   3  21
BRANCH   6  29
ATOM     29  C   UNL     1       2.352   4.586  20.768  0.00  0.00    +0.000 C 
BRANCH  29  30
ATOM     30  O   UNL     1       1.854   5.926  20.872  0.00  0.00    +0.000 OA
ATOM     31  H   UNL     1       1.594   6.064  21.800  0.00  0.00    +0.000 HD
ENDBRANCH  29  30
BRANCH  29  32
ATOM     32  C   UNL     1       1.204   3.676  21.178  0.00  0.00    +0.000 C 
BRANCH  32  33
ATOM     33  C   UNL     1       1.656   2.322  21.671  0.00  0.00    +0.000 C 
ATOM     34  F   UNL     1       2.991   2.389  21.934  0.00  0.00    +0.000 F 
ENDBRANCH  32  33
ENDBRANCH  29  32
ENDBRANCH   6  29
TORSDOF 11
ENDMDL
MODEL 2
REMARK VINA RESULT:      -8.1      4.367      8.314
REMARK  Name = 
REMARK  11 active torsions:
REMARK  status: ('A' for Active; 'I' for Inactive)
REMARK    1  A    between atoms: N_1  and  C_2
REMARK    2  A    between atoms: C_2  and  C_4
REMARK    3  A    between atoms: C_8  and  C_9
REMARK    4  A    between atoms: N_11  and  C_12
REMARK    5  A    between atoms: C_12  and  C_13
REMARK    6  A    between atoms: C_13  and  C_14
REMARK    7  A    between atoms: C_13  and  C_17
REMARK    8  A    between atoms: C_22  and  C_23
REMARK    9  A    between atoms: C_23  and  O_24
REMARK   10  A    between atoms: C_23  and  C_25
REMARK   11  A    between atoms: C_25  and  C_26
REMARK                            x       y       z     vdW  Elec       q    Type
REMARK                         _______ _______ _______ _____ _____    ______ ____
ROOT
ATOM      1  C   UNL     1       2.512   7.029  18.513  0.00  0.00    +0.000 A 
ATOM      2  C   UNL     1       1.739   5.907  18.225  0.00  0.00    +0.000 A 
ATOM      3  N   UNL     1       2.649   4.896  18.246  0.00  0.00    +0.000 N 
ATOM      4  C   UNL     1       3.699   5.376  17.507  0.00  0.00    +0.000 A 
ATOM      5  C   UNL     1       4.651   4.641  16.806  0.00  0.00    +0.000 A 
ATOM      6  C   UNL     1       5.733   5.292  16.217  0.00  0.00    +0.000 A 
ATOM      7  C   UNL     1       5.840   6.677  16.436  0.00  0.00    +0.000 A 
ATOM      8  C   UNL     1       4.878   7.410  17.226  0.00  0.00    +0.000 A 
ATOM      9  C   UNL     1       3.726   6.760  17.743  0.00  0.00    +0.000 A 
ENDROOT
BRANCH   1  14
ATOM     10  C   UNL     1       0.819  10.305  19.473  0.00  0.00    +0.000 A 
ATOM     11  C   UNL     1       0.568  10.119  20.827  0.00  0.00    +0.000 A 
ATOM     12  C   UNL     1       0.972   8.922  21.454  0.00  0.00    +0.000 A 
ATOM     13  C   UNL     1       1.609   7.879  20.743  0.00  0.00    +0.000 A 
ATOM     14  C   UNL     1       1.886   8.036  19.394  0.00  0.00    +0.000 A 
ATOM     15  C   UNL     1       1.484   9.268  18.798  0.00  0.00    +0.000 A 
BRANCH  10  16
ATOM     16  C   UNL     1       0.370  11.539  18.741  0.00  0.00    +0.000 C 
ATOM     17  S   UNL     1      -1.222  12.029  18.544  0.00  0.00    +0.000 S 
BRANCH  16  18
ATOM     18  N   UNL     1       1.329  12.342  18.176  0.00  0.00    +0.000 N 
ATOM     19  H   UNL     1       1.242  12.584  17.196  0.00  0.00    +0.000 HD
ATOM     20  H   UNL     1       2.194  12.608  18.643  0.00  0.00    +0.000 HD
ENDBRANCH  16  18
ENDBRANCH  10  16
ENDBRANCH   1  14
BRANCH   3  21
ATOM     21  C   UNL     1       2.916   3.977  19.353  0.00  0.00    +0.000 C 
BRANCH  21  22
ATOM     22  C   UNL     1       1.735   3.371  20.100  0.00  0.00    +0.000 C 
BRANCH  22  23
ATOM     23  C   UNL     1       1.325   2.047  19.535  0.00  0.00    +0.000 C 
ATOM     24  F   UNL     1       0.285   2.166  18.678  0.00  0.00    +0.000 F 
ATOM     25  F   UNL     1       2.349   1.520  18.819  0.00  0.00    +0.000 F 
ENDBRANCH  22  23
BRANCH  22  26
ATOM     26  C   UNL     1       2.139   3.143  21.538  0.00  0.00    +0.000 C 
ATOM     27  F   UNL     1       1.153   2.478  22.193  0.00  0.00    +0.000 F 
ATOM     28  F   UNL     1       3.232   2.342  21.583  0.00  0.00    +0.000 F 
ENDBRANCH  22  26
ENDBRANCH  21  22
ENDBRANCH   3  21
BRANCH   6  29
ATOM     29  C   UNL     1       6.639   4.351  15.435  0.00  0.00    +0.000 C 
BRANCH  29  30
ATOM     30  O   UNL     1       6.154   3.015  15.616  0.00  0.00    +0.000 OA
ATOM     31  H   UNL     1       5.677   2.995  16.464  0.00  0.00    +0.000 HD
ENDBRANCH  29  30
BRANCH  29  32
ATOM     32  C   UNL     1       6.903   4.505  13.945  0.00  0.00    +0.000 C 
BRANCH  32  33
ATOM     33  C   UNL     1       6.109   3.546  13.091  0.00  0.00    +0.000 C 
ATOM     34  F   UNL     1       4.829   4.003  13.016  0.00  0.00    +0.000 F 
ENDBRANCH  32  33
ENDBRANCH  29  32
ENDBRANCH   6  29
TORSDOF 11
ENDMDL
MODEL 3
REMARK VINA RESULT:      -8.0      4.432      8.168
REMARK  Name = 
REMARK  11 active torsions:
REMARK  status: ('A' for Active; 'I' for Inactive)
REMARK    1  A    between atoms: N_1  and  C_2
REMARK    2  A    between atoms: C_2  and  C_4
REMARK    3  A    between atoms: C_8  and  C_9
REMARK    4  A    between atoms: N_11  and  C_12
REMARK    5  A    between atoms: C_12  and  C_13
REMARK    6  A    between atoms: C_13  and  C_14
REMARK    7  A    between atoms: C_13  and  C_17
REMARK    8  A    between atoms: C_22  and  C_23
REMARK    9  A    between atoms: C_23  and  O_24
REMARK   10  A    between atoms: C_23  and  C_25
REMARK   11  A    between atoms: C_25  and  C_26
REMARK                            x       y       z     vdW  Elec       q    Type
REMARK                         _______ _______ _______ _____ _____    ______ ____
ROOT
ATOM      1  C   UNL     1       2.600   6.750  18.492  0.00  0.00    +0.000 A 
ATOM      2  C   UNL     1       2.012   5.488  18.481  0.00  0.00    +0.000 A 
ATOM      3  N   UNL     1       3.085   4.652  18.436  0.00  0.00    +0.000 N 
ATOM      4  C   UNL     1       3.886   5.188  17.461  0.00  0.00    +0.000 A 
ATOM      5  C   UNL     1       4.824   4.528  16.675  0.00  0.00    +0.000 A 
ATOM      6  C   UNL     1       5.651   5.258  15.822  0.00  0.00    +0.000 A 
ATOM      7  C   UNL     1       5.533   6.659  15.865  0.00  0.00    +0.000 A 
ATOM      8  C   UNL     1       4.600   7.328  16.741  0.00  0.00    +0.000 A 
ATOM      9  C   UNL     1       3.694   6.577  17.537  0.00  0.00    +0.000 A 
ENDROOT
BRANCH   1  14
ATOM     10  C   UNL     1       0.927  10.042  19.435  0.00  0.00    +0.000 A 
ATOM     11  C   UNL     1       0.617   9.840  20.774  0.00  0.00    +0.000 A 
ATOM     12  C   UNL     1       0.974   8.626  21.397  0.00  0.00    +0.000 A 
ATOM     13  C   UNL     1       1.621   7.582  20.696  0.00  0.00    +0.000 A 
ATOM     14  C   UNL     1       1.956   7.755  19.363  0.00  0.00    +0.000 A 
ATOM     15  C   UNL     1       1.601   9.003  18.771  0.00  0.00    +0.000 A 
BRANCH  10  16
ATOM     16  C   UNL     1       0.531  11.295  18.704  0.00  0.00    +0.000 C 
ATOM     17  S   UNL     1      -1.040  11.848  18.501  0.00  0.00    +0.000 S 
BRANCH  16  18
ATOM     18  N   UNL     1       1.524  12.061  18.147  0.00  0.00    +0.000 N 
ATOM     19  H   UNL     1       2.482  11.887  18.425  0.00  0.00    +0.000 HD
ATOM     20  H   UNL     1       1.351  12.880  17.567  0.00  0.00    +0.000 HD
ENDBRANCH  16  18
ENDBRANCH  10  16
ENDBRANCH   1  14
BRANCH   3  21
ATOM     21  C   UNL     1       3.703   3.954  19.564  0.00  0.00    +0.000 C 
BRANCH  21  22
ATOM     22  C   UNL     1       2.982   2.754  20.164  0.00  0.00    +0.000 C 
BRANCH  22  23
ATOM     23  C   UNL     1       2.004   3.153  21.225  0.00  0.00    +0.000 C 
ATOM     24  F   UNL     1       2.406   4.261  21.890  0.00  0.00    +0.000 F 
ATOM     25  F   UNL     1       0.813   3.463  20.656  0.00  0.00    +0.000 F 
ENDBRANCH  22  23
BRANCH  22  26
ATOM     26  C   UNL     1       2.203   2.061  19.070  0.00  0.00    +0.000 C 
ATOM     27  F   UNL     1       3.060   1.552  18.148  0.00  0.00    +0.000 F 
ATOM     28  F   UNL     1       1.531   1.004  19.589  0.00  0.00    +0.000 F 
ENDBRANCH  22  26
ENDBRANCH  21  22
ENDBRANCH   3  21
BRANCH   6  29
ATOM     29  C   UNL     1       6.570   4.377  14.986  0.00  0.00    +0.000 C 
BRANCH  29  30
ATOM     30  O   UNL     1       6.248   3.009  15.266  0.00  0.00    +0.000 OA
ATOM     31  H   UNL     1       5.892   2.624  14.446  0.00  0.00    +0.000 HD
ENDBRANCH  29  30
BRANCH  29  32
ATOM     32  C   UNL     1       6.669   4.487  13.473  0.00  0.00    +0.000 C 
BRANCH  32  33
ATOM     33  C   UNL     1       6.051   3.318  12.743  0.00  0.00    +0.000 C 
ATOM     34  F   UNL     1       4.752   3.624  12.473  0.00  0.00    +0.000 F 
ENDBRANCH  32  33
ENDBRANCH  29  32
ENDBRANCH   6  29
TORSDOF 11
ENDMDL
MODEL 4
REMARK VINA RESULT:      -7.8      1.191      1.297
REMARK  Name = 
REMARK  11 active torsions:
REMARK  status: ('A' for Active; 'I' for Inactive)
REMARK    1  A    between atoms: N_1  and  C_2
REMARK    2  A    between atoms: C_2  and  C_4
REMARK    3  A    between atoms: C_8  and  C_9
REMARK    4  A    between atoms: N_11  and  C_12
REMARK    5  A    between atoms: C_12  and  C_13
REMARK    6  A    between atoms: C_13  and  C_14
REMARK    7  A    between atoms: C_13  and  C_17
REMARK    8  A    between atoms: C_22  and  C_23
REMARK    9  A    between atoms: C_23  and  O_24
REMARK   10  A    between atoms: C_23  and  C_25
REMARK   11  A    between atoms: C_25  and  C_26
REMARK                            x       y       z     vdW  Elec       q    Type
REMARK                         _______ _______ _______ _____ _____    ______ ____
ROOT
ATOM      1  C   UNL     1       4.857   5.053  15.888  0.00  0.00    +0.000 A 
ATOM      2  C   UNL     1       4.856   6.369  16.341  0.00  0.00    +0.000 A 
ATOM      3  N   UNL     1       4.796   6.228  17.693  0.00  0.00    +0.000 N 
ATOM      4  C   UNL     1       3.809   5.297  17.887  0.00  0.00    +0.000 A 
ATOM      5  C   UNL     1       3.009   5.131  19.013  0.00  0.00    +0.000 A 
ATOM      6  C   UNL     1       2.142   4.042  19.093  0.00  0.00    +0.000 A 
ATOM      7  C   UNL     1       2.186   3.114  18.037  0.00  0.00    +0.000 A 
ATOM      8  C   UNL     1       3.075   3.270  16.909  0.00  0.00    +0.000 A 
ATOM      9  C   UNL     1       3.885   4.429  16.786  0.00  0.00    +0.000 A 
ENDROOT
BRANCH   1  14
ATOM     10  C   UNL     1       5.931   3.510  12.573  0.00  0.00    +0.000 A 
ATOM     11  C   UNL     1       7.172   4.098  12.365  0.00  0.00    +0.000 A 
ATOM     12  C   UNL     1       7.689   4.995  13.323  0.00  0.00    +0.000 A 
ATOM     13  C   UNL     1       6.972   5.344  14.491  0.00  0.00    +0.000 A 
ATOM     14  C   UNL     1       5.736   4.766  14.736  0.00  0.00    +0.000 A 
ATOM     15  C   UNL     1       5.255   3.847  13.758  0.00  0.00    +0.000 A 
BRANCH  10  16
ATOM     16  C   UNL     1       5.308   2.584  11.566  0.00  0.00    +0.000 C 
ATOM     17  S   UNL     1       3.873   2.863  10.744  0.00  0.00    +0.000 S 
BRANCH  16  18
ATOM     18  N   UNL     1       5.952   1.405  11.286  0.00  0.00    +0.000 N 
ATOM     19  H   UNL     1       6.964   1.389  11.311  0.00  0.00    +0.000 HD
ATOM     20  H   UNL     1       5.484   0.573  10.929  0.00  0.00    +0.000 HD
ENDBRANCH  16  18
ENDBRANCH  10  16
ENDBRANCH   1  14
BRANCH   3  21
ATOM     21  C   UNL     1       5.915   6.288  18.633  0.00  0.00    +0.000 C 
BRANCH  21  22
ATOM     22  C   UNL     1       7.329   6.411  18.080  0.00  0.00    +0.000 C 
BRANCH  22  23
ATOM     23  C   UNL     1       7.828   7.823  18.107  0.00  0.00    +0.000 C 
ATOM     24  F   UNL     1       8.898   7.963  18.923  0.00  0.00    +0.000 F 
ATOM     25  F   UNL     1       8.246   8.183  16.868  0.00  0.00    +0.000 F 
ENDBRANCH  22  23
BRANCH  22  26
ATOM     26  C   UNL     1       8.258   5.588  18.940  0.00  0.00    +0.000 C 
ATOM     27  F   UNL     1       7.729   5.447  20.183  0.00  0.00    +0.000 F 
ATOM     28  F   UNL     1       8.365   4.337  18.428  0.00  0.00    +0.000 F 
ENDBRANCH  22  26
ENDBRANCH  21  22
ENDBRANCH   3  21
BRANCH   6  29
ATOM     29  C   UNL     1       1.294   4.048  20.357  0.00  0.00    +0.000 C 
BRANCH  29  30
ATOM     30  O   UNL     1       0.162   3.197  20.137  0.00  0.00    +0.000 OA
ATOM     31  H   UNL     1      -0.323   3.141  20.978  0.00  0.00    +0.000 HD
ENDBRANCH  29  30
BRANCH  29  32
ATOM     32  C   UNL     1       1.845   3.672  21.724  0.00  0.00    +0.000 C 
BRANCH  32  33
ATOM     33  C   UNL     1       2.354   2.253  21.798  0.00  0.00    +0.000 C 
ATOM     34  F   UNL     1       3.635   2.236  21.333  0.00  0.00    +0.000 F 
ENDBRANCH  32  33
ENDBRANCH  29  32
ENDBRANCH   6  29
TORSDOF 11
ENDMDL
MODEL 5
REMARK VINA RESULT:      -7.8      4.390      8.400
REMARK  Name = 
REMARK  11 active torsions:
REMARK  status: ('A' for Active; 'I' for Inactive)
REMARK    1  A    between atoms: N_1  and  C_2
REMARK    2  A    between atoms: C_2  and  C_4
REMARK    3  A    between atoms: C_8  and  C_9
REMARK    4  A    between atoms: N_11  and  C_12
REMARK    5  A    between atoms: C_12  and  C_13
REMARK    6  A    between atoms: C_13  and  C_14
REMARK    7  A    between atoms: C_13  and  C_17
REMARK    8  A    between atoms: C_22  and  C_23
REMARK    9  A    between atoms: C_23  and  O_24
REMARK   10  A    between atoms: C_23  and  C_25
REMARK   11  A    between atoms: C_25  and  C_26
REMARK                            x       y       z     vdW  Elec       q    Type
REMARK                         _______ _______ _______ _____ _____    ______ ____
ROOT
ATOM      1  C   UNL     1       2.645   6.911  18.397  0.00  0.00    +0.000 A 
ATOM      2  C   UNL     1       1.868   5.819  18.020  0.00  0.00    +0.000 A 
ATOM      3  N   UNL     1       2.768   4.800  17.991  0.00  0.00    +0.000 N 
ATOM      4  C   UNL     1       3.837   5.317  17.306  0.00  0.00    +0.000 A 
ATOM      5  C   UNL     1       4.796   4.621  16.577  0.00  0.00    +0.000 A 
ATOM      6  C   UNL     1       5.895   5.298  16.053  0.00  0.00    +0.000 A 
ATOM      7  C   UNL     1       6.010   6.665  16.366  0.00  0.00    +0.000 A 
ATOM      8  C   UNL     1       5.039   7.353  17.184  0.00  0.00    +0.000 A 
ATOM      9  C   UNL     1       3.871   6.682  17.634  0.00  0.00    +0.000 A 
ENDROOT
BRANCH   1  14
ATOM     10  C   UNL     1       0.930  10.120  19.533  0.00  0.00    +0.000 A 
ATOM     11  C   UNL     1       0.676   9.857  20.874  0.00  0.00    +0.000 A 
ATOM     12  C   UNL     1       1.084   8.628  21.433  0.00  0.00    +0.000 A 
ATOM     13  C   UNL     1       1.729   7.630  20.667  0.00  0.00    +0.000 A 
ATOM     14  C   UNL     1       2.010   7.865  19.330  0.00  0.00    +0.000 A 
ATOM     15  C   UNL     1       1.603   9.126  18.803  0.00  0.00    +0.000 A 
BRANCH  10  16
ATOM     16  C   UNL     1       0.476  11.390  18.869  0.00  0.00    +0.000 C 
ATOM     17  S   UNL     1       1.214  12.888  19.026  0.00  0.00    +0.000 S 
BRANCH  16  18
ATOM     18  N   UNL     1      -0.637  11.339  18.067  0.00  0.00    +0.000 N 
ATOM     19  H   UNL     1      -1.361  12.035  18.200  0.00  0.00    +0.000 HD
ATOM     20  H   UNL     1      -0.843  10.571  17.431  0.00  0.00    +0.000 HD
ENDBRANCH  16  18
ENDBRANCH  10  16
ENDBRANCH   1  14
BRANCH   3  21
ATOM     21  C   UNL     1       3.005   3.807  19.039  0.00  0.00    +0.000 C 
BRANCH  21  22
ATOM     22  C   UNL     1       1.820   3.316  19.862  0.00  0.00    +0.000 C 
BRANCH  22  23
ATOM     23  C   UNL     1       1.378   1.945  19.456  0.00  0.00    +0.000 C 
ATOM     24  F   UNL     1       0.338   1.986  18.592  0.00  0.00    +0.000 F 
ATOM     25  F   UNL     1       2.387   1.313  18.807  0.00  0.00    +0.000 F 
ENDBRANCH  22  23
BRANCH  22  26
ATOM     26  C   UNL     1       2.235   3.246  21.313  0.00  0.00    +0.000 C 
ATOM     27  F   UNL     1       2.392   4.501  21.807  0.00  0.00    +0.000 F 
ATOM     28  F   UNL     1       1.248   2.671  22.043  0.00  0.00    +0.000 F 
ENDBRANCH  22  26
ENDBRANCH  21  22
ENDBRANCH   3  21
BRANCH   6  29
ATOM     29  C   UNL     1       6.808   4.402  15.228  0.00  0.00    +0.000 C 
BRANCH  29  30
ATOM     30  O   UNL     1       6.162   3.132  15.073  0.00  0.00    +0.000 OA
ATOM     31  H   UNL     1       5.889   3.060  14.142  0.00  0.00    +0.000 HD
ENDBRANCH  29  30
BRANCH  29  32
ATOM     32  C   UNL     1       7.317   4.787  13.847  0.00  0.00    +0.000 C 
BRANCH  32  33
ATOM     33  C   UNL     1       6.796   3.897  12.744  0.00  0.00    +0.000 C 
ATOM     34  F   UNL     1       7.259   4.376  11.556  0.00  0.00    +0.000 F 
ENDBRANCH  32  33
ENDBRANCH  29  32
ENDBRANCH   6  29
TORSDOF 11
ENDMDL
MODEL 6
REMARK VINA RESULT:      -7.8      4.383      8.333
REMARK  Name = 
REMARK  11 active torsions:
REMARK  status: ('A' for Active; 'I' for Inactive)
REMARK    1  A    between atoms: N_1  and  C_2
REMARK    2  A    between atoms: C_2  and  C_4
REMARK    3  A    between atoms: C_8  and  C_9
REMARK    4  A    between atoms: N_11  and  C_12
REMARK    5  A    between atoms: C_12  and  C_13
REMARK    6  A    between atoms: C_13  and  C_14
REMARK    7  A    between atoms: C_13  and  C_17
REMARK    8  A    between atoms: C_22  and  C_23
REMARK    9  A    between atoms: C_23  and  O_24
REMARK   10  A    between atoms: C_23  and  C_25
REMARK   11  A    between atoms: C_25  and  C_26
REMARK                            x       y       z     vdW  Elec       q    Type
REMARK                         _______ _______ _______ _____ _____    ______ ____
ROOT
ATOM      1  C   UNL     1       2.569   6.786  18.594  0.00  0.00    +0.000 A 
ATOM      2  C   UNL     1       1.888   5.580  18.454  0.00  0.00    +0.000 A 
ATOM      3  N   UNL     1       2.893   4.664  18.424  0.00  0.00    +0.000 N 
ATOM      4  C   UNL     1       3.803   5.194  17.546  0.00  0.00    +0.000 A 
ATOM      5  C   UNL     1       4.742   4.511  16.781  0.00  0.00    +0.000 A 
ATOM      6  C   UNL     1       5.683   5.224  16.039  0.00  0.00    +0.000 A 
ATOM      7  C   UNL     1       5.671   6.624  16.173  0.00  0.00    +0.000 A 
ATOM      8  C   UNL     1       4.730   7.310  17.028  0.00  0.00    +0.000 A 
ATOM      9  C   UNL     1       3.714   6.587  17.706  0.00  0.00    +0.000 A 
ENDROOT
BRANCH   1  14
ATOM     10  C   UNL     1       0.976  10.094  19.616  0.00  0.00    +0.000 A 
ATOM     11  C   UNL     1       0.644   9.861  20.945  0.00  0.00    +0.000 A 
ATOM     12  C   UNL     1       0.959   8.619  21.536  0.00  0.00    +0.000 A 
ATOM     13  C   UNL     1       1.586   7.579  20.811  0.00  0.00    +0.000 A 
ATOM     14  C   UNL     1       1.942   7.783  19.487  0.00  0.00    +0.000 A 
ATOM     15  C   UNL     1       1.628   9.057  18.929  0.00  0.00    +0.000 A 
BRANCH  10  16
ATOM     16  C   UNL     1       0.622  11.379  18.919  0.00  0.00    +0.000 C 
ATOM     17  S   UNL     1       1.687  12.632  18.589  0.00  0.00    +0.000 S 
BRANCH  16  18
ATOM     18  N   UNL     1      -0.677  11.560  18.516  0.00  0.00    +0.000 N 
ATOM     19  H   UNL     1      -1.185  10.764  18.149  0.00  0.00    +0.000 HD
ATOM     20  H   UNL     1      -1.127  12.471  18.442  0.00  0.00    +0.000 HD
ENDBRANCH  16  18
ENDBRANCH  10  16
ENDBRANCH   1  14
BRANCH   3  21
ATOM     21  C   UNL     1       3.370   3.846  19.539  0.00  0.00    +0.000 C 
BRANCH  21  22
ATOM     22  C   UNL     1       2.423   2.822  20.153  0.00  0.00    +0.000 C 
BRANCH  22  23
ATOM     23  C   UNL     1       1.584   3.409  21.245  0.00  0.00    +0.000 C 
ATOM     24  F   UNL     1       1.285   2.495  22.197  0.00  0.00    +0.000 F 
ATOM     25  F   UNL     1       2.273   4.397  21.869  0.00  0.00    +0.000 F 
ENDBRANCH  22  23
BRANCH  22  26
ATOM     26  C   UNL     1       1.484   2.328  19.078  0.00  0.00    +0.000 C 
ATOM     27  F   UNL     1       1.543   0.973  19.005  0.00  0.00    +0.000 F 
ATOM     28  F   UNL     1       0.207   2.636  19.411  0.00  0.00    +0.000 F 
ENDBRANCH  22  26
ENDBRANCH  21  22
ENDBRANCH   3  21
BRANCH   6  29
ATOM     29  C   UNL     1       6.590   4.327  15.209  0.00  0.00    +0.000 C 
BRANCH  29  30
ATOM     30  O   UNL     1       6.138   2.975  15.362  0.00  0.00    +0.000 OA
ATOM     31  H   UNL     1       6.034   2.605  14.468  0.00  0.00    +0.000 HD
ENDBRANCH  29  30
BRANCH  29  32
ATOM     32  C   UNL     1       6.816   4.531  13.719  0.00  0.00    +0.000 C 
BRANCH  32  33
ATOM     33  C   UNL     1       6.037   3.567  12.855  0.00  0.00    +0.000 C 
ATOM     34  F   UNL     1       6.890   3.032  11.939  0.00  0.00    +0.000 F 
ENDBRANCH  32  33
ENDBRANCH  29  32
ENDBRANCH   6  29
TORSDOF 11
ENDMDL
MODEL 7
REMARK VINA RESULT:      -7.7      2.960      4.471
REMARK  Name = 
REMARK  11 active torsions:
REMARK  status: ('A' for Active; 'I' for Inactive)
REMARK    1  A    between atoms: N_1  and  C_2
REMARK    2  A    between atoms: C_2  and  C_4
REMARK    3  A    between atoms: C_8  and  C_9
REMARK    4  A    between atoms: N_11  and  C_12
REMARK    5  A    between atoms: C_12  and  C_13
REMARK    6  A    between atoms: C_13  and  C_14
REMARK    7  A    between atoms: C_13  and  C_17
REMARK    8  A    between atoms: C_22  and  C_23
REMARK    9  A    between atoms: C_23  and  O_24
REMARK   10  A    between atoms: C_23  and  C_25
REMARK   11  A    between atoms: C_25  and  C_26
REMARK                            x       y       z     vdW  Elec       q    Type
REMARK                         _______ _______ _______ _____ _____    ______ ____
ROOT
ATOM      1  C   UNL     1       5.511   5.089  16.195  0.00  0.00    +0.000 A 
ATOM      2  C   UNL     1       5.834   4.207  17.222  0.00  0.00    +0.000 A 
ATOM      3  N   UNL     1       4.638   4.005  17.839  0.00  0.00    +0.000 N 
ATOM      4  C   UNL     1       4.117   5.266  17.978  0.00  0.00    +0.000 A 
ATOM      5  C   UNL     1       3.199   5.705  18.926  0.00  0.00    +0.000 A 
ATOM      6  C   UNL     1       2.673   6.992  18.838  0.00  0.00    +0.000 A 
ATOM      7  C   UNL     1       3.055   7.762  17.724  0.00  0.00    +0.000 A 
ATOM      8  C   UNL     1       3.956   7.260  16.713  0.00  0.00    +0.000 A 
ATOM      9  C   UNL     1       4.564   5.985  16.858  0.00  0.00    +0.000 A 
ENDROOT
BRANCH   1  14
ATOM     10  C   UNL     1       6.068   3.680  12.698  0.00  0.00    +0.000 A 
ATOM     11  C   UNL     1       7.248   4.306  12.315  0.00  0.00    +0.000 A 
ATOM     12  C   UNL     1       7.893   5.186  13.208  0.00  0.00    +0.000 A 
ATOM     13  C   UNL     1       7.367   5.478  14.487  0.00  0.00    +0.000 A 
ATOM     14  C   UNL     1       6.199   4.861  14.907  0.00  0.00    +0.000 A 
ATOM     15  C   UNL     1       5.585   3.961  13.987  0.00  0.00    +0.000 A 
BRANCH  10  16
ATOM     16  C   UNL     1       5.310   2.771  11.771  0.00  0.00    +0.000 C 
ATOM     17  S   UNL     1       3.845   3.129  11.038  0.00  0.00    +0.000 S 
BRANCH  16  18
ATOM     18  N   UNL     1       5.845   1.537  11.494  0.00  0.00    +0.000 N 
ATOM     19  H   UNL     1       6.661   1.487  10.897  0.00  0.00    +0.000 HD
ATOM     20  H   UNL     1       5.399   0.656  11.746  0.00  0.00    +0.000 HD
ENDBRANCH  16  18
ENDBRANCH  10  16
ENDBRANCH   1  14
BRANCH   3  21
ATOM     21  C   UNL     1       3.730   2.875  17.645  0.00  0.00    +0.000 C 
BRANCH  21  22
ATOM     22  C   UNL     1       3.312   2.056  18.860  0.00  0.00    +0.000 C 
BRANCH  22  23
ATOM     23  C   UNL     1       4.173   2.333  20.053  0.00  0.00    +0.000 C 
ATOM     24  F   UNL     1       3.448   2.391  21.194  0.00  0.00    +0.000 F 
ATOM     25  F   UNL     1       5.062   1.323  20.219  0.00  0.00    +0.000 F 
ENDBRANCH  22  23
BRANCH  22  26
ATOM     26  C   UNL     1       1.895   2.427  19.229  0.00  0.00    +0.000 C 
ATOM     27  F   UNL     1       1.311   3.092  18.199  0.00  0.00    +0.000 F 
ATOM     28  F   UNL     1       1.164   1.301  19.419  0.00  0.00    +0.000 F 
ENDBRANCH  22  26
ENDBRANCH  21  22
ENDBRANCH   3  21
BRANCH   6  29
ATOM     29  C   UNL     1       1.738   7.334  19.990  0.00  0.00    +0.000 C 
BRANCH  29  30
ATOM     30  O   UNL     1       2.073   6.489  21.099  0.00  0.00    +0.000 OA
ATOM     31  H   UNL     1       1.419   5.769  21.120  0.00  0.00    +0.000 HD
ENDBRANCH  29  30
BRANCH  29  32
ATOM     32  C   UNL     1       1.601   8.739  20.556  0.00  0.00    +0.000 C 
BRANCH  32  33
ATOM     33  C   UNL     1       0.513   8.865  21.596  0.00  0.00    +0.000 C 
ATOM     34  F   UNL     1       1.105   9.018  22.813  0.00  0.00    +0.000 F 
ENDBRANCH  32  33
ENDBRANCH  29  32
ENDBRANCH   6  29
TORSDOF 11
ENDMDL
MODEL 8
REMARK VINA RESULT:      -7.6      4.398      8.142
REMARK  Name = 
REMARK  11 active torsions:
REMARK  status: ('A' for Active; 'I' for Inactive)
REMARK    1  A    between atoms: N_1  and  C_2
REMARK    2  A    between atoms: C_2  and  C_4
REMARK    3  A    between atoms: C_8  and  C_9
REMARK    4  A    between atoms: N_11  and  C_12
REMARK    5  A    between atoms: C_12  and  C_13
REMARK    6  A    between atoms: C_13  and  C_14
REMARK    7  A    between atoms: C_13  and  C_17
REMARK    8  A    between atoms: C_22  and  C_23
REMARK    9  A    between atoms: C_23  and  O_24
REMARK   10  A    between atoms: C_23  and  C_25
REMARK   11  A    between atoms: C_25  and  C_26
REMARK                            x       y       z     vdW  Elec       q    Type
REMARK                         _______ _______ _______ _____ _____    ______ ____
ROOT
ATOM      1  C   UNL     1       2.526   6.876  18.499  0.00  0.00    +0.000 A 
ATOM      2  C   UNL     1       1.661   6.005  17.844  0.00  0.00    +0.000 A 
ATOM      3  N   UNL     1       2.399   4.867  17.734  0.00  0.00    +0.000 N 
ATOM      4  C   UNL     1       3.618   5.301  17.282  0.00  0.00    +0.000 A 
ATOM      5  C   UNL     1       4.559   4.582  16.554  0.00  0.00    +0.000 A 
ATOM      6  C   UNL     1       5.809   5.141  16.292  0.00  0.00    +0.000 A 
ATOM      7  C   UNL     1       6.075   6.400  16.859  0.00  0.00    +0.000 A 
ATOM      8  C   UNL     1       5.107   7.100  17.671  0.00  0.00    +0.000 A 
ATOM      9  C   UNL     1       3.802   6.571  17.854  0.00  0.00    +0.000 A 
ENDROOT
BRANCH   1  14
ATOM     10  C   UNL     1       0.770   9.963  19.883  0.00  0.00    +0.000 A 
ATOM     11  C   UNL     1       0.593   9.625  21.219  0.00  0.00    +0.000 A 
ATOM     12  C   UNL     1       1.068   8.385  21.694  0.00  0.00    +0.000 A 
ATOM     13  C   UNL     1       1.705   7.449  20.846  0.00  0.00    +0.000 A 
ATOM     14  C   UNL     1       1.909   7.759  19.511  0.00  0.00    +0.000 A 
ATOM     15  C   UNL     1       1.436   9.030  19.071  0.00  0.00    +0.000 A 
BRANCH  10  16
ATOM     16  C   UNL     1       0.243  11.249  19.309  0.00  0.00    +0.000 C 
ATOM     17  S   UNL     1       0.301  12.747  20.060  0.00  0.00    +0.000 S 
BRANCH  16  18
ATOM     18  N   UNL     1      -0.342  11.211  18.068  0.00  0.00    +0.000 N 
ATOM     19  H   UNL     1      -0.429  12.076  17.548  0.00  0.00    +0.000 HD
ATOM     20  H   UNL     1      -0.811  10.392  17.686  0.00  0.00    +0.000 HD
ENDBRANCH  16  18
ENDBRANCH  10  16
ENDBRANCH   1  14
BRANCH   3  21
ATOM     21  C   UNL     1       2.337   3.693  18.605  0.00  0.00    +0.000 C 
BRANCH  21  22
ATOM     22  C   UNL     1       3.022   3.756  19.965  0.00  0.00    +0.000 C 
BRANCH  22  23
ATOM     23  C   UNL     1       2.101   3.373  21.081  0.00  0.00    +0.000 C 
ATOM     24  F   UNL     1       2.402   4.025  22.228  0.00  0.00    +0.000 F 
ATOM     25  F   UNL     1       0.830   3.726  20.766  0.00  0.00    +0.000 F 
ENDBRANCH  22  23
BRANCH  22  26
ATOM     26  C   UNL     1       4.172   2.776  19.972  0.00  0.00    +0.000 C 
ATOM     27  F   UNL     1       3.895   1.736  19.145  0.00  0.00    +0.000 F 
ATOM     28  F   UNL     1       5.283   3.373  19.474  0.00  0.00    +0.000 F 
ENDBRANCH  22  26
ENDBRANCH  21  22
ENDBRANCH   3  21
BRANCH   6  29
ATOM     29  C   UNL     1       6.690   4.249  15.428  0.00  0.00    +0.000 C 
BRANCH  29  30
ATOM     30  O   UNL     1       6.147   2.923  15.460  0.00  0.00    +0.000 OA
ATOM     31  H   UNL     1       5.184   3.009  15.567  0.00  0.00    +0.000 HD
ENDBRANCH  29  30
BRANCH  29  32
ATOM     32  C   UNL     1       6.989   4.548  13.967  0.00  0.00    +0.000 C 
BRANCH  32  33
ATOM     33  C   UNL     1       6.223   3.670  13.005  0.00  0.00    +0.000 C 
ATOM     34  F   UNL     1       6.810   3.769  11.780  0.00  0.00    +0.000 F 
ENDBRANCH  32  33
ENDBRANCH  29  32
ENDBRANCH   6  29
TORSDOF 11
ENDMDL
MODEL 9
REMARK VINA RESULT:      -7.5      4.219      8.189
REMARK  Name = 
REMARK  11 active torsions:
REMARK  status: ('A' for Active; 'I' for Inactive)
REMARK    1  A    between atoms: N_1  and  C_2
REMARK    2  A    between atoms: C_2  and  C_4
REMARK    3  A    between atoms: C_8  and  C_9
REMARK    4  A    between atoms: N_11  and  C_12
REMARK    5  A    between atoms: C_12  and  C_13
REMARK    6  A    between atoms: C_13  and  C_14
REMARK    7  A    between atoms: C_13  and  C_17
REMARK    8  A    between atoms: C_22  and  C_23
REMARK    9  A    between atoms: C_23  and  O_24
REMARK   10  A    between atoms: C_23  and  C_25
REMARK   11  A    between atoms: C_25  and  C_26
REMARK                            x       y       z     vdW  Elec       q    Type
REMARK                         _______ _______ _______ _____ _____    ______ ____
ROOT
ATOM      1  C   UNL     1       2.584   6.802  18.439  0.00  0.00    +0.000 A 
ATOM      2  C   UNL     1       1.966   5.556  18.493  0.00  0.00    +0.000 A 
ATOM      3  N   UNL     1       3.016   4.692  18.442  0.00  0.00    +0.000 N 
ATOM      4  C   UNL     1       3.796   5.173  17.422  0.00  0.00    +0.000 A 
ATOM      5  C   UNL     1       4.690   4.463  16.629  0.00  0.00    +0.000 A 
ATOM      6  C   UNL     1       5.504   5.141  15.723  0.00  0.00    +0.000 A 
ATOM      7  C   UNL     1       5.422   6.545  15.720  0.00  0.00    +0.000 A 
ATOM      8  C   UNL     1       4.535   7.268  16.603  0.00  0.00    +0.000 A 
ATOM      9  C   UNL     1       3.640   6.569  17.454  0.00  0.00    +0.000 A 
ENDROOT
BRANCH   1  14
ATOM     10  C   UNL     1       1.090  10.193  19.332  0.00  0.00    +0.000 A 
ATOM     11  C   UNL     1       0.769  10.027  20.674  0.00  0.00    +0.000 A 
ATOM     12  C   UNL     1       1.059   8.805  21.315  0.00  0.00    +0.000 A 
ATOM     13  C   UNL     1       1.650   7.718  20.630  0.00  0.00    +0.000 A 
ATOM     14  C   UNL     1       1.994   7.853  19.294  0.00  0.00    +0.000 A 
ATOM     15  C   UNL     1       1.707   9.110  18.684  0.00  0.00    +0.000 A 
BRANCH  10  16
ATOM     16  C   UNL     1       0.761  11.454  18.583  0.00  0.00    +0.000 C 
ATOM     17  S   UNL     1       1.797  12.756  18.366  0.00  0.00    +0.000 S 
BRANCH  16  18
ATOM     18  N   UNL     1      -0.488  11.570  18.027  0.00  0.00    +0.000 N 
ATOM     19  H   UNL     1      -1.267  11.116  18.489  0.00  0.00    +0.000 HD
ATOM     20  H   UNL     1      -0.666  11.976  17.110  0.00  0.00    +0.000 HD
ENDBRANCH  16  18
ENDBRANCH  10  16
ENDBRANCH   1  14
BRANCH   3  21
ATOM     21  C   UNL     1       3.655   4.019  19.573  0.00  0.00    +0.000 C 
BRANCH  21  22
ATOM     22  C   UNL     1       2.963   2.810  20.190  0.00  0.00    +0.000 C 
BRANCH  22  23
ATOM     23  C   UNL     1       2.083   3.186  21.340  0.00  0.00    +0.000 C 
ATOM     24  F   UNL     1       2.354   4.431  21.795  0.00  0.00    +0.000 F 
ATOM     25  F   UNL     1       0.788   3.202  20.938  0.00  0.00    +0.000 F 
ENDBRANCH  22  23
BRANCH  22  26
ATOM     26  C   UNL     1       2.086   2.167  19.141  0.00  0.00    +0.000 C 
ATOM     27  F   UNL     1       2.832   1.843  18.053  0.00  0.00    +0.000 F 
ATOM     28  F   UNL     1       1.583   1.002  19.618  0.00  0.00    +0.000 F 
ENDBRANCH  22  26
ENDBRANCH  21  22
ENDBRANCH   3  21
BRANCH   6  29
ATOM     29  C   UNL     1       6.372   4.209  14.890  0.00  0.00    +0.000 C 
BRANCH  29  30
ATOM     30  O   UNL     1       6.283   2.895  15.455  0.00  0.00    +0.000 OA
ATOM     31  H   UNL     1       5.363   2.769  15.747  0.00  0.00    +0.000 HD
ENDBRANCH  29  30
BRANCH  29  32
ATOM     32  C   UNL     1       6.195   4.035  13.389  0.00  0.00    +0.000 C 
BRANCH  32  33
ATOM     33  C   UNL     1       7.241   4.757  12.573  0.00  0.00    +0.000 C 
ATOM     34  F   UNL     1       8.032   5.464  13.426  0.00  0.00    +0.000 F 
ENDBRANCH  32  33
ENDBRANCH  29  32
ENDBRANCH   6  29
TORSDOF 11
ENDMDL
