MODEL 1
REMARK VINA RESULT:      -7.3      0.000      0.000
REMARK  Name = 
REMARK  5 active torsions:
REMARK  status: ('A' for Active; 'I' for Inactive)
REMARK    1  A    between atoms: C_2  and  O_3
REMARK    2  A    between atoms: C_2  and  C_4
REMARK    3  A    between atoms: C_8  and  C_9
REMARK    4  A    between atoms: C_9  and  C_10
REMARK    5  A    between atoms: C_16  and  O_17
REMARK                            x       y       z     vdW  Elec       q    Type
REMARK                         _______ _______ _______ _____ _____    ______ ____
ROOT
ATOM      1  C   UNL     1       5.956   5.297  16.551  0.00  0.00    +0.000 A 
ATOM      2  C   UNL     1       5.663   6.642  16.822  0.00  0.00    +0.000 A 
ATOM      3  C   UNL     1       4.411   7.005  17.310  0.00  0.00    +0.000 A 
ATOM      4  C   UNL     1       3.442   6.027  17.544  0.00  0.00    +0.000 A 
ATOM      5  C   UNL     1       3.704   4.675  17.277  0.00  0.00    +0.000 A 
ATOM      6  C   UNL     1       4.965   4.324  16.758  0.00  0.00    +0.000 A 
ENDROOT
BRANCH   1   8
ATOM      7  O   UNL     1       7.753   5.468  15.001  0.00  0.00    +0.000 OA
ATOM      8  C   UNL     1       7.319   4.986  16.034  0.00  0.00    +0.000 C 
BRANCH   8   9
ATOM      9  O   UNL     1       8.054   4.196  16.840  0.00  0.00    +0.000 OA
ATOM     10  H   UNL     1       7.503   3.723  17.501  0.00  0.00    +0.000 HD
ENDBRANCH   8   9
ENDBRANCH   1   8
BRANCH   6  11
ATOM     11  O   UNL     1       5.250   3.017  16.452  0.00  0.00    +0.000 OA
ATOM     12  H   UNL     1       5.403   2.963  15.488  0.00  0.00    +0.000 HD
ENDBRANCH   6  11
BRANCH   5  13
ATOM     13  C   UNL     1       2.614   3.659  17.554  0.00  0.00    +0.000 C 
BRANCH  13  14
ATOM     14  C   UNL     1       2.391   3.270  19.002  0.00  0.00    +0.000 A 
ATOM     15  C   UNL     1       3.401   2.779  19.841  0.00  0.00    +0.000 A 
ATOM     16  C   UNL     1       3.136   2.486  21.182  0.00  0.00    +0.000 A 
ATOM     17  C   UNL     1       1.856   2.665  21.699  0.00  0.00    +0.000 A 
ATOM     18  C   UNL     1       0.832   3.115  20.871  0.00  0.00    +0.000 A 
ATOM     19  C   UNL     1       1.097   3.412  19.532  0.00  0.00    +0.000 A 
ENDBRANCH  13  14
ENDBRANCH   5  13
TORSDOF 5
ENDMDL
MODEL 2
REMARK VINA RESULT:      -7.2      1.833      2.475
REMARK  Name = 
REMARK  5 active torsions:
REMARK  status: ('A' for Active; 'I' for Inactive)
REMARK    1  A    between atoms: C_2  and  O_3
REMARK    2  A    between atoms: C_2  and  C_4
REMARK    3  A    between atoms: C_8  and  C_9
REMARK    4  A    between atoms: C_9  and  C_10
REMARK    5  A    between atoms: C_16  and  O_17
REMARK                            x       y       z     vdW  Elec       q    Type
REMARK                         _______ _______ _______ _____ _____    ______ ____
ROOT
ATOM      1  C   UNL     1       6.604   5.541  17.826  0.00  0.00    +0.000 A 
ATOM      2  C   UNL     1       6.699   5.961  16.490  0.00  0.00    +0.000 A 
ATOM      3  C   UNL     1       5.595   6.513  15.847  0.00  0.00    +0.000 A 
ATOM      4  C   UNL     1       4.388   6.662  16.532  0.00  0.00    +0.000 A 
ATOM      5  C   UNL     1       4.262   6.247  17.867  0.00  0.00    +0.000 A 
ATOM      6  C   UNL     1       5.377   5.666  18.499  0.00  0.00    +0.000 A 
ENDROOT
BRANCH   1   8
ATOM      7  O   UNL     1       8.218   5.292  19.557  0.00  0.00    +0.000 OA
ATOM      8  C   UNL     1       7.829   4.963  18.448  0.00  0.00    +0.000 C 
BRANCH   8   9
ATOM      9  O   UNL     1       8.421   3.997  17.720  0.00  0.00    +0.000 OA
ATOM     10  H   UNL     1       8.321   4.145  16.754  0.00  0.00    +0.000 HD
ENDBRANCH   8   9
ENDBRANCH   1   8
BRANCH   6  11
ATOM     11  O   UNL     1       5.286   5.216  19.792  0.00  0.00    +0.000 OA
ATOM     12  H   UNL     1       5.015   5.971  20.352  0.00  0.00    +0.000 HD
ENDBRANCH   6  11
BRANCH   5  13
ATOM     13  C   UNL     1       2.928   6.439  18.560  0.00  0.00    +0.000 C 
BRANCH  13  14
ATOM     14  C   UNL     1       2.192   5.187  18.992  0.00  0.00    +0.000 A 
ATOM     15  C   UNL     1       1.769   4.947  20.308  0.00  0.00    +0.000 A 
ATOM     16  C   UNL     1       1.051   3.791  20.627  0.00  0.00    +0.000 A 
ATOM     17  C   UNL     1       0.759   2.852  19.642  0.00  0.00    +0.000 A 
ATOM     18  C   UNL     1       1.204   3.055  18.339  0.00  0.00    +0.000 A 
ATOM     19  C   UNL     1       1.918   4.212  18.018  0.00  0.00    +0.000 A 
ENDBRANCH  13  14
ENDBRANCH   5  13
TORSDOF 5
ENDMDL
MODEL 3
REMARK VINA RESULT:      -7.2      1.728      2.361
REMARK  Name = 
REMARK  5 active torsions:
REMARK  status: ('A' for Active; 'I' for Inactive)
REMARK    1  A    between atoms: C_2  and  O_3
REMARK    2  A    between atoms: C_2  and  C_4
REMARK    3  A    between atoms: C_8  and  C_9
REMARK    4  A    between atoms: C_9  and  C_10
REMARK    5  A    between atoms: C_16  and  O_17
REMARK                            x       y       z     vdW  Elec       q    Type
REMARK                         _______ _______ _______ _____ _____    ______ ____
ROOT
ATOM      1  C   UNL     1       6.445   5.560  17.782  0.00  0.00    +0.000 A 
ATOM      2  C   UNL     1       6.425   6.097  16.486  0.00  0.00    +0.000 A 
ATOM      3  C   UNL     1       5.267   6.686  15.987  0.00  0.00    +0.000 A 
ATOM      4  C   UNL     1       4.120   6.755  16.780  0.00  0.00    +0.000 A 
ATOM      5  C   UNL     1       4.109   6.222  18.078  0.00  0.00    +0.000 A 
ATOM      6  C   UNL     1       5.278   5.605  18.562  0.00  0.00    +0.000 A 
ENDROOT
BRANCH   1   8
ATOM      7  O   UNL     1       8.198   5.182  19.347  0.00  0.00    +0.000 OA
ATOM      8  C   UNL     1       7.723   4.949  18.248  0.00  0.00    +0.000 C 
BRANCH   8   9
ATOM      9  O   UNL     1       8.262   4.063  17.388  0.00  0.00    +0.000 OA
ATOM     10  H   UNL     1       8.024   4.257  16.455  0.00  0.00    +0.000 HD
ENDBRANCH   8   9
ENDBRANCH   1   8
BRANCH   6  11
ATOM     11  O   UNL     1       5.298   5.041  19.813  0.00  0.00    +0.000 OA
ATOM     12  H   UNL     1       5.068   4.095  19.718  0.00  0.00    +0.000 HD
ENDBRANCH   6  11
BRANCH   5  13
ATOM     13  C   UNL     1       2.836   6.330  18.893  0.00  0.00    +0.000 C 
BRANCH  13  14
ATOM     14  C   UNL     1       2.090   5.042  19.176  0.00  0.00    +0.000 A 
ATOM     15  C   UNL     1       1.680   4.144  18.179  0.00  0.00    +0.000 A 
ATOM     16  C   UNL     1       1.039   2.949  18.515  0.00  0.00    +0.000 A 
ATOM     17  C   UNL     1       0.784   2.640  19.848  0.00  0.00    +0.000 A 
ATOM     18  C   UNL     1       1.149   3.536  20.848  0.00  0.00    +0.000 A 
ATOM     19  C   UNL     1       1.794   4.729  20.514  0.00  0.00    +0.000 A 
ENDBRANCH  13  14
ENDBRANCH   5  13
TORSDOF 5
ENDMDL
MODEL 4
REMARK VINA RESULT:      -7.2      2.081      2.498
REMARK  Name = 
REMARK  5 active torsions:
REMARK  status: ('A' for Active; 'I' for Inactive)
REMARK    1  A    between atoms: C_2  and  O_3
REMARK    2  A    between atoms: C_2  and  C_4
REMARK    3  A    between atoms: C_8  and  C_9
REMARK    4  A    between atoms: C_9  and  C_10
REMARK    5  A    between atoms: C_16  and  O_17
REMARK                            x       y       z     vdW  Elec       q    Type
REMARK                         _______ _______ _______ _____ _____    ______ ____
ROOT
ATOM      1  C   UNL     1       6.704   5.851  18.265  0.00  0.00    +0.000 A 
ATOM      2  C   UNL     1       6.633   6.883  17.316  0.00  0.00    +0.000 A 
ATOM      3  C   UNL     1       5.691   6.832  16.292  0.00  0.00    +0.000 A 
ATOM      4  C   UNL     1       4.803   5.758  16.211  0.00  0.00    +0.000 A 
ATOM      5  C   UNL     1       4.855   4.709  17.143  0.00  0.00    +0.000 A 
ATOM      6  C   UNL     1       5.828   4.758  18.158  0.00  0.00    +0.000 A 
ENDROOT
BRANCH   1   8
ATOM      7  O   UNL     1       7.820   5.188  20.260  0.00  0.00    +0.000 OA
ATOM      8  C   UNL     1       7.735   5.978  19.334  0.00  0.00    +0.000 C 
BRANCH   8   9
ATOM      9  O   UNL     1       8.609   6.987  19.148  0.00  0.00    +0.000 OA
ATOM     10  H   UNL     1       8.346   7.575  18.407  0.00  0.00    +0.000 HD
ENDBRANCH   8   9
ENDBRANCH   1   8
BRANCH   6  11
ATOM     11  O   UNL     1       5.933   3.737  19.069  0.00  0.00    +0.000 OA
ATOM     12  H   UNL     1       5.097   3.231  19.047  0.00  0.00    +0.000 HD
ENDBRANCH   6  11
BRANCH   5  13
ATOM     13  C   UNL     1       3.862   3.572  17.006  0.00  0.00    +0.000 C 
BRANCH  13  14
ATOM     14  C   UNL     1       2.770   3.483  18.053  0.00  0.00    +0.000 A 
ATOM     15  C   UNL     1       2.465   4.518  18.949  0.00  0.00    +0.000 A 
ATOM     16  C   UNL     1       1.411   4.388  19.858  0.00  0.00    +0.000 A 
ATOM     17  C   UNL     1       0.657   3.218  19.895  0.00  0.00    +0.000 A 
ATOM     18  C   UNL     1       0.970   2.166  19.039  0.00  0.00    +0.000 A 
ATOM     19  C   UNL     1       2.021   2.297  18.128  0.00  0.00    +0.000 A 
ENDBRANCH  13  14
ENDBRANCH   5  13
TORSDOF 5
ENDMDL
MODEL 5
REMARK VINA RESULT:      -7.2      2.041      2.426
REMARK  Name = 
REMARK  5 active torsions:
REMARK  status: ('A' for Active; 'I' for Inactive)
REMARK    1  A    between atoms: C_2  and  O_3
REMARK    2  A    between atoms: C_2  and  C_4
REMARK    3  A    between atoms: C_8  and  C_9
REMARK    4  A    between atoms: C_9  and  C_10
REMARK    5  A    between atoms: C_16  and  O_17
REMARK                            x       y       z     vdW  Elec       q    Type
REMARK                         _______ _______ _______ _____ _____    ______ ____
ROOT
ATOM      1  C   UNL     1       6.740   5.903  18.129  0.00  0.00    +0.000 A 
ATOM      2  C   UNL     1       6.590   6.932  17.187  0.00  0.00    +0.000 A 
ATOM      3  C   UNL     1       5.563   6.881  16.248  0.00  0.00    +0.000 A 
ATOM      4  C   UNL     1       4.669   5.809  16.247  0.00  0.00    +0.000 A 
ATOM      5  C   UNL     1       4.798   4.763  17.174  0.00  0.00    +0.000 A 
ATOM      6  C   UNL     1       5.856   4.812  18.101  0.00  0.00    +0.000 A 
ENDROOT
BRANCH   1   8
ATOM      7  O   UNL     1       8.174   5.127  19.862  0.00  0.00    +0.000 OA
ATOM      8  C   UNL     1       7.860   6.030  19.105  0.00  0.00    +0.000 C 
BRANCH   8   9
ATOM      9  O   UNL     1       8.541   7.189  19.022  0.00  0.00    +0.000 OA
ATOM     10  H   UNL     1       9.233   7.166  18.325  0.00  0.00    +0.000 HD
ENDBRANCH   8   9
ENDBRANCH   1   8
BRANCH   6  11
ATOM     11  O   UNL     1       6.037   3.793  19.002  0.00  0.00    +0.000 OA
ATOM     12  H   UNL     1       6.430   4.177  19.811  0.00  0.00    +0.000 HD
ENDBRANCH   6  11
BRANCH   5  13
ATOM     13  C   UNL     1       3.795   3.628  17.127  0.00  0.00    +0.000 C 
BRANCH  13  14
ATOM     14  C   UNL     1       2.702   3.633  18.177  0.00  0.00    +0.000 A 
ATOM     15  C   UNL     1       1.752   2.610  18.318  0.00  0.00    +0.000 A 
ATOM     16  C   UNL     1       0.801   2.656  19.341  0.00  0.00    +0.000 A 
ATOM     17  C   UNL     1       0.777   3.728  20.229  0.00  0.00    +0.000 A 
ATOM     18  C   UNL     1       1.687   4.770  20.081  0.00  0.00    +0.000 A 
ATOM     19  C   UNL     1       2.640   4.724  19.061  0.00  0.00    +0.000 A 
ENDBRANCH  13  14
ENDBRANCH   5  13
TORSDOF 5
ENDMDL
MODEL 6
REMARK VINA RESULT:      -7.1      1.111      1.333
REMARK  Name = 
REMARK  5 active torsions:
REMARK  status: ('A' for Active; 'I' for Inactive)
REMARK    1  A    between atoms: C_2  and  O_3
REMARK    2  A    between atoms: C_2  and  C_4
REMARK    3  A    between atoms: C_8  and  C_9
REMARK    4  A    between atoms: C_9  and  C_10
REMARK    5  A    between atoms: C_16  and  O_17
REMARK                            x       y       z     vdW  Elec       q    Type
REMARK                         _______ _______ _______ _____ _____    ______ ____
ROOT
ATOM      1  C   UNL     1       5.820   4.969  15.577  0.00  0.00    +0.000 A 
ATOM      2  C   UNL     1       5.323   6.195  16.044  0.00  0.00    +0.000 A 
ATOM      3  C   UNL     1       4.349   6.225  17.039  0.00  0.00    +0.000 A 
ATOM      4  C   UNL     1       3.870   5.033  17.585  0.00  0.00    +0.000 A 
ATOM      5  C   UNL     1       4.345   3.792  17.133  0.00  0.00    +0.000 A 
ATOM      6  C   UNL     1       5.310   3.773  16.109  0.00  0.00    +0.000 A 
ENDROOT
BRANCH   1   8
ATOM      7  O   UNL     1       7.902   5.646  14.643  0.00  0.00    +0.000 OA
ATOM      8  C   UNL     1       6.864   5.017  14.514  0.00  0.00    +0.000 C 
BRANCH   8   9
ATOM      9  O   UNL     1       6.601   4.249  13.439  0.00  0.00    +0.000 OA
ATOM     10  H   UNL     1       6.907   4.662  12.602  0.00  0.00    +0.000 HD
ENDBRANCH   8   9
ENDBRANCH   1   8
BRANCH   6  11
ATOM     11  O   UNL     1       5.776   2.580  15.616  0.00  0.00    +0.000 OA
ATOM     12  H   UNL     1       5.312   1.861  16.088  0.00  0.00    +0.000 HD
ENDBRANCH   6  11
BRANCH   5  13
ATOM     13  C   UNL     1       3.790   2.532  17.767  0.00  0.00    +0.000 C 
BRANCH  13  14
ATOM     14  C   UNL     1       2.932   2.706  19.004  0.00  0.00    +0.000 A 
ATOM     15  C   UNL     1       3.435   2.666  20.313  0.00  0.00    +0.000 A 
ATOM     16  C   UNL     1       2.594   2.884  21.408  0.00  0.00    +0.000 A 
ATOM     17  C   UNL     1       1.238   3.131  21.212  0.00  0.00    +0.000 A 
ATOM     18  C   UNL     1       0.714   3.138  19.922  0.00  0.00    +0.000 A 
ATOM     19  C   UNL     1       1.555   2.923  18.828  0.00  0.00    +0.000 A 
ENDBRANCH  13  14
ENDBRANCH   5  13
TORSDOF 5
ENDMDL
MODEL 7
REMARK VINA RESULT:      -7.1      2.102      2.689
REMARK  Name = 
REMARK  5 active torsions:
REMARK  status: ('A' for Active; 'I' for Inactive)
REMARK    1  A    between atoms: C_2  and  O_3
REMARK    2  A    between atoms: C_2  and  C_4
REMARK    3  A    between atoms: C_8  and  C_9
REMARK    4  A    between atoms: C_9  and  C_10
REMARK    5  A    between atoms: C_16  and  O_17
REMARK                            x       y       z     vdW  Elec       q    Type
REMARK                         _______ _______ _______ _____ _____    ______ ____
ROOT
ATOM      1  C   UNL     1       6.781   5.297  18.291  0.00  0.00    +0.000 A 
ATOM      2  C   UNL     1       7.343   4.750  17.128  0.00  0.00    +0.000 A 
ATOM      3  C   UNL     1       6.525   4.282  16.104  0.00  0.00    +0.000 A 
ATOM      4  C   UNL     1       5.136   4.365  16.225  0.00  0.00    +0.000 A 
ATOM      5  C   UNL     1       4.546   4.902  17.380  0.00  0.00    +0.000 A 
ATOM      6  C   UNL     1       5.383   5.347  18.419  0.00  0.00    +0.000 A 
ENDROOT
BRANCH   1   8
ATOM      7  O   UNL     1       7.877   5.195  20.402  0.00  0.00    +0.000 OA
ATOM      8  C   UNL     1       7.722   5.780  19.342  0.00  0.00    +0.000 C 
BRANCH   8   9
ATOM      9  O   UNL     1       8.439   6.865  18.991  0.00  0.00    +0.000 OA
ATOM     10  H   UNL     1       9.372   6.809  19.293  0.00  0.00    +0.000 HD
ENDBRANCH   8   9
ENDBRANCH   1   8
BRANCH   6  11
ATOM     11  O   UNL     1       4.845   5.848  19.578  0.00  0.00    +0.000 OA
ATOM     12  H   UNL     1       4.857   6.824  19.516  0.00  0.00    +0.000 HD
ENDBRANCH   6  11
BRANCH   5  13
ATOM     13  C   UNL     1       3.033   4.969  17.452  0.00  0.00    +0.000 C 
BRANCH  13  14
ATOM     14  C   UNL     1       2.356   4.094  18.487  0.00  0.00    +0.000 A 
ATOM     15  C   UNL     1       2.310   2.694  18.414  0.00  0.00    +0.000 A 
ATOM     16  C   UNL     1       1.710   1.945  19.430  0.00  0.00    +0.000 A 
ATOM     17  C   UNL     1       1.136   2.583  20.526  0.00  0.00    +0.000 A 
ATOM     18  C   UNL     1       1.138   3.973  20.597  0.00  0.00    +0.000 A 
ATOM     19  C   UNL     1       1.740   4.722  19.584  0.00  0.00    +0.000 A 
ENDBRANCH  13  14
ENDBRANCH   5  13
TORSDOF 5
ENDMDL
MODEL 8
REMARK VINA RESULT:      -7.1      2.118      2.543
REMARK  Name = 
REMARK  5 active torsions:
REMARK  status: ('A' for Active; 'I' for Inactive)
REMARK    1  A    between atoms: C_2  and  O_3
REMARK    2  A    between atoms: C_2  and  C_4
REMARK    3  A    between atoms: C_8  and  C_9
REMARK    4  A    between atoms: C_9  and  C_10
REMARK    5  A    between atoms: C_16  and  O_17
REMARK                            x       y       z     vdW  Elec       q    Type
REMARK                         _______ _______ _______ _____ _____    ______ ____
ROOT
ATOM      1  C   UNL     1       6.690   6.060  17.559  0.00  0.00    +0.000 A 
ATOM      2  C   UNL     1       6.298   5.862  16.227  0.00  0.00    +0.000 A 
ATOM      3  C   UNL     1       5.425   4.829  15.897  0.00  0.00    +0.000 A 
ATOM      4  C   UNL     1       4.926   3.990  16.895  0.00  0.00    +0.000 A 
ATOM      5  C   UNL     1       5.306   4.161  18.236  0.00  0.00    +0.000 A 
ATOM      6  C   UNL     1       6.209   5.192  18.553  0.00  0.00    +0.000 A 
ENDROOT
BRANCH   1   8
ATOM      7  O   UNL     1       7.602   8.228  17.194  0.00  0.00    +0.000 OA
ATOM      8  C   UNL     1       7.624   7.190  17.835  0.00  0.00    +0.000 C 
BRANCH   8   9
ATOM      9  O   UNL     1       8.434   6.998  18.894  0.00  0.00    +0.000 OA
ATOM     10  H   UNL     1       9.363   7.249  18.703  0.00  0.00    +0.000 HD
ENDBRANCH   8   9
ENDBRANCH   1   8
BRANCH   6  11
ATOM     11  O   UNL     1       6.631   5.372  19.846  0.00  0.00    +0.000 OA
ATOM     12  H   UNL     1       7.423   5.945  19.825  0.00  0.00    +0.000 HD
ENDBRANCH   6  11
BRANCH   5  13
ATOM     13  C   UNL     1       4.727   3.221  19.275  0.00  0.00    +0.000 C 
BRANCH  13  14
ATOM     14  C   UNL     1       3.226   3.259  19.475  0.00  0.00    +0.000 A 
ATOM     15  C   UNL     1       2.333   2.383  18.841  0.00  0.00    +0.000 A 
ATOM     16  C   UNL     1       0.963   2.442  19.110  0.00  0.00    +0.000 A 
ATOM     17  C   UNL     1       0.463   3.386  20.003  0.00  0.00    +0.000 A 
ATOM     18  C   UNL     1       1.329   4.288  20.612  0.00  0.00    +0.000 A 
ATOM     19  C   UNL     1       2.699   4.228  20.348  0.00  0.00    +0.000 A 
ENDBRANCH  13  14
ENDBRANCH   5  13
TORSDOF 5
ENDMDL
MODEL 9
REMARK VINA RESULT:      -7.1      2.159      2.555
REMARK  Name = 
REMARK  5 active torsions:
REMARK  status: ('A' for Active; 'I' for Inactive)
REMARK    1  A    between atoms: C_2  and  O_3
REMARK    2  A    between atoms: C_2  and  C_4
REMARK    3  A    between atoms: C_8  and  C_9
REMARK    4  A    between atoms: C_9  and  C_10
REMARK    5  A    between atoms: C_16  and  O_17
REMARK                            x       y       z     vdW  Elec       q    Type
REMARK                         _______ _______ _______ _____ _____    ______ ____
ROOT
ATOM      1  C   UNL     1       6.733   6.111  17.560  0.00  0.00    +0.000 A 
ATOM      2  C   UNL     1       6.363   5.929  16.219  0.00  0.00    +0.000 A 
ATOM      3  C   UNL     1       5.501   4.895  15.861  0.00  0.00    +0.000 A 
ATOM      4  C   UNL     1       4.992   4.040  16.840  0.00  0.00    +0.000 A 
ATOM      5  C   UNL     1       5.349   4.195  18.188  0.00  0.00    +0.000 A 
ATOM      6  C   UNL     1       6.242   5.226  18.534  0.00  0.00    +0.000 A 
ENDROOT
BRANCH   1   8
ATOM      7  O   UNL     1       7.628   8.294  17.248  0.00  0.00    +0.000 OA
ATOM      8  C   UNL     1       7.656   7.242  17.865  0.00  0.00    +0.000 C 
BRANCH   8   9
ATOM      9  O   UNL     1       8.462   7.032  18.924  0.00  0.00    +0.000 OA
ATOM     10  H   UNL     1       9.391   7.296  18.743  0.00  0.00    +0.000 HD
ENDBRANCH   8   9
ENDBRANCH   1   8
BRANCH   6  11
ATOM     11  O   UNL     1       6.642   5.390  19.836  0.00  0.00    +0.000 OA
ATOM     12  H   UNL     1       6.005   4.916  20.406  0.00  0.00    +0.000 HD
ENDBRANCH   6  11
BRANCH   5  13
ATOM     13  C   UNL     1       4.761   3.237  19.205  0.00  0.00    +0.000 C 
BRANCH  13  14
ATOM     14  C   UNL     1       3.329   3.487  19.635  0.00  0.00    +0.000 A 
ATOM     15  C   UNL     1       2.905   4.650  20.296  0.00  0.00    +0.000 A 
ATOM     16  C   UNL     1       1.559   4.836  20.620  0.00  0.00    +0.000 A 
ATOM     17  C   UNL     1       0.619   3.860  20.301  0.00  0.00    +0.000 A 
ATOM     18  C   UNL     1       1.027   2.684  19.679  0.00  0.00    +0.000 A 
ATOM     19  C   UNL     1       2.372   2.497  19.352  0.00  0.00    +0.000 A 
ENDBRANCH  13  14
ENDBRANCH   5  13
TORSDOF 5
ENDMDL
