MODEL 1
REMARK VINA RESULT:      -7.6      0.000      0.000
REMARK  Name = 
REMARK  8 active torsions:
REMARK  status: ('A' for Active; 'I' for Inactive)
REMARK    1  A    between atoms: C_1  and  C_2
REMARK    2  A    between atoms: C_2  and  N_3
REMARK    3  A    between atoms: C_2  and  C_14
REMARK    4  A    between atoms: N_3  and  S_4
REMARK    5  A    between atoms: S_4  and  C_7
REMARK    6  A    between atoms: N_16  and  C_17
REMARK    7  A    between atoms: N_16  and  C_18
REMARK    8  A    between atoms: N_21  and  C_22
REMARK                            x       y       z     vdW  Elec       q    Type
REMARK                         _______ _______ _______ _____ _____    ______ ____
ROOT
ATOM      1  C   UNL     1       7.738   7.350  17.686  0.00  0.00    +0.000 C 
ATOM      2  C   UNL     1       6.281   7.059  17.349  0.00  0.00    +0.000 C 
ENDROOT
BRANCH   2   3
ATOM      3  C   UNL     1       5.741   6.107  18.427  0.00  0.00    +0.000 C 
ATOM      4  O   UNL     1       6.538   5.577  19.209  0.00  0.00    +0.000 OA
ATOM      5  N   UNL     1       4.366   5.878  18.531  0.00  0.00    +0.000 N 
ATOM      6  C   UNL     1       3.337   6.440  17.661  0.00  0.00    +0.000 C 
BRANCH   5   7
ATOM      7  C   UNL     1       3.891   4.963  19.599  0.00  0.00    +0.000 C 
ATOM      8  C   UNL     1       3.601   3.549  19.071  0.00  0.00    +0.000 C 
ATOM      9  C   UNL     1       3.007   2.647  20.148  0.00  0.00    +0.000 C 
ATOM     10  N   UNL     1       1.821   3.260  20.758  0.00  0.00    +0.000 NA
ATOM     11  C   UNL     1       1.229   2.347  21.740  0.00  0.00    +0.000 C 
ATOM     12  C   UNL     1       2.143   4.546  21.387  0.00  0.00    +0.000 C 
ATOM     13  C   UNL     1       2.691   5.541  20.365  0.00  0.00    +0.000 C 
ENDBRANCH   5   7
ENDBRANCH   2   3
BRANCH   2  14
ATOM     14  N   UNL     1       6.160   6.479  15.985  0.00  0.00    +0.000 NA
ATOM     15  H   UNL     1       6.589   7.029  15.238  0.00  0.00    +0.000 HD
BRANCH  14  16
ATOM     16  S   UNL     1       6.576   4.845  15.824  0.00  0.00    +0.000 S 
ATOM     17  O   UNL     1       7.883   4.692  16.388  0.00  0.00    +0.000 OA
ATOM     18  O   UNL     1       5.440   4.063  16.289  0.00  0.00    +0.000 OA
BRANCH  16  19
ATOM     19  C   UNL     1       6.714   4.561  14.083  0.00  0.00    +0.000 A 
ATOM     20  C   UNL     1       7.654   5.305  13.372  0.00  0.00    +0.000 A 
ATOM     21  C   UNL     1       7.873   5.022  12.029  0.00  0.00    +0.000 A 
ATOM     22  C   UNL     1       7.140   4.014  11.401  0.00  0.00    +0.000 A 
ATOM     23  C   UNL     1       6.186   3.288  12.118  0.00  0.00    +0.000 A 
ATOM     24 CL   UNL     1       5.297   2.044  11.330  0.00  0.00    +0.000 Cl
ATOM     25  C   UNL     1       5.968   3.548  13.467  0.00  0.00    +0.000 A 
ENDBRANCH  16  19
ENDBRANCH  14  16
ENDBRANCH   2  14
TORSDOF 5
ENDMDL
MODEL 2
REMARK VINA RESULT:      -7.0      2.594      4.059
REMARK  Name = 
REMARK  8 active torsions:
REMARK  status: ('A' for Active; 'I' for Inactive)
REMARK    1  A    between atoms: C_1  and  C_2
REMARK    2  A    between atoms: C_2  and  N_3
REMARK    3  A    between atoms: C_2  and  C_14
REMARK    4  A    between atoms: N_3  and  S_4
REMARK    5  A    between atoms: S_4  and  C_7
REMARK    6  A    between atoms: N_16  and  C_17
REMARK    7  A    between atoms: N_16  and  C_18
REMARK    8  A    between atoms: N_21  and  C_22
REMARK                            x       y       z     vdW  Elec       q    Type
REMARK                         _______ _______ _______ _____ _____    ______ ____
ROOT
ATOM      1  C   UNL     1       2.888   2.050  17.903  0.00  0.00    +0.000 C 
ATOM      2  C   UNL     1       3.665   3.356  17.800  0.00  0.00    +0.000 C 
ENDROOT
BRANCH   2   3
ATOM      3  C   UNL     1       2.680   4.500  18.087  0.00  0.00    +0.000 C 
ATOM      4  O   UNL     1       1.585   4.503  17.515  0.00  0.00    +0.000 OA
ATOM      5  N   UNL     1       3.017   5.499  19.006  0.00  0.00    +0.000 N 
ATOM      6  C   UNL     1       4.280   5.602  19.731  0.00  0.00    +0.000 C 
BRANCH   5   7
ATOM      7  C   UNL     1       2.026   6.574  19.261  0.00  0.00    +0.000 C 
ATOM      8  C   UNL     1       2.372   7.875  18.520  0.00  0.00    +0.000 C 
ATOM      9  C   UNL     1       1.414   9.007  18.877  0.00  0.00    +0.000 C 
ATOM     10  N   UNL     1       1.342   9.205  20.329  0.00  0.00    +0.000 NA
ATOM     11  C   UNL     1       0.470  10.340  20.642  0.00  0.00    +0.000 C 
ATOM     12  C   UNL     1       0.870   7.994  21.013  0.00  0.00    +0.000 C 
ATOM     13  C   UNL     1       1.808   6.815  20.763  0.00  0.00    +0.000 C 
ENDBRANCH   5   7
ENDBRANCH   2   3
BRANCH   2  14
ATOM     14  N   UNL     1       4.298   3.492  16.462  0.00  0.00    +0.000 NA
ATOM     15  H   UNL     1       3.647   3.534  15.675  0.00  0.00    +0.000 HD
BRANCH  14  16
ATOM     16  S   UNL     1       5.482   4.693  16.308  0.00  0.00    +0.000 S 
ATOM     17  O   UNL     1       4.799   5.951  16.310  0.00  0.00    +0.000 OA
ATOM     18  O   UNL     1       6.534   4.387  17.267  0.00  0.00    +0.000 OA
BRANCH  16  19
ATOM     19  C   UNL     1       6.177   4.470  14.697  0.00  0.00    +0.000 A 
ATOM     20  C   UNL     1       5.555   3.568  13.836  0.00  0.00    +0.000 A 
ATOM     21  C   UNL     1       6.000   3.458  12.524  0.00  0.00    +0.000 A 
ATOM     22  C   UNL     1       7.075   4.234  12.087  0.00  0.00    +0.000 A 
ATOM     23  C   UNL     1       7.705   5.121  12.964  0.00  0.00    +0.000 A 
ATOM     24 CL   UNL     1       9.022   6.074  12.405  0.00  0.00    +0.000 Cl
ATOM     25  C   UNL     1       7.258   5.254  14.274  0.00  0.00    +0.000 A 
ENDBRANCH  16  19
ENDBRANCH  14  16
ENDBRANCH   2  14
TORSDOF 5
ENDMDL
MODEL 3
REMARK VINA RESULT:      -6.9      4.984      6.498
REMARK  Name = 
REMARK  8 active torsions:
REMARK  status: ('A' for Active; 'I' for Inactive)
REMARK    1  A    between atoms: C_1  and  C_2
REMARK    2  A    between atoms: C_2  and  N_3
REMARK    3  A    between atoms: C_2  and  C_14
REMARK    4  A    between atoms: N_3  and  S_4
REMARK    5  A    between atoms: S_4  and  C_7
REMARK    6  A    between atoms: N_16  and  C_17
REMARK    7  A    between atoms: N_16  and  C_18
REMARK    8  A    between atoms: N_21  and  C_22
REMARK                            x       y       z     vdW  Elec       q    Type
REMARK                         _______ _______ _______ _____ _____    ______ ____
ROOT
ATOM      1  C   UNL     1       3.068   7.974  17.942  0.00  0.00    +0.000 C 
ATOM      2  C   UNL     1       2.193   7.296  18.989  0.00  0.00    +0.000 C 
ENDROOT
BRANCH   2   3
ATOM      3  C   UNL     1       1.609   8.399  19.884  0.00  0.00    +0.000 C 
ATOM      4  O   UNL     1       1.757   8.316  21.108  0.00  0.00    +0.000 OA
ATOM      5  N   UNL     1       0.950   9.490  19.309  0.00  0.00    +0.000 N 
ATOM      6  C   UNL     1       0.709   9.689  17.883  0.00  0.00    +0.000 C 
BRANCH   5   7
ATOM      7  C   UNL     1       0.416  10.539  20.215  0.00  0.00    +0.000 C 
ATOM      8  C   UNL     1      -1.055  10.871  19.920  0.00  0.00    +0.000 C 
ATOM      9  C   UNL     1      -1.561  12.027  20.778  0.00  0.00    +0.000 C 
ATOM     10  N   UNL     1      -0.695  13.204  20.648  0.00  0.00    +0.000 NA
ATOM     11  C   UNL     1      -1.239  14.321  21.425  0.00  0.00    +0.000 C 
ATOM     12  C   UNL     1       0.680  12.910  21.071  0.00  0.00    +0.000 C 
ATOM     13  C   UNL     1       1.295  11.799  20.222  0.00  0.00    +0.000 C 
ENDBRANCH   5   7
ENDBRANCH   2   3
BRANCH   2  14
ATOM     14  N   UNL     1       2.977   6.304  19.772  0.00  0.00    +0.000 NA
ATOM     15  H   UNL     1       2.715   6.221  20.756  0.00  0.00    +0.000 HD
BRANCH  14  16
ATOM     16  S   UNL     1       3.149   4.767  19.080  0.00  0.00    +0.000 S 
ATOM     17  O   UNL     1       3.272   3.838  20.162  0.00  0.00    +0.000 OA
ATOM     18  O   UNL     1       2.116   4.634  18.063  0.00  0.00    +0.000 OA
BRANCH  16  19
ATOM     19  C   UNL     1       4.701   4.801  18.231  0.00  0.00    +0.000 A 
ATOM     20  C   UNL     1       5.833   5.176  18.953  0.00  0.00    +0.000 A 
ATOM     21  C   UNL     1       7.083   5.096  18.351  0.00  0.00    +0.000 A 
ATOM     22  C   UNL     1       7.192   4.663  17.029  0.00  0.00    +0.000 A 
ATOM     23  C   UNL     1       6.050   4.309  16.307  0.00  0.00    +0.000 A 
ATOM     24 CL   UNL     1       6.205   3.770  14.682  0.00  0.00    +0.000 Cl
ATOM     25  C   UNL     1       4.794   4.367  16.903  0.00  0.00    +0.000 A 
ENDBRANCH  16  19
ENDBRANCH  14  16
ENDBRANCH   2  14
TORSDOF 5
ENDMDL
MODEL 4
REMARK VINA RESULT:      -6.9      5.412      6.965
REMARK  Name = 
REMARK  8 active torsions:
REMARK  status: ('A' for Active; 'I' for Inactive)
REMARK    1  A    between atoms: C_1  and  C_2
REMARK    2  A    between atoms: C_2  and  N_3
REMARK    3  A    between atoms: C_2  and  C_14
REMARK    4  A    between atoms: N_3  and  S_4
REMARK    5  A    between atoms: S_4  and  C_7
REMARK    6  A    between atoms: N_16  and  C_17
REMARK    7  A    between atoms: N_16  and  C_18
REMARK    8  A    between atoms: N_21  and  C_22
REMARK                            x       y       z     vdW  Elec       q    Type
REMARK                         _______ _______ _______ _____ _____    ______ ____
ROOT
ATOM      1  C   UNL     1       2.970   8.022  18.085  0.00  0.00    +0.000 C 
ATOM      2  C   UNL     1       2.006   7.412  19.095  0.00  0.00    +0.000 C 
ENDROOT
BRANCH   2   3
ATOM      3  C   UNL     1       1.475   8.556  19.972  0.00  0.00    +0.000 C 
ATOM      4  O   UNL     1       1.697   8.530  21.188  0.00  0.00    +0.000 OA
ATOM      5  N   UNL     1       0.780   9.620  19.388  0.00  0.00    +0.000 N 
ATOM      6  C   UNL     1       0.452   9.752  17.972  0.00  0.00    +0.000 C 
BRANCH   5   7
ATOM      7  C   UNL     1       0.300  10.709  20.275  0.00  0.00    +0.000 C 
ATOM      8  C   UNL     1      -1.157  11.102  19.982  0.00  0.00    +0.000 C 
ATOM      9  C   UNL     1      -1.604  12.297  20.819  0.00  0.00    +0.000 C 
ATOM     10  N   UNL     1      -0.687  13.431  20.659  0.00  0.00    +0.000 NA
ATOM     11  C   UNL     1      -1.175  14.586  21.416  0.00  0.00    +0.000 C 
ATOM     12  C   UNL     1       0.676  13.083  21.080  0.00  0.00    +0.000 C 
ATOM     13  C   UNL     1       1.234  11.929  20.250  0.00  0.00    +0.000 C 
ENDBRANCH   5   7
ENDBRANCH   2   3
BRANCH   2  14
ATOM     14  N   UNL     1       2.681   6.362  19.903  0.00  0.00    +0.000 NA
ATOM     15  H   UNL     1       2.384   6.306  20.879  0.00  0.00    +0.000 HD
BRANCH  14  16
ATOM     16  S   UNL     1       2.743   4.812  19.220  0.00  0.00    +0.000 S 
ATOM     17  O   UNL     1       2.724   3.880  20.307  0.00  0.00    +0.000 OA
ATOM     18  O   UNL     1       1.754   4.772  18.152  0.00  0.00    +0.000 OA
BRANCH  16  19
ATOM     19  C   UNL     1       4.332   4.698  18.451  0.00  0.00    +0.000 A 
ATOM     20  C   UNL     1       4.403   4.131  17.179  0.00  0.00    +0.000 A 
ATOM     21  C   UNL     1       5.614   4.136  16.497  0.00  0.00    +0.000 A 
ATOM     22  C   UNL     1       6.747   4.688  17.096  0.00  0.00    +0.000 A 
ATOM     23  C   UNL     1       6.670   5.235  18.378  0.00  0.00    +0.000 A 
ATOM     24 CL   UNL     1       8.076   5.917  19.097  0.00  0.00    +0.000 Cl
ATOM     25  C   UNL     1       5.461   5.253  19.066  0.00  0.00    +0.000 A 
ENDBRANCH  16  19
ENDBRANCH  14  16
ENDBRANCH   2  14
TORSDOF 5
ENDMDL
MODEL 5
REMARK VINA RESULT:      -6.9      4.093      6.293
REMARK  Name = 
REMARK  8 active torsions:
REMARK  status: ('A' for Active; 'I' for Inactive)
REMARK    1  A    between atoms: C_1  and  C_2
REMARK    2  A    between atoms: C_2  and  N_3
REMARK    3  A    between atoms: C_2  and  C_14
REMARK    4  A    between atoms: N_3  and  S_4
REMARK    5  A    between atoms: S_4  and  C_7
REMARK    6  A    between atoms: N_16  and  C_17
REMARK    7  A    between atoms: N_16  and  C_18
REMARK    8  A    between atoms: N_21  and  C_22
REMARK                            x       y       z     vdW  Elec       q    Type
REMARK                         _______ _______ _______ _____ _____    ______ ____
ROOT
ATOM      1  C   UNL     1       4.505   6.572  16.123  0.00  0.00    +0.000 C 
ATOM      2  C   UNL     1       3.972   6.471  17.546  0.00  0.00    +0.000 C 
ENDROOT
BRANCH   2   3
ATOM      3  C   UNL     1       3.201   7.766  17.842  0.00  0.00    +0.000 C 
ATOM      4  O   UNL     1       3.361   8.740  17.097  0.00  0.00    +0.000 OA
ATOM      5  N   UNL     1       2.312   7.821  18.920  0.00  0.00    +0.000 N 
ATOM      6  C   UNL     1       2.051   6.742  19.868  0.00  0.00    +0.000 C 
BRANCH   5   7
ATOM      7  C   UNL     1       1.579   9.090  19.155  0.00  0.00    +0.000 C 
ATOM      8  C   UNL     1       0.957   9.154  20.559  0.00  0.00    +0.000 C 
ATOM      9  C   UNL     1       0.111  10.409  20.752  0.00  0.00    +0.000 C 
ATOM     10  N   UNL     1      -0.901  10.535  19.696  0.00  0.00    +0.000 NA
ATOM     11  C   UNL     1      -1.743  11.708  19.941  0.00  0.00    +0.000 C 
ATOM     12  C   UNL     1      -0.283  10.619  18.367  0.00  0.00    +0.000 C 
ATOM     13  C   UNL     1       0.539   9.369  18.058  0.00  0.00    +0.000 C 
ENDBRANCH   5   7
ENDBRANCH   2   3
BRANCH   2  14
ATOM     14  N   UNL     1       5.081   6.253  18.512  0.00  0.00    +0.000 NA
ATOM     15  H   UNL     1       4.969   6.718  19.416  0.00  0.00    +0.000 HD
BRANCH  14  16
ATOM     16  S   UNL     1       5.579   4.649  18.736  0.00  0.00    +0.000 S 
ATOM     17  O   UNL     1       6.266   4.258  17.543  0.00  0.00    +0.000 OA
ATOM     18  O   UNL     1       6.208   4.573  20.047  0.00  0.00    +0.000 OA
BRANCH  16  19
ATOM     19  C   UNL     1       4.090   3.699  18.827  0.00  0.00    +0.000 A 
ATOM     20  C   UNL     1       3.694   2.995  17.691  0.00  0.00    +0.000 A 
ATOM     21  C   UNL     1       2.598   2.143  17.763  0.00  0.00    +0.000 A 
ATOM     22  C   UNL     1       1.895   2.015  18.962  0.00  0.00    +0.000 A 
ATOM     23  C   UNL     1       2.288   2.740  20.090  0.00  0.00    +0.000 A 
ATOM     24 CL   UNL     1       1.414   2.563  21.560  0.00  0.00    +0.000 Cl
ATOM     25  C   UNL     1       3.393   3.582  20.036  0.00  0.00    +0.000 A 
ENDBRANCH  16  19
ENDBRANCH  14  16
ENDBRANCH   2  14
TORSDOF 5
ENDMDL
MODEL 6
REMARK VINA RESULT:      -6.9      5.019      6.431
REMARK  Name = 
REMARK  8 active torsions:
REMARK  status: ('A' for Active; 'I' for Inactive)
REMARK    1  A    between atoms: C_1  and  C_2
REMARK    2  A    between atoms: C_2  and  N_3
REMARK    3  A    between atoms: C_2  and  C_14
REMARK    4  A    between atoms: N_3  and  S_4
REMARK    5  A    between atoms: S_4  and  C_7
REMARK    6  A    between atoms: N_16  and  C_17
REMARK    7  A    between atoms: N_16  and  C_18
REMARK    8  A    between atoms: N_21  and  C_22
REMARK                            x       y       z     vdW  Elec       q    Type
REMARK                         _______ _______ _______ _____ _____    ______ ____
ROOT
ATOM      1  C   UNL     1       2.763   8.208  18.164  0.00  0.00    +0.000 C 
ATOM      2  C   UNL     1       2.029   7.434  19.252  0.00  0.00    +0.000 C 
ENDROOT
BRANCH   2   3
ATOM      3  C   UNL     1       1.635   8.439  20.345  0.00  0.00    +0.000 C 
ATOM      4  O   UNL     1       2.030   8.250  21.501  0.00  0.00    +0.000 OA
ATOM      5  N   UNL     1       0.869   9.562  20.019  0.00  0.00    +0.000 N 
ATOM      6  C   UNL     1       0.342   9.883  18.696  0.00  0.00    +0.000 C 
BRANCH   5   7
ATOM      7  C   UNL     1       0.528  10.513  21.107  0.00  0.00    +0.000 C 
ATOM      8  C   UNL     1      -0.701  10.063  21.913  0.00  0.00    +0.000 C 
ATOM      9  C   UNL     1      -1.112  11.099  22.954  0.00  0.00    +0.000 C 
ATOM     10  N   UNL     1      -1.310  12.418  22.341  0.00  0.00    +0.000 NA
ATOM     11  C   UNL     1      -1.771  13.379  23.346  0.00  0.00    +0.000 C 
ATOM     12  C   UNL     1      -0.083  12.901  21.697  0.00  0.00    +0.000 C 
ATOM     13  C   UNL     1       0.374  11.952  20.591  0.00  0.00    +0.000 C 
ENDBRANCH   5   7
ENDBRANCH   2   3
BRANCH   2  14
ATOM     14  N   UNL     1       2.878   6.338  19.787  0.00  0.00    +0.000 NA
ATOM     15  H   UNL     1       2.737   6.121  20.776  0.00  0.00    +0.000 HD
BRANCH  14  16
ATOM     16  S   UNL     1       2.926   4.910  18.875  0.00  0.00    +0.000 S 
ATOM     17  O   UNL     1       2.886   3.823  19.806  0.00  0.00    +0.000 OA
ATOM     18  O   UNL     1       1.944   5.047  17.808  0.00  0.00    +0.000 OA
BRANCH  16  19
ATOM     19  C   UNL     1       4.518   4.892  18.106  0.00  0.00    +0.000 A 
ATOM     20  C   UNL     1       5.623   5.238  18.883  0.00  0.00    +0.000 A 
ATOM     21  C   UNL     1       6.899   5.117  18.346  0.00  0.00    +0.000 A 
ATOM     22  C   UNL     1       7.062   4.671  17.033  0.00  0.00    +0.000 A 
ATOM     23  C   UNL     1       5.948   4.346  16.256  0.00  0.00    +0.000 A 
ATOM     24 CL   UNL     1       6.169   3.791  14.644  0.00  0.00    +0.000 Cl
ATOM     25  C   UNL     1       4.666   4.446  16.787  0.00  0.00    +0.000 A 
ENDBRANCH  16  19
ENDBRANCH  14  16
ENDBRANCH   2  14
TORSDOF 5
ENDMDL
MODEL 7
REMARK VINA RESULT:      -6.8      4.754      6.994
REMARK  Name = 
REMARK  8 active torsions:
REMARK  status: ('A' for Active; 'I' for Inactive)
REMARK    1  A    between atoms: C_1  and  C_2
REMARK    2  A    between atoms: C_2  and  N_3
REMARK    3  A    between atoms: C_2  and  C_14
REMARK    4  A    between atoms: N_3  and  S_4
REMARK    5  A    between atoms: S_4  and  C_7
REMARK    6  A    between atoms: N_16  and  C_17
REMARK    7  A    between atoms: N_16  and  C_18
REMARK    8  A    between atoms: N_21  and  C_22
REMARK                            x       y       z     vdW  Elec       q    Type
REMARK                         _______ _______ _______ _____ _____    ______ ____
ROOT
ATOM      1  C   UNL     1       1.643   5.901  17.788  0.00  0.00    +0.000 C 
ATOM      2  C   UNL     1       2.693   6.772  18.466  0.00  0.00    +0.000 C 
ENDROOT
BRANCH   2   3
ATOM      3  C   UNL     1       2.193   8.224  18.411  0.00  0.00    +0.000 C 
ATOM      4  O   UNL     1       2.365   8.875  17.374  0.00  0.00    +0.000 OA
ATOM      5  N   UNL     1       1.528   8.776  19.509  0.00  0.00    +0.000 N 
ATOM      6  C   UNL     1       1.277   8.107  20.782  0.00  0.00    +0.000 C 
BRANCH   5   7
ATOM      7  C   UNL     1       1.049  10.177  19.401  0.00  0.00    +0.000 C 
ATOM      8  C   UNL     1       1.047  10.900  20.758  0.00  0.00    +0.000 C 
ATOM      9  C   UNL     1       0.447  12.299  20.658  0.00  0.00    +0.000 C 
ATOM     10  N   UNL     1      -0.889  12.263  20.053  0.00  0.00    +0.000 NA
ATOM     11  C   UNL     1      -1.471  13.607  20.031  0.00  0.00    +0.000 C 
ATOM     12  C   UNL     1      -0.850  11.701  18.697  0.00  0.00    +0.000 C 
ATOM     13  C   UNL     1      -0.318  10.270  18.705  0.00  0.00    +0.000 C 
ENDBRANCH   5   7
ENDBRANCH   2   3
BRANCH   2  14
ATOM     14  N   UNL     1       4.016   6.616  17.807  0.00  0.00    +0.000 NA
ATOM     15  H   UNL     1       4.581   7.467  17.757  0.00  0.00    +0.000 HD
BRANCH  14  16
ATOM     16  S   UNL     1       4.966   5.312  18.324  0.00  0.00    +0.000 S 
ATOM     17  O   UNL     1       5.774   4.919  17.209  0.00  0.00    +0.000 OA
ATOM     18  O   UNL     1       5.550   5.686  19.604  0.00  0.00    +0.000 OA
BRANCH  16  19
ATOM     19  C   UNL     1       3.829   3.996  18.645  0.00  0.00    +0.000 A 
ATOM     20  C   UNL     1       3.571   3.090  17.618  0.00  0.00    +0.000 A 
ATOM     21  C   UNL     1       2.778   1.977  17.873  0.00  0.00    +0.000 A 
ATOM     22  C   UNL     1       2.235   1.787  19.145  0.00  0.00    +0.000 A 
ATOM     23  C   UNL     1       2.483   2.711  20.162  0.00  0.00    +0.000 A 
ATOM     24 CL   UNL     1       1.811   2.456  21.724  0.00  0.00    +0.000 Cl
ATOM     25  C   UNL     1       3.289   3.820  19.926  0.00  0.00    +0.000 A 
ENDBRANCH  16  19
ENDBRANCH  14  16
ENDBRANCH   2  14
TORSDOF 5
ENDMDL
MODEL 8
REMARK VINA RESULT:      -6.8      4.199      5.475
REMARK  Name = 
REMARK  8 active torsions:
REMARK  status: ('A' for Active; 'I' for Inactive)
REMARK    1  A    between atoms: C_1  and  C_2
REMARK    2  A    between atoms: C_2  and  N_3
REMARK    3  A    between atoms: C_2  and  C_14
REMARK    4  A    between atoms: N_3  and  S_4
REMARK    5  A    between atoms: S_4  and  C_7
REMARK    6  A    between atoms: N_16  and  C_17
REMARK    7  A    between atoms: N_16  and  C_18
REMARK    8  A    between atoms: N_21  and  C_22
REMARK                            x       y       z     vdW  Elec       q    Type
REMARK                         _______ _______ _______ _____ _____    ______ ____
ROOT
ATOM      1  C   UNL     1       3.518   7.125  17.886  0.00  0.00    +0.000 C 
ATOM      2  C   UNL     1       2.480   6.371  18.709  0.00  0.00    +0.000 C 
ENDROOT
BRANCH   2   3
ATOM      3  C   UNL     1       2.010   7.311  19.829  0.00  0.00    +0.000 C 
ATOM      4  O   UNL     1       2.106   6.935  21.003  0.00  0.00    +0.000 OA
ATOM      5  N   UNL     1       1.513   8.579  19.516  0.00  0.00    +0.000 N 
ATOM      6  C   UNL     1       1.346   9.124  18.171  0.00  0.00    +0.000 C 
BRANCH   5   7
ATOM      7  C   UNL     1       1.087   9.457  20.634  0.00  0.00    +0.000 C 
ATOM      8  C   UNL     1      -0.134   8.898  21.383  0.00  0.00    +0.000 C 
ATOM      9  C   UNL     1      -0.635   9.860  22.456  0.00  0.00    +0.000 C 
ATOM     10  N   UNL     1      -0.895  11.191  21.896  0.00  0.00    +0.000 NA
ATOM     11  C   UNL     1      -1.439  12.076  22.930  0.00  0.00    +0.000 C 
ATOM     12  C   UNL     1       0.318  11.775  21.311  0.00  0.00    +0.000 C 
ATOM     13  C   UNL     1       0.860  10.907  20.178  0.00  0.00    +0.000 C 
ENDBRANCH   5   7
ENDBRANCH   2   3
BRANCH   2  14
ATOM     14  N   UNL     1       3.048   5.107  19.247  0.00  0.00    +0.000 NA
ATOM     15  H   UNL     1       2.604   4.758  20.099  0.00  0.00    +0.000 HD
BRANCH  14  16
ATOM     16  S   UNL     1       3.260   3.844  18.137  0.00  0.00    +0.000 S 
ATOM     17  O   UNL     1       3.426   2.645  18.901  0.00  0.00    +0.000 OA
ATOM     18  O   UNL     1       2.218   3.978  17.129  0.00  0.00    +0.000 OA
BRANCH  16  19
ATOM     19  C   UNL     1       4.798   4.176  17.330  0.00  0.00    +0.000 A 
ATOM     20  C   UNL     1       5.901   4.483  18.126  0.00  0.00    +0.000 A 
ATOM     21  C   UNL     1       7.150   4.629  17.534  0.00  0.00    +0.000 A 
ATOM     22  C   UNL     1       7.286   4.488  16.152  0.00  0.00    +0.000 A 
ATOM     23  C   UNL     1       6.172   4.200  15.361  0.00  0.00    +0.000 A 
ATOM     24 CL   UNL     1       6.360   4.021  13.661  0.00  0.00    +0.000 Cl
ATOM     25  C   UNL     1       4.919   4.034  15.942  0.00  0.00    +0.000 A 
ENDBRANCH  16  19
ENDBRANCH  14  16
ENDBRANCH   2  14
TORSDOF 5
ENDMDL
MODEL 9
REMARK VINA RESULT:      -6.8      7.057      9.936
REMARK  Name = 
REMARK  8 active torsions:
REMARK  status: ('A' for Active; 'I' for Inactive)
REMARK    1  A    between atoms: C_1  and  C_2
REMARK    2  A    between atoms: C_2  and  N_3
REMARK    3  A    between atoms: C_2  and  C_14
REMARK    4  A    between atoms: N_3  and  S_4
REMARK    5  A    between atoms: S_4  and  C_7
REMARK    6  A    between atoms: N_16  and  C_17
REMARK    7  A    between atoms: N_16  and  C_18
REMARK    8  A    between atoms: N_21  and  C_22
REMARK                            x       y       z     vdW  Elec       q    Type
REMARK                         _______ _______ _______ _____ _____    ______ ____
ROOT
ATOM      1  C   UNL     1       1.192   9.392  18.113  0.00  0.00    +0.000 C 
ATOM      2  C   UNL     1       1.383   9.271  19.620  0.00  0.00    +0.000 C 
ENDROOT
BRANCH   2   3
ATOM      3  C   UNL     1       1.743   7.809  19.922  0.00  0.00    +0.000 C 
ATOM      4  O   UNL     1       1.252   7.266  20.918  0.00  0.00    +0.000 OA
ATOM      5  N   UNL     1       2.588   7.104  19.059  0.00  0.00    +0.000 N 
ATOM      6  C   UNL     1       3.231   7.643  17.864  0.00  0.00    +0.000 C 
BRANCH   5   7
ATOM      7  C   UNL     1       2.894   5.689  19.385  0.00  0.00    +0.000 C 
ATOM      8  C   UNL     1       4.328   5.296  18.995  0.00  0.00    +0.000 C 
ATOM      9  C   UNL     1       4.597   3.813  19.228  0.00  0.00    +0.000 C 
ATOM     10  N   UNL     1       3.596   2.979  18.552  0.00  0.00    +0.000 NA
ATOM     11  C   UNL     1       3.915   1.561  18.733  0.00  0.00    +0.000 C 
ATOM     12  C   UNL     1       2.241   3.264  19.040  0.00  0.00    +0.000 C 
ATOM     13  C   UNL     1       1.858   4.722  18.792  0.00  0.00    +0.000 C 
ENDBRANCH   5   7
ENDBRANCH   2   3
BRANCH   2  14
ATOM     14  N   UNL     1       0.158   9.701  20.344  0.00  0.00    +0.000 NA
ATOM     15  H   UNL     1      -0.448   8.943  20.665  0.00  0.00    +0.000 HD
BRANCH  14  16
ATOM     16  S   UNL     1       0.375  10.840  21.580  0.00  0.00    +0.000 S 
ATOM     17  O   UNL     1       0.570  10.103  22.792  0.00  0.00    +0.000 OA
ATOM     18  O   UNL     1       1.348  11.812  21.104  0.00  0.00    +0.000 OA
BRANCH  16  19
ATOM     19  C   UNL     1      -1.170  11.689  21.719  0.00  0.00    +0.000 A 
ATOM     20  C   UNL     1      -1.737  12.210  20.557  0.00  0.00    +0.000 A 
ATOM     21  C   UNL     1      -3.005  12.775  20.610  0.00  0.00    +0.000 A 
ATOM     22  C   UNL     1      -3.691  12.833  21.824  0.00  0.00    +0.000 A 
ATOM     23  C   UNL     1      -3.106  12.326  22.987  0.00  0.00    +0.000 A 
ATOM     24 CL   UNL     1      -3.969  12.399  24.473  0.00  0.00    +0.000 Cl
ATOM     25  C   UNL     1      -1.845  11.742  22.946  0.00  0.00    +0.000 A 
ENDBRANCH  16  19
ENDBRANCH  14  16
ENDBRANCH   2  14
TORSDOF 5
ENDMDL
