MODEL 1
REMARK VINA RESULT:      -7.1      0.000      0.000
REMARK  Name = 
REMARK  0 active torsions:
REMARK  status: ('A' for Active; 'I' for Inactive)
REMARK                            x       y       z     vdW  Elec       q    Type
REMARK                         _______ _______ _______ _____ _____    ______ ____
ROOT
ATOM      1 BR   UNL     1       2.897  13.685  18.706  0.00  0.00    +0.000 Br
ATOM      2  C   UNL     1       1.140  13.044  19.033  0.00  0.00    +0.000 A 
ATOM      3  C   UNL     1       0.214  13.971  19.583  0.00  0.00    +0.000 A 
ATOM      4  C   UNL     1      -1.087  13.572  19.840  0.00  0.00    +0.000 A 
ATOM      5  C   UNL     1      -1.394  12.245  19.681  0.00  0.00    +0.000 A 
ATOM      6  C   UNL     1      -0.336  11.341  19.554  0.00  0.00    +0.000 A 
ATOM      7  C   UNL     1      -0.353  10.184  20.317  0.00  0.00    +0.000 A 
ATOM      8  C   UNL     1       0.673   9.303  20.123  0.00  0.00    +0.000 A 
ATOM      9  C   UNL     1       1.450   9.451  18.994  0.00  0.00    +0.000 A 
ATOM     10  N   UNL     1       1.683  10.655  18.442  0.00  0.00    +0.000 NA
ATOM     11  C   UNL     1       0.865  11.655  18.915  0.00  0.00    +0.000 A 
ATOM     12  C   UNL     1       2.143   8.171  18.805  0.00  0.00    +0.000 A 
ATOM     13  N   UNL     1       2.323   7.277  17.822  0.00  0.00    +0.000 NA
ATOM     14  C   UNL     1       2.385   6.037  18.485  0.00  0.00    +0.000 A 
ATOM     15  C   UNL     1       2.492   4.725  17.981  0.00  0.00    +0.000 A 
ATOM     16  C   UNL     1       2.532   3.644  18.888  0.00  0.00    +0.000 A 
ATOM     17  C   UNL     1       2.463   3.855  20.264  0.00  0.00    +0.000 A 
ATOM     18  C   UNL     1       2.294   5.137  20.790  0.00  0.00    +0.000 A 
ATOM     19  C   UNL     1       2.269   6.182  19.865  0.00  0.00    +0.000 A 
ATOM     20  N   UNL     1       2.032   7.503  20.009  0.00  0.00    +0.000 N 
ATOM     21  C   UNL     1       1.179   8.181  20.970  0.00  0.00    +0.000 C 
ENDROOT
TORSDOF 0
ENDMDL
MODEL 2
REMARK VINA RESULT:      -6.5      2.816      7.965
REMARK  Name = 
REMARK  0 active torsions:
REMARK  status: ('A' for Active; 'I' for Inactive)
REMARK                            x       y       z     vdW  Elec       q    Type
REMARK                         _______ _______ _______ _____ _____    ______ ____
ROOT
ATOM      1 BR   UNL     1       0.704   8.957  22.133  0.00  0.00    +0.000 Br
ATOM      2  C   UNL     1       1.166   8.940  20.291  0.00  0.00    +0.000 A 
ATOM      3  C   UNL     1       1.899   7.816  19.827  0.00  0.00    +0.000 A 
ATOM      4  C   UNL     1       2.263   7.737  18.493  0.00  0.00    +0.000 A 
ATOM      5  C   UNL     1       2.018   8.825  17.695  0.00  0.00    +0.000 A 
ATOM      6  C   UNL     1       1.691  10.031  18.320  0.00  0.00    +0.000 A 
ATOM      7  C   UNL     1       2.341  11.187  17.919  0.00  0.00    +0.000 A 
ATOM      8  C   UNL     1       1.953  12.353  18.519  0.00  0.00    +0.000 A 
ATOM      9  C   UNL     1       0.761  12.359  19.213  0.00  0.00    +0.000 A 
ATOM     10  N   UNL     1       0.301  11.265  19.846  0.00  0.00    +0.000 NA
ATOM     11  C   UNL     1       0.952  10.103  19.503  0.00  0.00    +0.000 A 
ATOM     12  C   UNL     1       0.379  13.768  19.354  0.00  0.00    +0.000 A 
ATOM     13  N   UNL     1      -0.696  14.533  19.113  0.00  0.00    +0.000 NA
ATOM     14  C   UNL     1      -0.161  15.782  18.747  0.00  0.00    +0.000 A 
ATOM     15  C   UNL     1      -0.793  16.966  18.313  0.00  0.00    +0.000 A 
ATOM     16  C   UNL     1       0.001  18.091  18.003  0.00  0.00    +0.000 A 
ATOM     17  C   UNL     1       1.390  18.047  18.115  0.00  0.00    +0.000 A 
ATOM     18  C   UNL     1       2.046  16.871  18.482  0.00  0.00    +0.000 A 
ATOM     19  C   UNL     1       1.231  15.782  18.791  0.00  0.00    +0.000 A 
ATOM     20  N   UNL     1       1.521  14.496  19.083  0.00  0.00    +0.000 N 
ATOM     21  C   UNL     1       2.630  13.680  18.619  0.00  0.00    +0.000 C 
ENDROOT
TORSDOF 0
ENDMDL
MODEL 3
REMARK VINA RESULT:      -6.4      9.116     10.564
REMARK  Name = 
REMARK  0 active torsions:
REMARK  status: ('A' for Active; 'I' for Inactive)
REMARK                            x       y       z     vdW  Elec       q    Type
REMARK                         _______ _______ _______ _____ _____    ______ ____
ROOT
ATOM      1 BR   UNL     1       9.076  15.521  17.851  0.00  0.00    +0.000 Br
ATOM      2  C   UNL     1      10.205  14.096  18.400  0.00  0.00    +0.000 A 
ATOM      3  C   UNL     1      10.822  13.337  17.370  0.00  0.00    +0.000 A 
ATOM      4  C   UNL     1      11.663  12.288  17.699  0.00  0.00    +0.000 A 
ATOM      5  C   UNL     1      11.757  11.932  19.021  0.00  0.00    +0.000 A 
ATOM      6  C   UNL     1      10.802  12.443  19.903  0.00  0.00    +0.000 A 
ATOM      7  C   UNL     1      10.181  11.575  20.788  0.00  0.00    +0.000 A 
ATOM      8  C   UNL     1       9.293  12.126  21.670  0.00  0.00    +0.000 A 
ATOM      9  C   UNL     1       9.315  13.493  21.843  0.00  0.00    +0.000 A 
ATOM     10  N   UNL     1       9.652  14.332  20.847  0.00  0.00    +0.000 NA
ATOM     11  C   UNL     1      10.239  13.713  19.768  0.00  0.00    +0.000 A 
ATOM     12  C   UNL     1       8.622  13.754  23.110  0.00  0.00    +0.000 A 
ATOM     13  N   UNL     1       8.856  14.424  24.248  0.00  0.00    +0.000 NA
ATOM     14  C   UNL     1       8.211  13.662  25.240  0.00  0.00    +0.000 A 
ATOM     15  C   UNL     1       8.162  13.820  26.640  0.00  0.00    +0.000 A 
ATOM     16  C   UNL     1       7.429  12.891  27.409  0.00  0.00    +0.000 A 
ATOM     17  C   UNL     1       6.762  11.825  26.808  0.00  0.00    +0.000 A 
ATOM     18  C   UNL     1       6.843  11.607  25.432  0.00  0.00    +0.000 A 
ATOM     19  C   UNL     1       7.567  12.551  24.702  0.00  0.00    +0.000 A 
ATOM     20  N   UNL     1       7.923  12.600  23.400  0.00  0.00    +0.000 N 
ATOM     21  C   UNL     1       8.208  11.506  22.487  0.00  0.00    +0.000 C 
ENDROOT
TORSDOF 0
ENDMDL
MODEL 4
REMARK VINA RESULT:      -6.4      3.201      4.261
REMARK  Name = 
REMARK  0 active torsions:
REMARK  status: ('A' for Active; 'I' for Inactive)
REMARK                            x       y       z     vdW  Elec       q    Type
REMARK                         _______ _______ _______ _____ _____    ______ ____
ROOT
ATOM      1 BR   UNL     1      -0.078  15.896  23.506  0.00  0.00    +0.000 Br
ATOM      2  C   UNL     1      -1.495  14.632  23.551  0.00  0.00    +0.000 A 
ATOM      3  C   UNL     1      -2.450  14.780  24.592  0.00  0.00    +0.000 A 
ATOM      4  C   UNL     1      -3.512  13.896  24.680  0.00  0.00    +0.000 A 
ATOM      5  C   UNL     1      -3.522  12.818  23.831  0.00  0.00    +0.000 A 
ATOM      6  C   UNL     1      -2.344  12.519  23.143  0.00  0.00    +0.000 A 
ATOM      7  C   UNL     1      -1.894  11.208  23.129  0.00  0.00    +0.000 A 
ATOM      8  C   UNL     1      -0.767  10.951  22.400  0.00  0.00    +0.000 A 
ATOM      9  C   UNL     1      -0.352  11.900  21.491  0.00  0.00    +0.000 A 
ATOM     10  N   UNL     1      -0.558  13.215  21.689  0.00  0.00    +0.000 NA
ATOM     11  C   UNL     1      -1.449  13.495  22.699  0.00  0.00    +0.000 A 
ATOM     12  C   UNL     1       0.558  11.211  20.569  0.00  0.00    +0.000 A 
ATOM     13  N   UNL     1       0.699  11.058  19.244  0.00  0.00    +0.000 NA
ATOM     14  C   UNL     1       1.218   9.759  19.096  0.00  0.00    +0.000 A 
ATOM     15  C   UNL     1       1.508   9.007  17.939  0.00  0.00    +0.000 A 
ATOM     16  C   UNL     1       2.029   7.702  18.083  0.00  0.00    +0.000 A 
ATOM     17  C   UNL     1       2.252   7.151  19.344  0.00  0.00    +0.000 A 
ATOM     18  C   UNL     1       1.917   7.847  20.506  0.00  0.00    +0.000 A 
ATOM     19  C   UNL     1       1.415   9.137  20.326  0.00  0.00    +0.000 A 
ATOM     20  N   UNL     1       0.912  10.035  21.200  0.00  0.00    +0.000 N 
ATOM     21  C   UNL     1       0.186   9.801  22.436  0.00  0.00    +0.000 C 
ENDROOT
TORSDOF 0
ENDMDL
MODEL 5
REMARK VINA RESULT:      -6.3      3.646      7.527
REMARK  Name = 
REMARK  0 active torsions:
REMARK  status: ('A' for Active; 'I' for Inactive)
REMARK                            x       y       z     vdW  Elec       q    Type
REMARK                         _______ _______ _______ _____ _____    ______ ____
ROOT
ATOM      1 BR   UNL     1       2.137  13.765  18.562  0.00  0.00    +0.000 Br
ATOM      2  C   UNL     1       1.616  11.939  18.569  0.00  0.00    +0.000 A 
ATOM      3  C   UNL     1       2.436  11.038  17.840  0.00  0.00    +0.000 A 
ATOM      4  C   UNL     1       2.117   9.691  17.808  0.00  0.00    +0.000 A 
ATOM      5  C   UNL     1       0.930   9.299  18.374  0.00  0.00    +0.000 A 
ATOM      6  C   UNL     1      -0.003  10.291  18.683  0.00  0.00    +0.000 A 
ATOM      7  C   UNL     1      -1.322  10.107  18.298  0.00  0.00    +0.000 A 
ATOM      8  C   UNL     1      -2.212  11.077  18.667  0.00  0.00    +0.000 A 
ATOM      9  C   UNL     1      -1.828  11.973  19.643  0.00  0.00    +0.000 A 
ATOM     10  N   UNL     1      -0.547  12.353  19.796  0.00  0.00    +0.000 NA
ATOM     11  C   UNL     1       0.354  11.571  19.111  0.00  0.00    +0.000 A 
ATOM     12  C   UNL     1      -3.064  12.579  20.148  0.00  0.00    +0.000 A 
ATOM     13  N   UNL     1      -3.653  12.788  21.336  0.00  0.00    +0.000 NA
ATOM     14  C   UNL     1      -5.030  12.686  21.065  0.00  0.00    +0.000 A 
ATOM     15  C   UNL     1      -6.147  12.742  21.924  0.00  0.00    +0.000 A 
ATOM     16  C   UNL     1      -7.441  12.606  21.376  0.00  0.00    +0.000 A 
ATOM     17  C   UNL     1      -7.627  12.415  20.007  0.00  0.00    +0.000 A 
ATOM     18  C   UNL     1      -6.539  12.295  19.141  0.00  0.00    +0.000 A 
ATOM     19  C   UNL     1      -5.276  12.444  19.716  0.00  0.00    +0.000 A 
ATOM     20  N   UNL     1      -4.034  12.297  19.207  0.00  0.00    +0.000 N 
ATOM     21  C   UNL     1      -3.576  11.406  18.154  0.00  0.00    +0.000 C 
ENDROOT
TORSDOF 0
ENDMDL
MODEL 6
REMARK VINA RESULT:      -6.2      1.033      1.068
REMARK  Name = 
REMARK  0 active torsions:
REMARK  status: ('A' for Active; 'I' for Inactive)
REMARK                            x       y       z     vdW  Elec       q    Type
REMARK                         _______ _______ _______ _____ _____    ______ ____
ROOT
ATOM      1 BR   UNL     1       2.427  13.977  20.463  0.00  0.00    +0.000 Br
ATOM      2  C   UNL     1       0.704  13.192  20.605  0.00  0.00    +0.000 A 
ATOM      3  C   UNL     1      -0.273  13.922  21.334  0.00  0.00    +0.000 A 
ATOM      4  C   UNL     1      -1.552  13.411  21.471  0.00  0.00    +0.000 A 
ATOM      5  C   UNL     1      -1.788  12.140  21.012  0.00  0.00    +0.000 A 
ATOM      6  C   UNL     1      -0.683  11.343  20.703  0.00  0.00    +0.000 A 
ATOM      7  C   UNL     1      -0.643  10.044  21.185  0.00  0.00    +0.000 A 
ATOM      8  C   UNL     1       0.430   9.282  20.816  0.00  0.00    +0.000 A 
ATOM      9  C   UNL     1       1.205   9.720  19.763  0.00  0.00    +0.000 A 
ATOM     10  N   UNL     1       1.377  11.028  19.501  0.00  0.00    +0.000 NA
ATOM     11  C   UNL     1       0.504  11.853  20.172  0.00  0.00    +0.000 A 
ATOM     12  C   UNL     1       1.965   8.553  19.303  0.00  0.00    +0.000 A 
ATOM     13  N   UNL     1       2.199   7.914  18.146  0.00  0.00    +0.000 NA
ATOM     14  C   UNL     1       2.322   6.561  18.514  0.00  0.00    +0.000 A 
ATOM     15  C   UNL     1       2.502   5.404  17.729  0.00  0.00    +0.000 A 
ATOM     16  C   UNL     1       2.594   4.149  18.370  0.00  0.00    +0.000 A 
ATOM     17  C   UNL     1       2.505   4.040  19.757  0.00  0.00    +0.000 A 
ATOM     18  C   UNL     1       2.266   5.160  20.555  0.00  0.00    +0.000 A 
ATOM     19  C   UNL     1       2.191   6.385  19.889  0.00  0.00    +0.000 A 
ATOM     20  N   UNL     1       1.883   7.625  20.323  0.00  0.00    +0.000 N 
ATOM     21  C   UNL     1       0.990   8.025  21.397  0.00  0.00    +0.000 C 
ENDROOT
TORSDOF 0
ENDMDL
MODEL 7
REMARK VINA RESULT:      -6.1      8.920     10.010
REMARK  Name = 
REMARK  0 active torsions:
REMARK  status: ('A' for Active; 'I' for Inactive)
REMARK                            x       y       z     vdW  Elec       q    Type
REMARK                         _______ _______ _______ _____ _____    ______ ____
ROOT
ATOM      1 BR   UNL     1       5.234  10.814  25.832  0.00  0.00    +0.000 Br
ATOM      2  C   UNL     1       6.692  11.989  26.147  0.00  0.00    +0.000 A 
ATOM      3  C   UNL     1       6.611  12.811  27.303  0.00  0.00    +0.000 A 
ATOM      4  C   UNL     1       7.642  13.687  27.596  0.00  0.00    +0.000 A 
ATOM      5  C   UNL     1       8.647  13.827  26.673  0.00  0.00    +0.000 A 
ATOM      6  C   UNL     1       8.433  13.313  25.392  0.00  0.00    +0.000 A 
ATOM      7  C   UNL     1       8.728  14.109  24.296  0.00  0.00    +0.000 A 
ATOM      8  C   UNL     1       8.553  13.547  23.062  0.00  0.00    +0.000 A 
ATOM      9  C   UNL     1       8.420  12.177  22.986  0.00  0.00    +0.000 A 
ATOM     10  N   UNL     1       7.851  11.461  23.972  0.00  0.00    +0.000 NA
ATOM     11  C   UNL     1       7.689  12.157  25.147  0.00  0.00    +0.000 A 
ATOM     12  C   UNL     1       8.697  11.818  21.591  0.00  0.00    +0.000 A 
ATOM     13  N   UNL     1       9.487  10.961  20.925  0.00  0.00    +0.000 NA
ATOM     14  C   UNL     1       9.814  11.641  19.737  0.00  0.00    +0.000 A 
ATOM     15  C   UNL     1      10.668  11.283  18.674  0.00  0.00    +0.000 A 
ATOM     16  C   UNL     1      10.817  12.170  17.586  0.00  0.00    +0.000 A 
ATOM     17  C   UNL     1      10.141  13.389  17.553  0.00  0.00    +0.000 A 
ATOM     18  C   UNL     1       9.338  13.798  18.618  0.00  0.00    +0.000 A 
ATOM     19  C   UNL     1       9.205  12.891  19.671  0.00  0.00    +0.000 A 
ATOM     20  N   UNL     1       8.600  12.993  20.874  0.00  0.00    +0.000 N 
ATOM     21  C   UNL     1       8.418  14.167  21.710  0.00  0.00    +0.000 C 
ENDROOT
TORSDOF 0
ENDMDL
MODEL 8
REMARK VINA RESULT:      -6.1      6.234      8.419
REMARK  Name = 
REMARK  0 active torsions:
REMARK  status: ('A' for Active; 'I' for Inactive)
REMARK                            x       y       z     vdW  Elec       q    Type
REMARK                         _______ _______ _______ _____ _____    ______ ____
ROOT
ATOM      1 BR   UNL     1       4.807   1.470  21.247  0.00  0.00    +0.000 Br
ATOM      2  C   UNL     1       3.629   2.806  20.590  0.00  0.00    +0.000 A 
ATOM      3  C   UNL     1       2.312   2.816  21.124  0.00  0.00    +0.000 A 
ATOM      4  C   UNL     1       1.404   3.768  20.694  0.00  0.00    +0.000 A 
ATOM      5  C   UNL     1       1.773   4.585  19.655  0.00  0.00    +0.000 A 
ATOM      6  C   UNL     1       2.903   4.228  18.916  0.00  0.00    +0.000 A 
ATOM      7  C   UNL     1       2.825   4.243  17.532  0.00  0.00    +0.000 A 
ATOM      8  C   UNL     1       3.968   3.939  16.847  0.00  0.00    +0.000 A 
ATOM      9  C   UNL     1       5.163   3.962  17.536  0.00  0.00    +0.000 A 
ATOM     10  N   UNL     1       5.237   3.651  18.843  0.00  0.00    +0.000 NA
ATOM     11  C   UNL     1       4.017   3.599  19.476  0.00  0.00    +0.000 A 
ATOM     12  C   UNL     1       6.217   4.049  16.520  0.00  0.00    +0.000 A 
ATOM     13  N   UNL     1       7.287   4.817  16.265  0.00  0.00    +0.000 NA
ATOM     14  C   UNL     1       7.356   4.862  14.860  0.00  0.00    +0.000 A 
ATOM     15  C   UNL     1       8.223   5.568  14.000  0.00  0.00    +0.000 A 
ATOM     16  C   UNL     1       8.065   5.430  12.604  0.00  0.00    +0.000 A 
ATOM     17  C   UNL     1       7.069   4.615  12.069  0.00  0.00    +0.000 A 
ATOM     18  C   UNL     1       6.158   3.953  12.893  0.00  0.00    +0.000 A 
ATOM     19  C   UNL     1       6.350   4.104  14.267  0.00  0.00    +0.000 A 
ATOM     20  N   UNL     1       5.620   3.695  15.327  0.00  0.00    +0.000 N 
ATOM     21  C   UNL     1       4.183   3.511  15.432  0.00  0.00    +0.000 C 
ENDROOT
TORSDOF 0
ENDMDL
MODEL 9
REMARK VINA RESULT:      -6.0      3.079      4.439
REMARK  Name = 
REMARK  0 active torsions:
REMARK  status: ('A' for Active; 'I' for Inactive)
REMARK                            x       y       z     vdW  Elec       q    Type
REMARK                         _______ _______ _______ _____ _____    ______ ____
ROOT
ATOM      1 BR   UNL     1      -4.379  12.720  23.039  0.00  0.00    +0.000 Br
ATOM      2  C   UNL     1      -2.691  13.588  23.091  0.00  0.00    +0.000 A 
ATOM      3  C   UNL     1      -2.699  14.987  23.340  0.00  0.00    +0.000 A 
ATOM      4  C   UNL     1      -1.503  15.681  23.398  0.00  0.00    +0.000 A 
ATOM      5  C   UNL     1      -0.353  15.007  23.070  0.00  0.00    +0.000 A 
ATOM      6  C   UNL     1      -0.482  13.772  22.431  0.00  0.00    +0.000 A 
ATOM      7  C   UNL     1       0.286  13.522  21.304  0.00  0.00    +0.000 A 
ATOM      8  C   UNL     1       0.169  12.282  20.741  0.00  0.00    +0.000 A 
ATOM      9  C   UNL     1      -0.425  11.285  21.487  0.00  0.00    +0.000 A 
ATOM     10  N   UNL     1      -1.394  11.547  22.383  0.00  0.00    +0.000 NA
ATOM     11  C   UNL     1      -1.525  12.881  22.692  0.00  0.00    +0.000 A 
ATOM     12  C   UNL     1      -0.027  10.018  20.863  0.00  0.00    +0.000 A 
ATOM     13  N   UNL     1       0.521   8.854  21.245  0.00  0.00    +0.000 NA
ATOM     14  C   UNL     1       1.295   8.455  20.140  0.00  0.00    +0.000 A 
ATOM     15  C   UNL     1       2.156   7.352  19.966  0.00  0.00    +0.000 A 
ATOM     16  C   UNL     1       2.821   7.190  18.732  0.00  0.00    +0.000 A 
ATOM     17  C   UNL     1       2.643   8.101  17.692  0.00  0.00    +0.000 A 
ATOM     18  C   UNL     1       1.846   9.235  17.855  0.00  0.00    +0.000 A 
ATOM     19  C   UNL     1       1.196   9.358  19.084  0.00  0.00    +0.000 A 
ATOM     20  N   UNL     1       0.443  10.349  19.608  0.00  0.00    +0.000 N 
ATOM     21  C   UNL     1       0.531  11.781  19.382  0.00  0.00    +0.000 C 
ENDROOT
TORSDOF 0
ENDMDL
