MODEL 1
REMARK VINA RESULT:      -7.6      0.000      0.000
REMARK  Name = 
REMARK  13 active torsions:
REMARK  status: ('A' for Active; 'I' for Inactive)
REMARK    1  A    between atoms: C_1  and  O_2
REMARK    2  A    between atoms: O_2  and  C_3
REMARK    3  A    between atoms: C_3  and  C_4
REMARK    4  A    between atoms: C_4  and  N_5
REMARK    5  A    between atoms: C_6  and  C_8
REMARK    6  A    between atoms: C_8  and  C_9
REMARK    7  A    between atoms: C_9  and  N_10
REMARK    8  A    between atoms: N_10  and  C_11
REMARK    9  A    between atoms: N_10  and  C_15
REMARK   10  A    between atoms: C_11  and  C_12
REMARK   11  A    between atoms: C_12  and  O_13
REMARK   12  A    between atoms: O_13  and  C_14
REMARK   13  A    between atoms: C_17  and  C_18
REMARK                            x       y       z     vdW  Elec       q    Type
REMARK                         _______ _______ _______ _____ _____    ______ ____
ROOT
ATOM      1  C   UNL     1       4.524   5.428  18.079  0.00  0.00    +0.000 A 
ATOM      2  N   UNL     1       3.980   6.635  18.334  0.00  0.00    +0.000 NA
ATOM      3  C   UNL     1       2.667   6.685  18.628  0.00  0.00    +0.000 A 
ATOM      4  N   UNL     1       1.860   5.614  18.674  0.00  0.00    +0.000 NA
ATOM      5  C   UNL     1       2.394   4.421  18.424  0.00  0.00    +0.000 A 
ATOM      6  C   UNL     1       1.548   3.318  18.453  0.00  0.00    +0.000 A 
ATOM      7  C   UNL     1       2.010   2.022  18.213  0.00  0.00    +0.000 A 
ATOM      8  C   UNL     1       3.347   1.816  17.929  0.00  0.00    +0.000 A 
ATOM      9  C   UNL     1       4.201   2.913  17.868  0.00  0.00    +0.000 A 
ATOM     10  C   UNL     1       3.748   4.239  18.128  0.00  0.00    +0.000 A 
ENDROOT
BRANCH   3  11
ATOM     11  C   UNL     1       2.059   7.992  18.969  0.00  0.00    +0.000 A 
ATOM     12  C   UNL     1       1.562   8.273  20.254  0.00  0.00    +0.000 A 
ATOM     13  C   UNL     1       0.942   9.494  20.547  0.00  0.00    +0.000 A 
ATOM     14  C   UNL     1       0.808  10.468  19.560  0.00  0.00    +0.000 A 
ATOM     15  C   UNL     1       1.307  10.229  18.286  0.00  0.00    +0.000 A 
ATOM     16  C   UNL     1       1.927   9.008  17.999  0.00  0.00    +0.000 A 
ENDBRANCH   3  11
BRANCH   1  17
ATOM     17  N   UNL     1       5.903   5.366  17.698  0.00  0.00    +0.000 N 
BRANCH  17  18
ATOM     18  C   UNL     1       6.137   5.652  16.260  0.00  0.00    +0.000 C 
BRANCH  18  19
ATOM     19  C   UNL     1       6.948   4.550  15.560  0.00  0.00    +0.000 C 
BRANCH  19  21
ATOM     20  N   UNL     1       5.911   3.514  13.618  0.00  0.00    +0.000 N 
ATOM     21  C   UNL     1       6.779   4.476  14.050  0.00  0.00    +0.000 C 
ATOM     22  O   UNL     1       7.439   5.176  13.289  0.00  0.00    +0.000 OA
ATOM     23  H   UNL     1       5.535   2.888  14.322  0.00  0.00    +0.000 HD
BRANCH  20  24
ATOM     24  C   UNL     1       5.658   3.190  12.227  0.00  0.00    +0.000 C 
BRANCH  24  25
ATOM     25  C   UNL     1       4.249   3.590  11.793  0.00  0.00    +0.000 C 
BRANCH  25  27
ATOM     26  C   UNL     1       3.082   3.728   9.745  0.00  0.00    +0.000 C 
ATOM     27  O   UNL     1       3.913   2.920  10.568  0.00  0.00    +0.000 OA
ENDBRANCH  25  27
ENDBRANCH  24  25
ENDBRANCH  20  24
ENDBRANCH  19  21
ENDBRANCH  18  19
ENDBRANCH  17  18
BRANCH  17  28
ATOM     28  C   UNL     1       6.779   5.949  18.752  0.00  0.00    +0.000 C 
BRANCH  28  29
ATOM     29  C   UNL     1       8.005   6.770  18.330  0.00  0.00    +0.000 C 
BRANCH  29  30
ATOM     30  O   UNL     1       7.751   7.816  17.395  0.00  0.00    +0.000 OA
ATOM     31  C   UNL     1       7.959   9.117  17.924  0.00  0.00    +0.000 C 
ENDBRANCH  29  30
ENDBRANCH  28  29
ENDBRANCH  17  28
ENDBRANCH   1  17
TORSDOF 11
ENDMDL
MODEL 2
REMARK VINA RESULT:      -7.6      1.447      1.709
REMARK  Name = 
REMARK  13 active torsions:
REMARK  status: ('A' for Active; 'I' for Inactive)
REMARK    1  A    between atoms: C_1  and  O_2
REMARK    2  A    between atoms: O_2  and  C_3
REMARK    3  A    between atoms: C_3  and  C_4
REMARK    4  A    between atoms: C_4  and  N_5
REMARK    5  A    between atoms: C_6  and  C_8
REMARK    6  A    between atoms: C_8  and  C_9
REMARK    7  A    between atoms: C_9  and  N_10
REMARK    8  A    between atoms: N_10  and  C_11
REMARK    9  A    between atoms: N_10  and  C_15
REMARK   10  A    between atoms: C_11  and  C_12
REMARK   11  A    between atoms: C_12  and  O_13
REMARK   12  A    between atoms: O_13  and  C_14
REMARK   13  A    between atoms: C_17  and  C_18
REMARK                            x       y       z     vdW  Elec       q    Type
REMARK                         _______ _______ _______ _____ _____    ______ ____
ROOT
ATOM      1  C   UNL     1       4.266   5.163  18.727  0.00  0.00    +0.000 A 
ATOM      2  N   UNL     1       3.721   6.381  18.531  0.00  0.00    +0.000 NA
ATOM      3  C   UNL     1       2.640   6.713  19.262  0.00  0.00    +0.000 A 
ATOM      4  N   UNL     1       2.061   5.907  20.166  0.00  0.00    +0.000 NA
ATOM      5  C   UNL     1       2.598   4.705  20.363  0.00  0.00    +0.000 A 
ATOM      6  C   UNL     1       1.980   3.868  21.286  0.00  0.00    +0.000 A 
ATOM      7  C   UNL     1       2.468   2.590  21.571  0.00  0.00    +0.000 A 
ATOM      8  C   UNL     1       3.594   2.128  20.916  0.00  0.00    +0.000 A 
ATOM      9  C   UNL     1       4.207   2.943  19.969  0.00  0.00    +0.000 A 
ATOM     10  C   UNL     1       3.731   4.255  19.680  0.00  0.00    +0.000 A 
ENDROOT
BRANCH   3  11
ATOM     11  C   UNL     1       2.059   8.066  19.108  0.00  0.00    +0.000 A 
ATOM     12  C   UNL     1       2.250   8.834  17.946  0.00  0.00    +0.000 A 
ATOM     13  C   UNL     1       1.739  10.134  17.837  0.00  0.00    +0.000 A 
ATOM     14  C   UNL     1       1.019  10.696  18.888  0.00  0.00    +0.000 A 
ATOM     15  C   UNL     1       0.795   9.955  20.042  0.00  0.00    +0.000 A 
ATOM     16  C   UNL     1       1.306   8.657  20.146  0.00  0.00    +0.000 A 
ENDBRANCH   3  11
BRANCH   1  17
ATOM     17  N   UNL     1       5.374   4.770  17.909  0.00  0.00    +0.000 N 
BRANCH  17  18
ATOM     18  C   UNL     1       4.991   3.903  16.765  0.00  0.00    +0.000 C 
BRANCH  18  19
ATOM     19  C   UNL     1       6.149   3.676  15.780  0.00  0.00    +0.000 C 
BRANCH  19  21
ATOM     20  N   UNL     1       6.152   3.091  13.418  0.00  0.00    +0.000 N 
ATOM     21  C   UNL     1       5.860   4.060  14.336  0.00  0.00    +0.000 C 
ATOM     22  O   UNL     1       5.474   5.182  14.028  0.00  0.00    +0.000 OA
ATOM     23  H   UNL     1       6.610   2.255  13.766  0.00  0.00    +0.000 HD
BRANCH  20  24
ATOM     24  C   UNL     1       6.053   3.254  11.981  0.00  0.00    +0.000 C 
BRANCH  24  25
ATOM     25  C   UNL     1       4.649   2.945  11.465  0.00  0.00    +0.000 C 
BRANCH  25  27
ATOM     26  C   UNL     1       3.072   3.800   9.930  0.00  0.00    +0.000 C 
ATOM     27  O   UNL     1       4.079   4.125  10.878  0.00  0.00    +0.000 OA
ENDBRANCH  25  27
ENDBRANCH  24  25
ENDBRANCH  20  24
ENDBRANCH  19  21
ENDBRANCH  18  19
ENDBRANCH  17  18
BRANCH  17  28
ATOM     28  C   UNL     1       6.340   5.890  17.737  0.00  0.00    +0.000 C 
BRANCH  28  29
ATOM     29  C   UNL     1       7.457   6.073  18.773  0.00  0.00    +0.000 C 
BRANCH  29  30
ATOM     30  O   UNL     1       8.244   7.253  18.626  0.00  0.00    +0.000 OA
ATOM     31  C   UNL     1       7.762   8.140  17.627  0.00  0.00    +0.000 C 
ENDBRANCH  29  30
ENDBRANCH  28  29
ENDBRANCH  17  28
ENDBRANCH   1  17
TORSDOF 11
ENDMDL
MODEL 3
REMARK VINA RESULT:      -7.5      1.454      1.501
REMARK  Name = 
REMARK  13 active torsions:
REMARK  status: ('A' for Active; 'I' for Inactive)
REMARK    1  A    between atoms: C_1  and  O_2
REMARK    2  A    between atoms: O_2  and  C_3
REMARK    3  A    between atoms: C_3  and  C_4
REMARK    4  A    between atoms: C_4  and  N_5
REMARK    5  A    between atoms: C_6  and  C_8
REMARK    6  A    between atoms: C_8  and  C_9
REMARK    7  A    between atoms: C_9  and  N_10
REMARK    8  A    between atoms: N_10  and  C_11
REMARK    9  A    between atoms: N_10  and  C_15
REMARK   10  A    between atoms: C_11  and  C_12
REMARK   11  A    between atoms: C_12  and  O_13
REMARK   12  A    between atoms: O_13  and  C_14
REMARK   13  A    between atoms: C_17  and  C_18
REMARK                            x       y       z     vdW  Elec       q    Type
REMARK                         _______ _______ _______ _____ _____    ______ ____
ROOT
ATOM      1  C   UNL     1       4.010   5.545  18.785  0.00  0.00    +0.000 A 
ATOM      2  N   UNL     1       3.400   6.748  18.754  0.00  0.00    +0.000 NA
ATOM      3  C   UNL     1       2.358   6.947  19.584  0.00  0.00    +0.000 A 
ATOM      4  N   UNL     1       1.880   6.025  20.434  0.00  0.00    +0.000 NA
ATOM      5  C   UNL     1       2.482   4.838  20.468  0.00  0.00    +0.000 A 
ATOM      6  C   UNL     1       1.967   3.880  21.335  0.00  0.00    +0.000 A 
ATOM      7  C   UNL     1       2.530   2.607  21.452  0.00  0.00    +0.000 A 
ATOM      8  C   UNL     1       3.627   2.273  20.681  0.00  0.00    +0.000 A 
ATOM      9  C   UNL     1       4.136   3.210  19.787  0.00  0.00    +0.000 A 
ATOM     10  C   UNL     1       3.583   4.519  19.670  0.00  0.00    +0.000 A 
ENDROOT
BRANCH   3  11
ATOM     11  C   UNL     1       1.709   8.278  19.611  0.00  0.00    +0.000 A 
ATOM     12  C   UNL     1       1.052   8.767  20.755  0.00  0.00    +0.000 A 
ATOM     13  C   UNL     1       0.396  10.004  20.748  0.00  0.00    +0.000 A 
ATOM     14  C   UNL     1       0.386  10.787  19.596  0.00  0.00    +0.000 A 
ATOM     15  C   UNL     1       1.044  10.341  18.456  0.00  0.00    +0.000 A 
ATOM     16  C   UNL     1       1.699   9.105  18.468  0.00  0.00    +0.000 A 
ENDBRANCH   3  11
BRANCH   1  17
ATOM     17  N   UNL     1       5.075   5.295  17.861  0.00  0.00    +0.000 N 
BRANCH  17  18
ATOM     18  C   UNL     1       4.775   4.216  16.885  0.00  0.00    +0.000 C 
BRANCH  18  19
ATOM     19  C   UNL     1       5.984   3.858  16.007  0.00  0.00    +0.000 C 
BRANCH  19  21
ATOM     20  N   UNL     1       6.271   3.223  13.675  0.00  0.00    +0.000 N 
ATOM     21  C   UNL     1       5.840   4.198  14.531  0.00  0.00    +0.000 C 
ATOM     22  O   UNL     1       5.444   5.295  14.153  0.00  0.00    +0.000 OA
ATOM     23  H   UNL     1       6.723   2.417  14.093  0.00  0.00    +0.000 HD
BRANCH  20  24
ATOM     24  C   UNL     1       6.324   3.351  12.232  0.00  0.00    +0.000 C 
BRANCH  24  25
ATOM     25  C   UNL     1       5.111   2.714  11.556  0.00  0.00    +0.000 C 
BRANCH  25  27
ATOM     26  C   UNL     1       3.141   3.199  10.349  0.00  0.00    +0.000 C 
ATOM     27  O   UNL     1       4.212   3.741  11.110  0.00  0.00    +0.000 OA
ENDBRANCH  25  27
ENDBRANCH  24  25
ENDBRANCH  20  24
ENDBRANCH  19  21
ENDBRANCH  18  19
ENDBRANCH  17  18
BRANCH  17  28
ATOM     28  C   UNL     1       5.723   6.565  17.430  0.00  0.00    +0.000 C 
BRANCH  28  29
ATOM     29  C   UNL     1       7.212   6.779  17.731  0.00  0.00    +0.000 C 
BRANCH  29  30
ATOM     30  O   UNL     1       7.806   7.919  17.114  0.00  0.00    +0.000 OA
ATOM     31  C   UNL     1       8.039   8.997  18.009  0.00  0.00    +0.000 C 
ENDBRANCH  29  30
ENDBRANCH  28  29
ENDBRANCH  17  28
ENDBRANCH   1  17
TORSDOF 11
ENDMDL
MODEL 4
REMARK VINA RESULT:      -7.5      1.996      5.296
REMARK  Name = 
REMARK  13 active torsions:
REMARK  status: ('A' for Active; 'I' for Inactive)
REMARK    1  A    between atoms: C_1  and  O_2
REMARK    2  A    between atoms: O_2  and  C_3
REMARK    3  A    between atoms: C_3  and  C_4
REMARK    4  A    between atoms: C_4  and  N_5
REMARK    5  A    between atoms: C_6  and  C_8
REMARK    6  A    between atoms: C_8  and  C_9
REMARK    7  A    between atoms: C_9  and  N_10
REMARK    8  A    between atoms: N_10  and  C_11
REMARK    9  A    between atoms: N_10  and  C_15
REMARK   10  A    between atoms: C_11  and  C_12
REMARK   11  A    between atoms: C_12  and  O_13
REMARK   12  A    between atoms: O_13  and  C_14
REMARK   13  A    between atoms: C_17  and  C_18
REMARK                            x       y       z     vdW  Elec       q    Type
REMARK                         _______ _______ _______ _____ _____    ______ ____
ROOT
ATOM      1  C   UNL     1       4.474   5.691  17.456  0.00  0.00    +0.000 A 
ATOM      2  N   UNL     1       3.898   6.863  17.790  0.00  0.00    +0.000 NA
ATOM      3  C   UNL     1       2.687   6.824  18.379  0.00  0.00    +0.000 A 
ATOM      4  N   UNL     1       2.011   5.696  18.645  0.00  0.00    +0.000 NA
ATOM      5  C   UNL     1       2.579   4.538  18.317  0.00  0.00    +0.000 A 
ATOM      6  C   UNL     1       1.863   3.374  18.577  0.00  0.00    +0.000 A 
ATOM      7  C   UNL     1       2.372   2.108  18.279  0.00  0.00    +0.000 A 
ATOM      8  C   UNL     1       3.621   1.994  17.699  0.00  0.00    +0.000 A 
ATOM      9  C   UNL     1       4.338   3.151  17.406  0.00  0.00    +0.000 A 
ATOM     10  C   UNL     1       3.839   4.448  17.721  0.00  0.00    +0.000 A 
ENDROOT
BRANCH   3  11
ATOM     11  C   UNL     1       2.059   8.094  18.810  0.00  0.00    +0.000 A 
ATOM     12  C   UNL     1       1.549   8.274  20.107  0.00  0.00    +0.000 A 
ATOM     13  C   UNL     1       0.910   9.462  20.483  0.00  0.00    +0.000 A 
ATOM     14  C   UNL     1       0.770  10.504  19.569  0.00  0.00    +0.000 A 
ATOM     15  C   UNL     1       1.282  10.365  18.285  0.00  0.00    +0.000 A 
ATOM     16  C   UNL     1       1.921   9.177  17.915  0.00  0.00    +0.000 A 
ENDBRANCH   3  11
BRANCH   1  17
ATOM     17  N   UNL     1       5.730   5.719  16.768  0.00  0.00    +0.000 N 
BRANCH  17  18
ATOM     18  C   UNL     1       6.858   5.171  17.564  0.00  0.00    +0.000 C 
BRANCH  18  19
ATOM     19  C   UNL     1       7.433   6.193  18.558  0.00  0.00    +0.000 C 
BRANCH  19  21
ATOM     20  N   UNL     1       8.571   8.333  18.778  0.00  0.00    +0.000 N 
ATOM     21  C   UNL     1       7.821   7.537  17.958  0.00  0.00    +0.000 C 
ATOM     22  O   UNL     1       7.418   7.897  16.858  0.00  0.00    +0.000 OA
ATOM     23  H   UNL     1       8.719   8.001  19.725  0.00  0.00    +0.000 HD
BRANCH  20  24
ATOM     24  C   UNL     1       8.980   9.689  18.469  0.00  0.00    +0.000 C 
BRANCH  24  25
ATOM     25  C   UNL     1       9.345  10.478  19.725  0.00  0.00    +0.000 C 
BRANCH  25  27
ATOM     26  C   UNL     1      10.415  12.451  18.995  0.00  0.00    +0.000 C 
ATOM     27  O   UNL     1       9.202  11.884  19.471  0.00  0.00    +0.000 OA
ENDBRANCH  25  27
ENDBRANCH  24  25
ENDBRANCH  20  24
ENDBRANCH  19  21
ENDBRANCH  18  19
ENDBRANCH  17  18
BRANCH  17  28
ATOM     28  C   UNL     1       5.564   5.372  15.328  0.00  0.00    +0.000 C 
BRANCH  28  29
ATOM     29  C   UNL     1       6.691   4.620  14.610  0.00  0.00    +0.000 C 
BRANCH  29  30
ATOM     30  O   UNL     1       7.798   5.418  14.198  0.00  0.00    +0.000 OA
ATOM     31  C   UNL     1       8.008   5.421  12.793  0.00  0.00    +0.000 C 
ENDBRANCH  29  30
ENDBRANCH  28  29
ENDBRANCH  17  28
ENDBRANCH   1  17
TORSDOF 11
ENDMDL
MODEL 5
REMARK VINA RESULT:      -7.5      2.263      5.305
REMARK  Name = 
REMARK  13 active torsions:
REMARK  status: ('A' for Active; 'I' for Inactive)
REMARK    1  A    between atoms: C_1  and  O_2
REMARK    2  A    between atoms: O_2  and  C_3
REMARK    3  A    between atoms: C_3  and  C_4
REMARK    4  A    between atoms: C_4  and  N_5
REMARK    5  A    between atoms: C_6  and  C_8
REMARK    6  A    between atoms: C_8  and  C_9
REMARK    7  A    between atoms: C_9  and  N_10
REMARK    8  A    between atoms: N_10  and  C_11
REMARK    9  A    between atoms: N_10  and  C_15
REMARK   10  A    between atoms: C_11  and  C_12
REMARK   11  A    between atoms: C_12  and  O_13
REMARK   12  A    between atoms: O_13  and  C_14
REMARK   13  A    between atoms: C_17  and  C_18
REMARK                            x       y       z     vdW  Elec       q    Type
REMARK                         _______ _______ _______ _____ _____    ______ ____
ROOT
ATOM      1  C   UNL     1       3.998   5.485  19.176  0.00  0.00    +0.000 A 
ATOM      2  N   UNL     1       3.444   6.711  19.076  0.00  0.00    +0.000 NA
ATOM      3  C   UNL     1       2.280   6.931  19.717  0.00  0.00    +0.000 A 
ATOM      4  N   UNL     1       1.628   6.007  20.440  0.00  0.00    +0.000 NA
ATOM      5  C   UNL     1       2.173   4.797  20.542  0.00  0.00    +0.000 A 
ATOM      6  C   UNL     1       1.482   3.839  21.275  0.00  0.00    +0.000 A 
ATOM      7  C   UNL     1       1.971   2.542  21.449  0.00  0.00    +0.000 A 
ATOM      8  C   UNL     1       3.175   2.184  20.872  0.00  0.00    +0.000 A 
ATOM      9  C   UNL     1       3.865   3.123  20.111  0.00  0.00    +0.000 A 
ATOM     10  C   UNL     1       3.387   4.455  19.940  0.00  0.00    +0.000 A 
ENDROOT
BRANCH   3  11
ATOM     11  C   UNL     1       1.682   8.284  19.672  0.00  0.00    +0.000 A 
ATOM     12  C   UNL     1       1.083   8.876  20.799  0.00  0.00    +0.000 A 
ATOM     13  C   UNL     1       0.474  10.135  20.726  0.00  0.00    +0.000 A 
ATOM     14  C   UNL     1       0.454  10.837  19.523  0.00  0.00    +0.000 A 
ATOM     15  C   UNL     1       1.056  10.289  18.397  0.00  0.00    +0.000 A 
ATOM     16  C   UNL     1       1.664   9.032  18.474  0.00  0.00    +0.000 A 
ENDBRANCH   3  11
BRANCH   1  17
ATOM     17  N   UNL     1       5.199   5.217  18.445  0.00  0.00    +0.000 N 
BRANCH  17  18
ATOM     18  C   UNL     1       6.432   5.315  19.268  0.00  0.00    +0.000 C 
BRANCH  18  19
ATOM     19  C   UNL     1       7.688   5.585  18.425  0.00  0.00    +0.000 C 
BRANCH  19  21
ATOM     20  N   UNL     1       8.317   7.931  18.580  0.00  0.00    +0.000 N 
ATOM     21  C   UNL     1       7.760   6.966  17.789  0.00  0.00    +0.000 C 
ATOM     22  O   UNL     1       7.278   7.198  16.686  0.00  0.00    +0.000 OA
ATOM     23  H   UNL     1       8.543   7.666  19.532  0.00  0.00    +0.000 HD
BRANCH  20  24
ATOM     24  C   UNL     1       8.409   9.336  18.233  0.00  0.00    +0.000 C 
BRANCH  24  25
ATOM     25  C   UNL     1       9.290  10.111  19.211  0.00  0.00    +0.000 C 
BRANCH  25  27
ATOM     26  C   UNL     1      10.710  11.985  19.419  0.00  0.00    +0.000 C 
ATOM     27  O   UNL     1       9.874  11.240  18.543  0.00  0.00    +0.000 OA
ENDBRANCH  25  27
ENDBRANCH  24  25
ENDBRANCH  20  24
ENDBRANCH  19  21
ENDBRANCH  18  19
ENDBRANCH  17  18
BRANCH  17  28
ATOM     28  C   UNL     1       5.004   4.099  17.480  0.00  0.00    +0.000 C 
BRANCH  28  29
ATOM     29  C   UNL     1       5.116   4.385  15.977  0.00  0.00    +0.000 C 
BRANCH  29  30
ATOM     30  O   UNL     1       6.342   3.992  15.366  0.00  0.00    +0.000 OA
ATOM     31  C   UNL     1       6.293   3.976  13.947  0.00  0.00    +0.000 C 
ENDBRANCH  29  30
ENDBRANCH  28  29
ENDBRANCH  17  28
ENDBRANCH   1  17
TORSDOF 11
ENDMDL
MODEL 6
REMARK VINA RESULT:      -7.4      1.696      1.955
REMARK  Name = 
REMARK  13 active torsions:
REMARK  status: ('A' for Active; 'I' for Inactive)
REMARK    1  A    between atoms: C_1  and  O_2
REMARK    2  A    between atoms: O_2  and  C_3
REMARK    3  A    between atoms: C_3  and  C_4
REMARK    4  A    between atoms: C_4  and  N_5
REMARK    5  A    between atoms: C_6  and  C_8
REMARK    6  A    between atoms: C_8  and  C_9
REMARK    7  A    between atoms: C_9  and  N_10
REMARK    8  A    between atoms: N_10  and  C_11
REMARK    9  A    between atoms: N_10  and  C_15
REMARK   10  A    between atoms: C_11  and  C_12
REMARK   11  A    between atoms: C_12  and  O_13
REMARK   12  A    between atoms: O_13  and  C_14
REMARK   13  A    between atoms: C_17  and  C_18
REMARK                            x       y       z     vdW  Elec       q    Type
REMARK                         _______ _______ _______ _____ _____    ______ ____
ROOT
ATOM      1  C   UNL     1       4.143   4.955  19.344  0.00  0.00    +0.000 A 
ATOM      2  N   UNL     1       3.719   6.204  19.060  0.00  0.00    +0.000 NA
ATOM      3  C   UNL     1       2.520   6.586  19.540  0.00  0.00    +0.000 A 
ATOM      4  N   UNL     1       1.713   5.803  20.273  0.00  0.00    +0.000 NA
ATOM      5  C   UNL     1       2.130   4.571  20.556  0.00  0.00    +0.000 A 
ATOM      6  C   UNL     1       1.280   3.758  21.298  0.00  0.00    +0.000 A 
ATOM      7  C   UNL     1       1.626   2.452  21.655  0.00  0.00    +0.000 A 
ATOM      8  C   UNL     1       2.845   1.937  21.257  0.00  0.00    +0.000 A 
ATOM      9  C   UNL     1       3.695   2.728  20.489  0.00  0.00    +0.000 A 
ATOM     10  C   UNL     1       3.363   4.067  20.132  0.00  0.00    +0.000 A 
ENDROOT
BRANCH   3  11
ATOM     11  C   UNL     1       2.058   7.971  19.292  0.00  0.00    +0.000 A 
ATOM     12  C   UNL     1       1.323   8.696  20.246  0.00  0.00    +0.000 A 
ATOM     13  C   UNL     1       0.847   9.985  19.976  0.00  0.00    +0.000 A 
ATOM     14  C   UNL     1       1.100  10.584  18.744  0.00  0.00    +0.000 A 
ATOM     15  C   UNL     1       1.841   9.901  17.788  0.00  0.00    +0.000 A 
ATOM     16  C   UNL     1       2.316   8.614  18.062  0.00  0.00    +0.000 A 
ENDBRANCH   3  11
BRANCH   1  17
ATOM     17  N   UNL     1       5.384   4.512  18.785  0.00  0.00    +0.000 N 
BRANCH  17  18
ATOM     18  C   UNL     1       5.232   3.789  17.496  0.00  0.00    +0.000 C 
BRANCH  18  19
ATOM     19  C   UNL     1       4.458   4.604  16.448  0.00  0.00    +0.000 C 
BRANCH  19  21
ATOM     20  N   UNL     1       6.000   4.201  14.609  0.00  0.00    +0.000 N 
ATOM     21  C   UNL     1       5.294   5.146  15.297  0.00  0.00    +0.000 C 
ATOM     22  O   UNL     1       5.382   6.348  15.070  0.00  0.00    +0.000 OA
ATOM     23  H   UNL     1       5.976   3.256  14.976  0.00  0.00    +0.000 HD
BRANCH  20  24
ATOM     24  C   UNL     1       6.937   4.482  13.538  0.00  0.00    +0.000 C 
BRANCH  24  25
ATOM     25  C   UNL     1       6.637   3.663  12.285  0.00  0.00    +0.000 C 
BRANCH  25  27
ATOM     26  C   UNL     1       4.459   3.255  11.471  0.00  0.00    +0.000 C 
ATOM     27  O   UNL     1       5.418   2.927  12.468  0.00  0.00    +0.000 OA
ENDBRANCH  25  27
ENDBRANCH  24  25
ENDBRANCH  20  24
ENDBRANCH  19  21
ENDBRANCH  18  19
ENDBRANCH  17  18
BRANCH  17  28
ATOM     28  C   UNL     1       6.456   5.529  18.976  0.00  0.00    +0.000 C 
BRANCH  28  29
ATOM     29  C   UNL     1       7.716   5.454  18.105  0.00  0.00    +0.000 C 
BRANCH  29  30
ATOM     30  O   UNL     1       7.918   6.554  17.220  0.00  0.00    +0.000 OA
ATOM     31  C   UNL     1       7.185   7.717  17.578  0.00  0.00    +0.000 C 
ENDBRANCH  29  30
ENDBRANCH  28  29
ENDBRANCH  17  28
ENDBRANCH   1  17
TORSDOF 11
ENDMDL
MODEL 7
REMARK VINA RESULT:      -7.3      0.985      1.502
REMARK  Name = 
REMARK  13 active torsions:
REMARK  status: ('A' for Active; 'I' for Inactive)
REMARK    1  A    between atoms: C_1  and  O_2
REMARK    2  A    between atoms: O_2  and  C_3
REMARK    3  A    between atoms: C_3  and  C_4
REMARK    4  A    between atoms: C_4  and  N_5
REMARK    5  A    between atoms: C_6  and  C_8
REMARK    6  A    between atoms: C_8  and  C_9
REMARK    7  A    between atoms: C_9  and  N_10
REMARK    8  A    between atoms: N_10  and  C_11
REMARK    9  A    between atoms: N_10  and  C_15
REMARK   10  A    between atoms: C_11  and  C_12
REMARK   11  A    between atoms: C_12  and  O_13
REMARK   12  A    between atoms: O_13  and  C_14
REMARK   13  A    between atoms: C_17  and  C_18
REMARK                            x       y       z     vdW  Elec       q    Type
REMARK                         _______ _______ _______ _____ _____    ______ ____
ROOT
ATOM      1  C   UNL     1       4.340   5.377  17.888  0.00  0.00    +0.000 A 
ATOM      2  N   UNL     1       3.838   6.609  18.106  0.00  0.00    +0.000 NA
ATOM      3  C   UNL     1       2.572   6.703  18.555  0.00  0.00    +0.000 A 
ATOM      4  N   UNL     1       1.772   5.652  18.788  0.00  0.00    +0.000 NA
ATOM      5  C   UNL     1       2.266   4.434  18.575  0.00  0.00    +0.000 A 
ATOM      6  C   UNL     1       1.424   3.350  18.799  0.00  0.00    +0.000 A 
ATOM      7  C   UNL     1       1.846   2.032  18.613  0.00  0.00    +0.000 A 
ATOM      8  C   UNL     1       3.136   1.783  18.184  0.00  0.00    +0.000 A 
ATOM      9  C   UNL     1       3.982   2.858  17.928  0.00  0.00    +0.000 A 
ATOM     10  C   UNL     1       3.571   4.208  18.130  0.00  0.00    +0.000 A 
ENDROOT
BRANCH   3  11
ATOM     11  C   UNL     1       2.018   8.042  18.859  0.00  0.00    +0.000 A 
ATOM     12  C   UNL     1       1.997   9.077  17.907  0.00  0.00    +0.000 A 
ATOM     13  C   UNL     1       1.518  10.354  18.226  0.00  0.00    +0.000 A 
ATOM     14  C   UNL     1       1.043  10.626  19.507  0.00  0.00    +0.000 A 
ATOM     15  C   UNL     1       1.031   9.619  20.464  0.00  0.00    +0.000 A 
ATOM     16  C   UNL     1       1.509   8.345  20.140  0.00  0.00    +0.000 A 
ENDBRANCH   3  11
BRANCH   1  17
ATOM     17  N   UNL     1       5.661   5.263  17.346  0.00  0.00    +0.000 N 
BRANCH  17  18
ATOM     18  C   UNL     1       5.693   5.201  15.863  0.00  0.00    +0.000 C 
BRANCH  18  19
ATOM     19  C   UNL     1       7.085   4.850  15.314  0.00  0.00    +0.000 C 
BRANCH  19  21
ATOM     20  N   UNL     1       6.602   3.536  13.323  0.00  0.00    +0.000 N 
ATOM     21  C   UNL     1       7.166   4.684  13.803  0.00  0.00    +0.000 C 
ATOM     22  O   UNL     1       7.767   5.485  13.094  0.00  0.00    +0.000 OA
ATOM     23  H   UNL     1       6.269   2.869  14.011  0.00  0.00    +0.000 HD
BRANCH  20  24
ATOM     24  C   UNL     1       6.638   3.111  11.937  0.00  0.00    +0.000 C 
BRANCH  24  25
ATOM     25  C   UNL     1       5.453   2.215  11.582  0.00  0.00    +0.000 C 
BRANCH  25  27
ATOM     26  C   UNL     1       6.251  -0.002  11.436  0.00  0.00    +0.000 C 
ATOM     27  O   UNL     1       5.889   1.163  10.707  0.00  0.00    +0.000 OA
ENDBRANCH  25  27
ENDBRANCH  24  25
ENDBRANCH  20  24
ENDBRANCH  19  21
ENDBRANCH  18  19
ENDBRANCH  17  18
BRANCH  17  28
ATOM     28  C   UNL     1       6.628   6.107  18.103  0.00  0.00    +0.000 C 
BRANCH  28  29
ATOM     29  C   UNL     1       7.085   7.440  17.496  0.00  0.00    +0.000 C 
BRANCH  29  30
ATOM     30  O   UNL     1       8.280   7.988  18.048  0.00  0.00    +0.000 OA
ATOM     31  C   UNL     1       8.307   9.408  18.052  0.00  0.00    +0.000 C 
ENDBRANCH  29  30
ENDBRANCH  28  29
ENDBRANCH  17  28
ENDBRANCH   1  17
TORSDOF 11
ENDMDL
MODEL 8
REMARK VINA RESULT:      -7.3      1.457      1.789
REMARK  Name = 
REMARK  13 active torsions:
REMARK  status: ('A' for Active; 'I' for Inactive)
REMARK    1  A    between atoms: C_1  and  O_2
REMARK    2  A    between atoms: O_2  and  C_3
REMARK    3  A    between atoms: C_3  and  C_4
REMARK    4  A    between atoms: C_4  and  N_5
REMARK    5  A    between atoms: C_6  and  C_8
REMARK    6  A    between atoms: C_8  and  C_9
REMARK    7  A    between atoms: C_9  and  N_10
REMARK    8  A    between atoms: N_10  and  C_11
REMARK    9  A    between atoms: N_10  and  C_15
REMARK   10  A    between atoms: C_11  and  C_12
REMARK   11  A    between atoms: C_12  and  O_13
REMARK   12  A    between atoms: O_13  and  C_14
REMARK   13  A    between atoms: C_17  and  C_18
REMARK                            x       y       z     vdW  Elec       q    Type
REMARK                         _______ _______ _______ _____ _____    ______ ____
ROOT
ATOM      1  C   UNL     1       4.056   5.706  18.884  0.00  0.00    +0.000 A 
ATOM      2  N   UNL     1       3.392   6.880  18.873  0.00  0.00    +0.000 NA
ATOM      3  C   UNL     1       2.307   6.997  19.662  0.00  0.00    +0.000 A 
ATOM      4  N   UNL     1       1.836   6.020  20.452  0.00  0.00    +0.000 NA
ATOM      5  C   UNL     1       2.491   4.861  20.466  0.00  0.00    +0.000 A 
ATOM      6  C   UNL     1       1.985   3.846  21.270  0.00  0.00    +0.000 A 
ATOM      7  C   UNL     1       2.602   2.596  21.363  0.00  0.00    +0.000 A 
ATOM      8  C   UNL     1       3.746   2.344  20.630  0.00  0.00    +0.000 A 
ATOM      9  C   UNL     1       4.248   3.340  19.798  0.00  0.00    +0.000 A 
ATOM     10  C   UNL     1       3.641   4.626  19.707  0.00  0.00    +0.000 A 
ENDROOT
BRANCH   3  11
ATOM     11  C   UNL     1       1.595   8.295  19.712  0.00  0.00    +0.000 A 
ATOM     12  C   UNL     1       1.448   9.112  18.577  0.00  0.00    +0.000 A 
ATOM     13  C   UNL     1       0.819  10.361  18.652  0.00  0.00    +0.000 A 
ATOM     14  C   UNL     1       0.315  10.821  19.867  0.00  0.00    +0.000 A 
ATOM     15  C   UNL     1       0.426  10.028  21.002  0.00  0.00    +0.000 A 
ATOM     16  C   UNL     1       1.054   8.781  20.922  0.00  0.00    +0.000 A 
ENDBRANCH   3  11
BRANCH   1  17
ATOM     17  N   UNL     1       5.171   5.544  18.000  0.00  0.00    +0.000 N 
BRANCH  17  18
ATOM     18  C   UNL     1       4.940   4.540  16.929  0.00  0.00    +0.000 C 
BRANCH  18  19
ATOM     19  C   UNL     1       6.248   3.966  16.363  0.00  0.00    +0.000 C 
BRANCH  19  21
ATOM     20  N   UNL     1       5.789   3.916  13.974  0.00  0.00    +0.000 N 
ATOM     21  C   UNL     1       6.600   4.417  14.953  0.00  0.00    +0.000 C 
ATOM     22  O   UNL     1       7.586   5.108  14.720  0.00  0.00    +0.000 OA
ATOM     23  H   UNL     1       5.098   3.231  14.259  0.00  0.00    +0.000 HD
BRANCH  20  24
ATOM     24  C   UNL     1       5.981   4.124  12.551  0.00  0.00    +0.000 C 
BRANCH  24  25
ATOM     25  C   UNL     1       6.399   2.840  11.836  0.00  0.00    +0.000 C 
BRANCH  25  27
ATOM     26  C   UNL     1       4.165   2.970  11.083  0.00  0.00    +0.000 C 
ATOM     27  O   UNL     1       5.230   2.102  11.447  0.00  0.00    +0.000 OA
ENDBRANCH  25  27
ENDBRANCH  24  25
ENDBRANCH  20  24
ENDBRANCH  19  21
ENDBRANCH  18  19
ENDBRANCH  17  18
BRANCH  17  28
ATOM     28  C   UNL     1       5.818   6.852  17.703  0.00  0.00    +0.000 C 
BRANCH  28  29
ATOM     29  C   UNL     1       7.348   6.952  17.752  0.00  0.00    +0.000 C 
BRANCH  29  30
ATOM     30  O   UNL     1       7.914   8.065  17.063  0.00  0.00    +0.000 OA
ATOM     31  C   UNL     1       8.093   9.212  17.882  0.00  0.00    +0.000 C 
ENDBRANCH  29  30
ENDBRANCH  28  29
ENDBRANCH  17  28
ENDBRANCH   1  17
TORSDOF 11
ENDMDL
MODEL 9
REMARK VINA RESULT:      -7.3      1.687      2.099
REMARK  Name = 
REMARK  13 active torsions:
REMARK  status: ('A' for Active; 'I' for Inactive)
REMARK    1  A    between atoms: C_1  and  O_2
REMARK    2  A    between atoms: O_2  and  C_3
REMARK    3  A    between atoms: C_3  and  C_4
REMARK    4  A    between atoms: C_4  and  N_5
REMARK    5  A    between atoms: C_6  and  C_8
REMARK    6  A    between atoms: C_8  and  C_9
REMARK    7  A    between atoms: C_9  and  N_10
REMARK    8  A    between atoms: N_10  and  C_11
REMARK    9  A    between atoms: N_10  and  C_15
REMARK   10  A    between atoms: C_11  and  C_12
REMARK   11  A    between atoms: C_12  and  O_13
REMARK   12  A    between atoms: O_13  and  C_14
REMARK   13  A    between atoms: C_17  and  C_18
REMARK                            x       y       z     vdW  Elec       q    Type
REMARK                         _______ _______ _______ _____ _____    ______ ____
ROOT
ATOM      1  C   UNL     1       4.258   4.906  18.617  0.00  0.00    +0.000 A 
ATOM      2  N   UNL     1       3.735   6.130  18.397  0.00  0.00    +0.000 NA
ATOM      3  C   UNL     1       2.710   6.526  19.175  0.00  0.00    +0.000 A 
ATOM      4  N   UNL     1       2.165   5.779  20.147  0.00  0.00    +0.000 NA
ATOM      5  C   UNL     1       2.680   4.571  20.367  0.00  0.00    +0.000 A 
ATOM      6  C   UNL     1       2.096   3.795  21.363  0.00  0.00    +0.000 A 
ATOM      7  C   UNL     1       2.566   2.517  21.677  0.00  0.00    +0.000 A 
ATOM      8  C   UNL     1       3.637   1.993  20.979  0.00  0.00    +0.000 A 
ATOM      9  C   UNL     1       4.213   2.746  19.961  0.00  0.00    +0.000 A 
ATOM     10  C   UNL     1       3.757   4.058  19.641  0.00  0.00    +0.000 A 
ENDROOT
BRANCH   3  11
ATOM     11  C   UNL     1       2.158   7.888  18.993  0.00  0.00    +0.000 A 
ATOM     12  C   UNL     1       2.372   8.632  17.819  0.00  0.00    +0.000 A 
ATOM     13  C   UNL     1       1.889   9.939  17.683  0.00  0.00    +0.000 A 
ATOM     14  C   UNL     1       1.173  10.534  18.720  0.00  0.00    +0.000 A 
ATOM     15  C   UNL     1       0.927   9.818  19.885  0.00  0.00    +0.000 A 
ATOM     16  C   UNL     1       1.410   8.512  20.015  0.00  0.00    +0.000 A 
ENDBRANCH   3  11
BRANCH   1  17
ATOM     17  N   UNL     1       5.303   4.444  17.754  0.00  0.00    +0.000 N 
BRANCH  17  18
ATOM     18  C   UNL     1       5.095   4.795  16.326  0.00  0.00    +0.000 C 
BRANCH  18  19
ATOM     19  C   UNL     1       5.531   3.674  15.370  0.00  0.00    +0.000 C 
BRANCH  19  21
ATOM     20  N   UNL     1       6.337   3.219  13.119  0.00  0.00    +0.000 N 
ATOM     21  C   UNL     1       6.294   4.132  14.135  0.00  0.00    +0.000 C 
ATOM     22  O   UNL     1       6.889   5.204  14.100  0.00  0.00    +0.000 OA
ATOM     23  H   UNL     1       5.944   2.304  13.310  0.00  0.00    +0.000 HD
BRANCH  20  24
ATOM     24  C   UNL     1       7.081   3.386  11.886  0.00  0.00    +0.000 C 
BRANCH  24  25
ATOM     25  C   UNL     1       6.830   2.242  10.906  0.00  0.00    +0.000 C 
BRANCH  25  27
ATOM     26  C   UNL     1       6.182  -0.003  11.245  0.00  0.00    +0.000 C 
ATOM     27  O   UNL     1       5.829   1.360  11.439  0.00  0.00    +0.000 OA
ENDBRANCH  25  27
ENDBRANCH  24  25
ENDBRANCH  20  24
ENDBRANCH  19  21
ENDBRANCH  18  19
ENDBRANCH  17  18
BRANCH  17  28
ATOM     28  C   UNL     1       6.638   4.593  18.397  0.00  0.00    +0.000 C 
BRANCH  28  29
ATOM     29  C   UNL     1       6.940   5.867  19.197  0.00  0.00    +0.000 C 
BRANCH  29  30
ATOM     30  O   UNL     1       7.956   6.707  18.656  0.00  0.00    +0.000 OA
ATOM     31  C   UNL     1       7.568   7.376  17.464  0.00  0.00    +0.000 C 
ENDBRANCH  29  30
ENDBRANCH  28  29
ENDBRANCH  17  28
ENDBRANCH   1  17
TORSDOF 11
ENDMDL
