MODEL 1
REMARK VINA RESULT:      -7.7      0.000      0.000
REMARK  Name = 
REMARK  11 active torsions:
REMARK  status: ('A' for Active; 'I' for Inactive)
REMARK    1  A    between atoms: C_1  and  C_2
REMARK    2  A    between atoms: C_2  and  C_3
REMARK    3  A    between atoms: C_3  and  C_4
REMARK    4  A    between atoms: C_3  and  C_5
REMARK    5  A    between atoms: C_5  and  N_6
REMARK    6  A    between atoms: C_5  and  C_16
REMARK    7  A    between atoms: C_7  and  C_9
REMARK    8  A    between atoms: C_12  and  C_13
REMARK    9  A    between atoms: N_18  and  C_19
REMARK   10  A    between atoms: N_22  and  C_23
REMARK   11  A    between atoms: C_23  and  C_24
REMARK                            x       y       z     vdW  Elec       q    Type
REMARK                         _______ _______ _______ _____ _____    ______ ____
ROOT
ATOM      1  C   UNL     1       4.788   4.065  17.061  0.00  0.00    +0.000 C 
ATOM      2  O   UNL     1       5.022   3.772  15.889  0.00  0.00    +0.000 OA
ATOM      3  N   UNL     1       5.784   4.415  17.942  0.00  0.00    +0.000 N 
ATOM      4  H   UNL     1       5.497   4.705  18.878  0.00  0.00    +0.000 HD
ENDROOT
BRANCH   3   5
ATOM      5  C   UNL     1       7.181   4.589  17.559  0.00  0.00    +0.000 C 
ATOM      6  C   UNL     1       7.999   5.195  18.699  0.00  0.00    +0.000 C 
ATOM      7  C   UNL     1       7.700   6.681  18.907  0.00  0.00    +0.000 C 
ATOM      8  N   UNL     1       7.874   7.468  17.675  0.00  0.00    +0.000 NA
ATOM      9  C   UNL     1       7.054   6.923  16.577  0.00  0.00    +0.000 C 
ATOM     10  C   UNL     1       7.342   5.446  16.304  0.00  0.00    +0.000 C 
BRANCH   8  11
ATOM     11  C   UNL     1       7.497   8.882  17.897  0.00  0.00    +0.000 C 
BRANCH  11  12
ATOM     12  C   UNL     1       8.635   9.782  18.343  0.00  0.00    +0.000 A 
ATOM     13  C   UNL     1       9.019   9.840  19.690  0.00  0.00    +0.000 A 
ATOM     14  C   UNL     1      10.091  10.650  20.086  0.00  0.00    +0.000 A 
ATOM     15  C   UNL     1      10.788  11.405  19.143  0.00  0.00    +0.000 A 
ATOM     16  C   UNL     1      10.404  11.358  17.803  0.00  0.00    +0.000 A 
ATOM     17  C   UNL     1       9.338  10.552  17.405  0.00  0.00    +0.000 A 
ENDBRANCH  11  12
ENDBRANCH   8  11
ENDBRANCH   3   5
BRANCH   1  18
ATOM     18  C   UNL     1       3.362   3.880  17.671  0.00  0.00    +0.000 C 
BRANCH  18  19
ATOM     19  N   UNL     1       2.691   5.170  17.967  0.00  0.00    +0.000 N 
ATOM     20  C   UNL     1       2.924   6.061  18.993  0.00  0.00    +0.000 C 
ATOM     21  O   UNL     1       3.769   5.867  19.862  0.00  0.00    +0.000 OA
ATOM     22  H   UNL     1       1.867   5.343  17.404  0.00  0.00    +0.000 HD
BRANCH  20  23
ATOM     23  C   UNL     1       2.020   7.307  18.962  0.00  0.00    +0.000 C 
ATOM     24  C   UNL     1       1.868   8.030  20.315  0.00  0.00    +0.000 C 
ATOM     25  C   UNL     1       0.801   9.135  20.230  0.00  0.00    +0.000 C 
ATOM     26  C   UNL     1       1.006  10.113  19.055  0.00  0.00    +0.000 C 
ATOM     27  C   UNL     1      -0.225  11.003  18.852  0.00  0.00    +0.000 C 
ATOM     28  C   UNL     1       1.329   9.372  17.750  0.00  0.00    +0.000 C 
ATOM     29  C   UNL     1       2.462   8.365  17.940  0.00  0.00    +0.000 C 
ENDBRANCH  20  23
ENDBRANCH  18  19
BRANCH  18  30
ATOM     30  C   UNL     1       3.359   2.785  18.784  0.00  0.00    +0.000 C 
ATOM     31  C   UNL     1       3.714   1.408  18.165  0.00  0.00    +0.000 C 
BRANCH  30  33
ATOM     32  C   UNL     1       2.020   2.645  21.023  0.00  0.00    +0.000 C 
ATOM     33  C   UNL     1       2.010   2.541  19.509  0.00  0.00    +0.000 C 
ENDBRANCH  30  33
ENDBRANCH  18  30
ENDBRANCH   1  18
TORSDOF 8
ENDMDL
MODEL 2
REMARK VINA RESULT:      -7.5      1.117      1.510
REMARK  Name = 
REMARK  11 active torsions:
REMARK  status: ('A' for Active; 'I' for Inactive)
REMARK    1  A    between atoms: C_1  and  C_2
REMARK    2  A    between atoms: C_2  and  C_3
REMARK    3  A    between atoms: C_3  and  C_4
REMARK    4  A    between atoms: C_3  and  C_5
REMARK    5  A    between atoms: C_5  and  N_6
REMARK    6  A    between atoms: C_5  and  C_16
REMARK    7  A    between atoms: C_7  and  C_9
REMARK    8  A    between atoms: C_12  and  C_13
REMARK    9  A    between atoms: N_18  and  C_19
REMARK   10  A    between atoms: N_22  and  C_23
REMARK   11  A    between atoms: C_23  and  C_24
REMARK                            x       y       z     vdW  Elec       q    Type
REMARK                         _______ _______ _______ _____ _____    ______ ____
ROOT
ATOM      1  C   UNL     1       4.912   4.020  18.731  0.00  0.00    +0.000 C 
ATOM      2  O   UNL     1       5.474   3.453  19.667  0.00  0.00    +0.000 OA
ATOM      3  N   UNL     1       5.608   4.719  17.773  0.00  0.00    +0.000 N 
ATOM      4  H   UNL     1       5.069   5.105  16.996  0.00  0.00    +0.000 HD
ENDROOT
BRANCH   3   5
ATOM      5  C   UNL     1       7.065   4.762  17.698  0.00  0.00    +0.000 C 
ATOM      6  C   UNL     1       7.665   5.438  18.930  0.00  0.00    +0.000 C 
ATOM      7  C   UNL     1       7.455   6.954  18.925  0.00  0.00    +0.000 C 
ATOM      8  N   UNL     1       7.959   7.587  17.695  0.00  0.00    +0.000 NA
ATOM      9  C   UNL     1       7.352   6.976  16.498  0.00  0.00    +0.000 C 
ATOM     10  C   UNL     1       7.565   5.464  16.436  0.00  0.00    +0.000 C 
BRANCH   8  11
ATOM     11  C   UNL     1       7.664   9.038  17.692  0.00  0.00    +0.000 C 
BRANCH  11  12
ATOM     12  C   UNL     1       8.742   9.907  18.315  0.00  0.00    +0.000 A 
ATOM     13  C   UNL     1       8.978   9.879  19.696  0.00  0.00    +0.000 A 
ATOM     14  C   UNL     1       9.996  10.661  20.256  0.00  0.00    +0.000 A 
ATOM     15  C   UNL     1      10.785  11.475  19.444  0.00  0.00    +0.000 A 
ATOM     16  C   UNL     1      10.548  11.514  18.070  0.00  0.00    +0.000 A 
ATOM     17  C   UNL     1       9.536  10.736  17.509  0.00  0.00    +0.000 A 
ENDBRANCH  11  12
ENDBRANCH   8  11
ENDBRANCH   3   5
BRANCH   1  18
ATOM     18  C   UNL     1       3.356   4.135  18.674  0.00  0.00    +0.000 C 
BRANCH  18  19
ATOM     19  N   UNL     1       2.861   5.475  19.076  0.00  0.00    +0.000 N 
ATOM     20  C   UNL     1       3.010   6.688  18.439  0.00  0.00    +0.000 C 
ATOM     21  O   UNL     1       3.636   6.816  17.390  0.00  0.00    +0.000 OA
ATOM     22  H   UNL     1       2.474   5.507  20.011  0.00  0.00    +0.000 HD
BRANCH  20  23
ATOM     23  C   UNL     1       2.341   7.867  19.168  0.00  0.00    +0.000 C 
ATOM     24  C   UNL     1       1.366   8.693  18.303  0.00  0.00    +0.000 C 
ATOM     25  C   UNL     1       0.902   9.955  19.052  0.00  0.00    +0.000 C 
ATOM     26  C   UNL     1       0.350   9.675  20.465  0.00  0.00    +0.000 C 
ATOM     27  C   UNL     1       0.176  10.974  21.260  0.00  0.00    +0.000 C 
ATOM     28  C   UNL     1       1.253   8.709  21.246  0.00  0.00    +0.000 C 
ATOM     29  C   UNL     1       1.573   7.456  20.432  0.00  0.00    +0.000 C 
ENDBRANCH  20  23
ENDBRANCH  18  19
BRANCH  18  30
ATOM     30  C   UNL     1       2.671   2.885  19.312  0.00  0.00    +0.000 C 
ATOM     31  C   UNL     1       2.087   1.980  18.195  0.00  0.00    +0.000 C 
BRANCH  30  33
ATOM     32  C   UNL     1       1.608   2.709  21.692  0.00  0.00    +0.000 C 
ATOM     33  C   UNL     1       1.467   3.159  20.250  0.00  0.00    +0.000 C 
ENDBRANCH  30  33
ENDBRANCH  18  30
ENDBRANCH   1  18
TORSDOF 8
ENDMDL
MODEL 3
REMARK VINA RESULT:      -7.2      0.556      1.362
REMARK  Name = 
REMARK  11 active torsions:
REMARK  status: ('A' for Active; 'I' for Inactive)
REMARK    1  A    between atoms: C_1  and  C_2
REMARK    2  A    between atoms: C_2  and  C_3
REMARK    3  A    between atoms: C_3  and  C_4
REMARK    4  A    between atoms: C_3  and  C_5
REMARK    5  A    between atoms: C_5  and  N_6
REMARK    6  A    between atoms: C_5  and  C_16
REMARK    7  A    between atoms: C_7  and  C_9
REMARK    8  A    between atoms: C_12  and  C_13
REMARK    9  A    between atoms: N_18  and  C_19
REMARK   10  A    between atoms: N_22  and  C_23
REMARK   11  A    between atoms: C_23  and  C_24
REMARK                            x       y       z     vdW  Elec       q    Type
REMARK                         _______ _______ _______ _____ _____    ______ ____
ROOT
ATOM      1  C   UNL     1       4.673   4.501  17.102  0.00  0.00    +0.000 C 
ATOM      2  O   UNL     1       4.955   4.074  15.982  0.00  0.00    +0.000 OA
ATOM      3  N   UNL     1       5.637   4.879  18.007  0.00  0.00    +0.000 N 
ATOM      4  H   UNL     1       5.315   5.281  18.889  0.00  0.00    +0.000 HD
ENDROOT
BRANCH   3   5
ATOM      5  C   UNL     1       7.063   4.926  17.701  0.00  0.00    +0.000 C 
ATOM      6  C   UNL     1       7.863   5.509  18.865  0.00  0.00    +0.000 C 
ATOM      7  C   UNL     1       7.674   7.021  19.003  0.00  0.00    +0.000 C 
ATOM      8  N   UNL     1       7.981   7.743  17.757  0.00  0.00    +0.000 NA
ATOM      9  C   UNL     1       7.182   7.222  16.633  0.00  0.00    +0.000 C 
ATOM     10  C   UNL     1       7.363   5.718  16.428  0.00  0.00    +0.000 C 
BRANCH   8  11
ATOM     11  C   UNL     1       7.708   9.190  17.907  0.00  0.00    +0.000 C 
BRANCH  11  12
ATOM     12  C   UNL     1       8.868  10.003  18.456  0.00  0.00    +0.000 A 
ATOM     13  C   UNL     1       9.712  10.719  17.596  0.00  0.00    +0.000 A 
ATOM     14  C   UNL     1      10.760  11.491  18.115  0.00  0.00    +0.000 A 
ATOM     15  C   UNL     1      10.971  11.554  19.492  0.00  0.00    +0.000 A 
ATOM     16  C   UNL     1      10.140  10.835  20.351  0.00  0.00    +0.000 A 
ATOM     17  C   UNL     1       9.096  10.067  19.838  0.00  0.00    +0.000 A 
ENDBRANCH  11  12
ENDBRANCH   8  11
ENDBRANCH   3   5
BRANCH   1  18
ATOM     18  C   UNL     1       3.205   4.468  17.632  0.00  0.00    +0.000 C 
BRANCH  18  19
ATOM     19  N   UNL     1       2.704   5.809  18.023  0.00  0.00    +0.000 N 
ATOM     20  C   UNL     1       2.880   6.497  19.204  0.00  0.00    +0.000 C 
ATOM     21  O   UNL     1       3.506   6.036  20.155  0.00  0.00    +0.000 OA
ATOM     22  H   UNL     1       2.038   6.205  17.372  0.00  0.00    +0.000 HD
BRANCH  20  23
ATOM     23  C   UNL     1       2.207   7.882  19.232  0.00  0.00    +0.000 C 
ATOM     24  C   UNL     1       1.439   8.254  17.948  0.00  0.00    +0.000 C 
ATOM     25  C   UNL     1       0.972   9.720  17.993  0.00  0.00    +0.000 C 
ATOM     26  C   UNL     1       0.199  10.090  19.275  0.00  0.00    +0.000 C 
ATOM     27  C   UNL     1       0.014  11.607  19.393  0.00  0.00    +0.000 C 
ATOM     28  C   UNL     1       0.897   9.555  20.534  0.00  0.00    +0.000 C 
ATOM     29  C   UNL     1       1.232   8.070  20.404  0.00  0.00    +0.000 C 
ENDBRANCH  20  23
ENDBRANCH  18  19
BRANCH  18  30
ATOM     30  C   UNL     1       2.990   3.290  18.634  0.00  0.00    +0.000 C 
ATOM     31  C   UNL     1       3.356   1.947  17.950  0.00  0.00    +0.000 C 
BRANCH  30  33
ATOM     32  C   UNL     1       1.366   2.901  20.644  0.00  0.00    +0.000 C 
ATOM     33  C   UNL     1       1.542   3.074  19.146  0.00  0.00    +0.000 C 
ENDBRANCH  30  33
ENDBRANCH  18  30
ENDBRANCH   1  18
TORSDOF 8
ENDMDL
MODEL 4
REMARK VINA RESULT:      -6.9      1.010      1.372
REMARK  Name = 
REMARK  11 active torsions:
REMARK  status: ('A' for Active; 'I' for Inactive)
REMARK    1  A    between atoms: C_1  and  C_2
REMARK    2  A    between atoms: C_2  and  C_3
REMARK    3  A    between atoms: C_3  and  C_4
REMARK    4  A    between atoms: C_3  and  C_5
REMARK    5  A    between atoms: C_5  and  N_6
REMARK    6  A    between atoms: C_5  and  C_16
REMARK    7  A    between atoms: C_7  and  C_9
REMARK    8  A    between atoms: C_12  and  C_13
REMARK    9  A    between atoms: N_18  and  C_19
REMARK   10  A    between atoms: N_22  and  C_23
REMARK   11  A    between atoms: C_23  and  C_24
REMARK                            x       y       z     vdW  Elec       q    Type
REMARK                         _______ _______ _______ _____ _____    ______ ____
ROOT
ATOM      1  C   UNL     1       4.949   3.965  18.526  0.00  0.00    +0.000 C 
ATOM      2  O   UNL     1       5.498   3.910  19.626  0.00  0.00    +0.000 OA
ATOM      3  N   UNL     1       5.642   4.260  17.375  0.00  0.00    +0.000 N 
ATOM      4  H   UNL     1       5.122   4.222  16.497  0.00  0.00    +0.000 HD
ENDROOT
BRANCH   3   5
ATOM      5  C   UNL     1       7.091   4.420  17.319  0.00  0.00    +0.000 C 
ATOM      6  C   UNL     1       7.634   5.024  18.613  0.00  0.00    +0.000 C 
ATOM      7  C   UNL     1       7.309   6.514  18.744  0.00  0.00    +0.000 C 
ATOM      8  N   UNL     1       7.767   7.293  17.581  0.00  0.00    +0.000 NA
ATOM      9  C   UNL     1       7.213   6.750  16.327  0.00  0.00    +0.000 C 
ATOM     10  C   UNL     1       7.541   5.270  16.130  0.00  0.00    +0.000 C 
BRANCH   8  11
ATOM     11  C   UNL     1       7.363   8.712  17.708  0.00  0.00    +0.000 C 
BRANCH  11  12
ATOM     12  C   UNL     1       8.451   9.641  18.214  0.00  0.00    +0.000 A 
ATOM     13  C   UNL     1       9.034  10.593  17.366  0.00  0.00    +0.000 A 
ATOM     14  C   UNL     1      10.015  11.466  17.852  0.00  0.00    +0.000 A 
ATOM     15  C   UNL     1      10.420  11.398  19.185  0.00  0.00    +0.000 A 
ATOM     16  C   UNL     1       9.850  10.446  20.030  0.00  0.00    +0.000 A 
ATOM     17  C   UNL     1       8.872   9.576  19.550  0.00  0.00    +0.000 A 
ENDBRANCH  11  12
ENDBRANCH   8  11
ENDBRANCH   3   5
BRANCH   1  18
ATOM     18  C   UNL     1       3.396   3.881  18.393  0.00  0.00    +0.000 C 
BRANCH  18  19
ATOM     19  N   UNL     1       2.726   5.184  18.627  0.00  0.00    +0.000 N 
ATOM     20  C   UNL     1       3.001   6.418  18.078  0.00  0.00    +0.000 C 
ATOM     21  O   UNL     1       3.919   6.602  17.283  0.00  0.00    +0.000 OA
ATOM     22  H   UNL     1       2.061   5.174  19.390  0.00  0.00    +0.000 HD
BRANCH  20  23
ATOM     23  C   UNL     1       2.071   7.544  18.564  0.00  0.00    +0.000 C 
ATOM     24  C   UNL     1       2.058   7.759  20.091  0.00  0.00    +0.000 C 
ATOM     25  C   UNL     1       0.962   8.762  20.495  0.00  0.00    +0.000 C 
ATOM     26  C   UNL     1       1.010  10.088  19.710  0.00  0.00    +0.000 C 
ATOM     27  C   UNL     1      -0.257  10.918  19.946  0.00  0.00    +0.000 C 
ATOM     28  C   UNL     1       1.199   9.851  18.205  0.00  0.00    +0.000 C 
ATOM     29  C   UNL     1       2.369   8.909  17.926  0.00  0.00    +0.000 C 
ENDBRANCH  20  23
ENDBRANCH  18  19
BRANCH  18  30
ATOM     30  C   UNL     1       2.830   2.628  19.135  0.00  0.00    +0.000 C 
ATOM     31  C   UNL     1       2.093   1.710  18.126  0.00  0.00    +0.000 C 
BRANCH  30  33
ATOM     32  C   UNL     1       2.302   3.450  21.559  0.00  0.00    +0.000 C 
ATOM     33  C   UNL     1       1.780   2.897  20.244  0.00  0.00    +0.000 C 
ENDBRANCH  30  33
ENDBRANCH  18  30
ENDBRANCH   1  18
TORSDOF 8
ENDMDL
MODEL 5
REMARK VINA RESULT:      -6.9      3.464      6.814
REMARK  Name = 
REMARK  11 active torsions:
REMARK  status: ('A' for Active; 'I' for Inactive)
REMARK    1  A    between atoms: C_1  and  C_2
REMARK    2  A    between atoms: C_2  and  C_3
REMARK    3  A    between atoms: C_3  and  C_4
REMARK    4  A    between atoms: C_3  and  C_5
REMARK    5  A    between atoms: C_5  and  N_6
REMARK    6  A    between atoms: C_5  and  C_16
REMARK    7  A    between atoms: C_7  and  C_9
REMARK    8  A    between atoms: C_12  and  C_13
REMARK    9  A    between atoms: N_18  and  C_19
REMARK   10  A    between atoms: N_22  and  C_23
REMARK   11  A    between atoms: C_23  and  C_24
REMARK                            x       y       z     vdW  Elec       q    Type
REMARK                         _______ _______ _______ _____ _____    ______ ____
ROOT
ATOM      1  C   UNL     1       2.924   7.992  17.993  0.00  0.00    +0.000 C 
ATOM      2  O   UNL     1       2.942   8.333  16.811  0.00  0.00    +0.000 OA
ATOM      3  N   UNL     1       3.802   7.064  18.502  0.00  0.00    +0.000 N 
ATOM      4  H   UNL     1       3.761   6.886  19.507  0.00  0.00    +0.000 HD
ENDROOT
BRANCH   3   5
ATOM      5  C   UNL     1       4.902   6.485  17.738  0.00  0.00    +0.000 C 
ATOM      6  C   UNL     1       4.387   5.656  16.562  0.00  0.00    +0.000 C 
ATOM      7  C   UNL     1       3.777   4.325  17.009  0.00  0.00    +0.000 C 
ATOM      8  N   UNL     1       4.704   3.529  17.831  0.00  0.00    +0.000 NA
ATOM      9  C   UNL     1       5.175   4.301  18.996  0.00  0.00    +0.000 C 
ATOM     10  C   UNL     1       5.826   5.626  18.602  0.00  0.00    +0.000 C 
BRANCH   8  11
ATOM     11  C   UNL     1       4.051   2.290  18.310  0.00  0.00    +0.000 C 
BRANCH  11  12
ATOM     12  C   UNL     1       2.997   2.501  19.383  0.00  0.00    +0.000 A 
ATOM     13  C   UNL     1       1.650   2.678  19.040  0.00  0.00    +0.000 A 
ATOM     14  C   UNL     1       0.681   2.839  20.040  0.00  0.00    +0.000 A 
ATOM     15  C   UNL     1       1.050   2.824  21.385  0.00  0.00    +0.000 A 
ATOM     16  C   UNL     1       2.391   2.657  21.731  0.00  0.00    +0.000 A 
ATOM     17  C   UNL     1       3.357   2.495  20.739  0.00  0.00    +0.000 A 
ENDBRANCH  11  12
ENDBRANCH   8  11
ENDBRANCH   3   5
BRANCH   1  18
ATOM     18  C   UNL     1       1.783   8.459  18.952  0.00  0.00    +0.000 C 
BRANCH  18  19
ATOM     19  N   UNL     1       1.501   9.912  18.847  0.00  0.00    +0.000 N 
ATOM     20  C   UNL     1       0.296  10.557  18.666  0.00  0.00    +0.000 C 
ATOM     21  O   UNL     1      -0.767   9.956  18.540  0.00  0.00    +0.000 OA
ATOM     22  H   UNL     1       2.330  10.488  18.774  0.00  0.00    +0.000 HD
BRANCH  20  23
ATOM     23  C   UNL     1       0.405  12.091  18.616  0.00  0.00    +0.000 C 
ATOM     24  C   UNL     1      -0.558  12.840  19.559  0.00  0.00    +0.000 C 
ATOM     25  C   UNL     1      -0.515  14.356  19.297  0.00  0.00    +0.000 C 
ATOM     26  C   UNL     1       0.907  14.951  19.309  0.00  0.00    +0.000 C 
ATOM     27  C   UNL     1       0.913  16.385  18.766  0.00  0.00    +0.000 C 
ATOM     28  C   UNL     1       1.890  14.090  18.503  0.00  0.00    +0.000 C 
ATOM     29  C   UNL     1       1.816  12.620  18.912  0.00  0.00    +0.000 C 
ENDBRANCH  20  23
ENDBRANCH  18  19
BRANCH  18  30
ATOM     30  C   UNL     1       1.959   7.852  20.380  0.00  0.00    +0.000 C 
ATOM     31  C   UNL     1       1.331   6.434  20.428  0.00  0.00    +0.000 C 
BRANCH  30  33
ATOM     32  C   UNL     1      -0.229   8.432  21.687  0.00  0.00    +0.000 C 
ATOM     33  C   UNL     1       1.271   8.614  21.543  0.00  0.00    +0.000 C 
ENDBRANCH  30  33
ENDBRANCH  18  30
ENDBRANCH   1  18
TORSDOF 8
ENDMDL
MODEL 6
REMARK VINA RESULT:      -6.8      4.579      7.939
REMARK  Name = 
REMARK  11 active torsions:
REMARK  status: ('A' for Active; 'I' for Inactive)
REMARK    1  A    between atoms: C_1  and  C_2
REMARK    2  A    between atoms: C_2  and  C_3
REMARK    3  A    between atoms: C_3  and  C_4
REMARK    4  A    between atoms: C_3  and  C_5
REMARK    5  A    between atoms: C_5  and  N_6
REMARK    6  A    between atoms: C_5  and  C_16
REMARK    7  A    between atoms: C_7  and  C_9
REMARK    8  A    between atoms: C_12  and  C_13
REMARK    9  A    between atoms: N_18  and  C_19
REMARK   10  A    between atoms: N_22  and  C_23
REMARK   11  A    between atoms: C_23  and  C_24
REMARK                            x       y       z     vdW  Elec       q    Type
REMARK                         _______ _______ _______ _____ _____    ______ ____
ROOT
ATOM      1  C   UNL     1       0.213  11.938  20.632  0.00  0.00    +0.000 C 
ATOM      2  O   UNL     1       0.146  11.949  21.860  0.00  0.00    +0.000 OA
ATOM      3  N   UNL     1       0.630  13.033  19.910  0.00  0.00    +0.000 N 
ATOM      4  H   UNL     1       0.717  12.918  18.899  0.00  0.00    +0.000 HD
ENDROOT
BRANCH   3   5
ATOM      5  C   UNL     1       1.140  14.258  20.517  0.00  0.00    +0.000 C 
ATOM      6  C   UNL     1       1.118  15.420  19.526  0.00  0.00    +0.000 C 
ATOM      7  C   UNL     1       2.209  15.299  18.459  0.00  0.00    +0.000 C 
ATOM      8  N   UNL     1       3.552  15.146  19.043  0.00  0.00    +0.000 NA
ATOM      9  C   UNL     1       3.601  13.999  19.967  0.00  0.00    +0.000 C 
ATOM     10  C   UNL     1       2.553  14.090  21.076  0.00  0.00    +0.000 C 
BRANCH   8  11
ATOM     11  C   UNL     1       4.567  14.950  17.983  0.00  0.00    +0.000 C 
BRANCH  11  12
ATOM     12  C   UNL     1       5.913  15.594  18.263  0.00  0.00    +0.000 A 
ATOM     13  C   UNL     1       7.091  15.058  17.725  0.00  0.00    +0.000 A 
ATOM     14  C   UNL     1       8.324  15.679  17.963  0.00  0.00    +0.000 A 
ATOM     15  C   UNL     1       8.390  16.837  18.737  0.00  0.00    +0.000 A 
ATOM     16  C   UNL     1       7.221  17.369  19.283  0.00  0.00    +0.000 A 
ATOM     17  C   UNL     1       5.993  16.755  19.047  0.00  0.00    +0.000 A 
ENDBRANCH  11  12
ENDBRANCH   8  11
ENDBRANCH   3   5
BRANCH   1  18
ATOM     18  C   UNL     1      -0.346  10.739  19.803  0.00  0.00    +0.000 C 
BRANCH  18  19
ATOM     19  N   UNL     1       0.676   9.695  19.539  0.00  0.00    +0.000 N 
ATOM     20  C   UNL     1       1.131   8.690  20.364  0.00  0.00    +0.000 C 
ATOM     21  O   UNL     1       0.727   8.540  21.514  0.00  0.00    +0.000 OA
ATOM     22  H   UNL     1       1.189   9.831  18.677  0.00  0.00    +0.000 HD
BRANCH  20  23
ATOM     23  C   UNL     1       2.202   7.788  19.725  0.00  0.00    +0.000 C 
ATOM     24  C   UNL     1       2.078   6.290  20.073  0.00  0.00    +0.000 C 
ATOM     25  C   UNL     1       3.295   5.504  19.554  0.00  0.00    +0.000 C 
ATOM     26  C   UNL     1       3.603   5.742  18.063  0.00  0.00    +0.000 C 
ATOM     27  C   UNL     1       4.973   5.169  17.681  0.00  0.00    +0.000 C 
ATOM     28  C   UNL     1       3.549   7.234  17.703  0.00  0.00    +0.000 C 
ATOM     29  C   UNL     1       2.257   7.885  18.193  0.00  0.00    +0.000 C 
ENDBRANCH  20  23
ENDBRANCH  18  19
BRANCH  18  30
ATOM     30  C   UNL     1      -1.209  11.234  18.599  0.00  0.00    +0.000 C 
ATOM     31  C   UNL     1      -2.555  11.803  19.118  0.00  0.00    +0.000 C 
BRANCH  30  33
ATOM     32  C   UNL     1      -2.612  10.593  16.490  0.00  0.00    +0.000 C 
ATOM     33  C   UNL     1      -1.623  10.162  17.558  0.00  0.00    +0.000 C 
ENDBRANCH  30  33
ENDBRANCH  18  30
ENDBRANCH   1  18
TORSDOF 8
ENDMDL
MODEL 7
REMARK VINA RESULT:      -6.8      0.558      1.071
REMARK  Name = 
REMARK  11 active torsions:
REMARK  status: ('A' for Active; 'I' for Inactive)
REMARK    1  A    between atoms: C_1  and  C_2
REMARK    2  A    between atoms: C_2  and  C_3
REMARK    3  A    between atoms: C_3  and  C_4
REMARK    4  A    between atoms: C_3  and  C_5
REMARK    5  A    between atoms: C_5  and  N_6
REMARK    6  A    between atoms: C_5  and  C_16
REMARK    7  A    between atoms: C_7  and  C_9
REMARK    8  A    between atoms: C_12  and  C_13
REMARK    9  A    between atoms: N_18  and  C_19
REMARK   10  A    between atoms: N_22  and  C_23
REMARK   11  A    between atoms: C_23  and  C_24
REMARK                            x       y       z     vdW  Elec       q    Type
REMARK                         _______ _______ _______ _____ _____    ______ ____
ROOT
ATOM      1  C   UNL     1       4.828   3.811  17.078  0.00  0.00    +0.000 C 
ATOM      2  O   UNL     1       5.257   3.252  16.068  0.00  0.00    +0.000 OA
ATOM      3  N   UNL     1       5.658   4.428  17.983  0.00  0.00    +0.000 N 
ATOM      4  H   UNL     1       5.214   4.922  18.759  0.00  0.00    +0.000 HD
ENDROOT
BRANCH   3   5
ATOM      5  C   UNL     1       7.095   4.587  17.789  0.00  0.00    +0.000 C 
ATOM      6  C   UNL     1       7.725   5.387  18.928  0.00  0.00    +0.000 C 
ATOM      7  C   UNL     1       7.384   6.877  18.855  0.00  0.00    +0.000 C 
ATOM      8  N   UNL     1       7.735   7.471  17.554  0.00  0.00    +0.000 NA
ATOM      9  C   UNL     1       7.096   6.738  16.446  0.00  0.00    +0.000 C 
ATOM     10  C   UNL     1       7.436   5.247  16.453  0.00  0.00    +0.000 C 
BRANCH   8  11
ATOM     11  C   UNL     1       7.315   8.890  17.494  0.00  0.00    +0.000 C 
BRANCH  11  12
ATOM     12  C   UNL     1       8.297   9.871  18.109  0.00  0.00    +0.000 A 
ATOM     13  C   UNL     1       8.435  11.167  17.592  0.00  0.00    +0.000 A 
ATOM     14  C   UNL     1       9.321  12.074  18.187  0.00  0.00    +0.000 A 
ATOM     15  C   UNL     1      10.072  11.697  19.300  0.00  0.00    +0.000 A 
ATOM     16  C   UNL     1       9.946  10.405  19.812  0.00  0.00    +0.000 A 
ATOM     17  C   UNL     1       9.064   9.500  19.223  0.00  0.00    +0.000 A 
ENDBRANCH  11  12
ENDBRANCH   8  11
ENDBRANCH   3   5
BRANCH   1  18
ATOM     18  C   UNL     1       3.325   3.696  17.487  0.00  0.00    +0.000 C 
BRANCH  18  19
ATOM     19  N   UNL     1       2.711   5.009  17.801  0.00  0.00    +0.000 N 
ATOM     20  C   UNL     1       2.992   5.881  18.831  0.00  0.00    +0.000 C 
ATOM     21  O   UNL     1       3.837   5.645  19.690  0.00  0.00    +0.000 OA
ATOM     22  H   UNL     1       1.890   5.222  17.248  0.00  0.00    +0.000 HD
BRANCH  20  23
ATOM     23  C   UNL     1       2.140   7.163  18.820  0.00  0.00    +0.000 C 
ATOM     24  C   UNL     1       1.940   7.819  20.201  0.00  0.00    +0.000 C 
ATOM     25  C   UNL     1       0.922   8.971  20.119  0.00  0.00    +0.000 C 
ATOM     26  C   UNL     1       1.233  10.001  19.014  0.00  0.00    +0.000 C 
ATOM     27  C   UNL     1       0.050  10.951  18.793  0.00  0.00    +0.000 C 
ATOM     28  C   UNL     1       1.601   9.318  17.689  0.00  0.00    +0.000 C 
ATOM     29  C   UNL     1       2.681   8.255  17.885  0.00  0.00    +0.000 C 
ENDBRANCH  20  23
ENDBRANCH  18  19
BRANCH  18  30
ATOM     30  C   UNL     1       3.100   2.527  18.497  0.00  0.00    +0.000 C 
ATOM     31  C   UNL     1       1.596   2.433  18.865  0.00  0.00    +0.000 C 
BRANCH  30  33
ATOM     32  C   UNL     1       2.940   2.684  21.101  0.00  0.00    +0.000 C 
ATOM     33  C   UNL     1       3.821   2.648  19.865  0.00  0.00    +0.000 C 
ENDBRANCH  30  33
ENDBRANCH  18  30
ENDBRANCH   1  18
TORSDOF 8
ENDMDL
MODEL 8
REMARK VINA RESULT:      -6.8      5.328      9.269
REMARK  Name = 
REMARK  11 active torsions:
REMARK  status: ('A' for Active; 'I' for Inactive)
REMARK    1  A    between atoms: C_1  and  C_2
REMARK    2  A    between atoms: C_2  and  C_3
REMARK    3  A    between atoms: C_3  and  C_4
REMARK    4  A    between atoms: C_3  and  C_5
REMARK    5  A    between atoms: C_5  and  N_6
REMARK    6  A    between atoms: C_5  and  C_16
REMARK    7  A    between atoms: C_7  and  C_9
REMARK    8  A    between atoms: C_12  and  C_13
REMARK    9  A    between atoms: N_18  and  C_19
REMARK   10  A    between atoms: N_22  and  C_23
REMARK   11  A    between atoms: C_23  and  C_24
REMARK                            x       y       z     vdW  Elec       q    Type
REMARK                         _______ _______ _______ _____ _____    ______ ____
ROOT
ATOM      1  C   UNL     1      -1.398  12.009  18.449  0.00  0.00    +0.000 C 
ATOM      2  O   UNL     1      -0.790  12.947  17.935  0.00  0.00    +0.000 OA
ATOM      3  N   UNL     1      -0.775  11.086  19.256  0.00  0.00    +0.000 N 
ATOM      4  H   UNL     1      -1.366  10.377  19.693  0.00  0.00    +0.000 HD
ENDROOT
BRANCH   3   5
ATOM      5  C   UNL     1       0.619  11.185  19.676  0.00  0.00    +0.000 C 
ATOM      6  C   UNL     1       1.559  10.599  18.624  0.00  0.00    +0.000 C 
ATOM      7  C   UNL     1       1.509   9.071  18.582  0.00  0.00    +0.000 C 
ATOM      8  N   UNL     1       1.768   8.463  19.898  0.00  0.00    +0.000 NA
ATOM      9  C   UNL     1       0.836   8.984  20.915  0.00  0.00    +0.000 C 
ATOM     10  C   UNL     1       0.874  10.509  21.023  0.00  0.00    +0.000 C 
BRANCH   8  11
ATOM     11  C   UNL     1       1.629   6.990  19.833  0.00  0.00    +0.000 C 
BRANCH  11  12
ATOM     12  C   UNL     1       2.542   6.309  18.830  0.00  0.00    +0.000 A 
ATOM     13  C   UNL     1       3.667   6.971  18.318  0.00  0.00    +0.000 A 
ATOM     14  C   UNL     1       4.520   6.322  17.416  0.00  0.00    +0.000 A 
ATOM     15  C   UNL     1       4.259   5.010  17.022  0.00  0.00    +0.000 A 
ATOM     16  C   UNL     1       3.136   4.350  17.521  0.00  0.00    +0.000 A 
ATOM     17  C   UNL     1       2.286   4.993  18.419  0.00  0.00    +0.000 A 
ENDBRANCH  11  12
ENDBRANCH   8  11
ENDBRANCH   3   5
BRANCH   1  18
ATOM     18  C   UNL     1      -2.882  11.703  18.070  0.00  0.00    +0.000 C 
BRANCH  18  19
ATOM     19  N   UNL     1      -3.840  12.088  19.136  0.00  0.00    +0.000 N 
ATOM     20  C   UNL     1      -5.167  12.445  19.031  0.00  0.00    +0.000 C 
ATOM     21  O   UNL     1      -5.754  12.510  17.954  0.00  0.00    +0.000 OA
ATOM     22  H   UNL     1      -3.412  12.226  20.043  0.00  0.00    +0.000 HD
BRANCH  20  23
ATOM     23  C   UNL     1      -5.840  12.772  20.376  0.00  0.00    +0.000 C 
ATOM     24  C   UNL     1      -7.015  11.848  20.753  0.00  0.00    +0.000 C 
ATOM     25  C   UNL     1      -7.743  12.369  22.005  0.00  0.00    +0.000 C 
ATOM     26  C   UNL     1      -6.808  12.655  23.197  0.00  0.00    +0.000 C 
ATOM     27  C   UNL     1      -7.537  13.431  24.300  0.00  0.00    +0.000 C 
ATOM     28  C   UNL     1      -5.555  13.429  22.763  0.00  0.00    +0.000 C 
ATOM     29  C   UNL     1      -4.871  12.767  21.567  0.00  0.00    +0.000 C 
ENDBRANCH  20  23
ENDBRANCH  18  19
BRANCH  18  30
ATOM     30  C   UNL     1      -3.025  10.282  17.441  0.00  0.00    +0.000 C 
ATOM     31  C   UNL     1      -1.642   9.787  16.943  0.00  0.00    +0.000 C 
BRANCH  30  33
ATOM     32  C   UNL     1      -3.287  10.372  14.843  0.00  0.00    +0.000 C 
ATOM     33  C   UNL     1      -3.943  10.166  16.196  0.00  0.00    +0.000 C 
ENDBRANCH  30  33
ENDBRANCH  18  30
ENDBRANCH   1  18
TORSDOF 8
ENDMDL
MODEL 9
REMARK VINA RESULT:      -6.8      0.919      1.327
REMARK  Name = 
REMARK  11 active torsions:
REMARK  status: ('A' for Active; 'I' for Inactive)
REMARK    1  A    between atoms: C_1  and  C_2
REMARK    2  A    between atoms: C_2  and  C_3
REMARK    3  A    between atoms: C_3  and  C_4
REMARK    4  A    between atoms: C_3  and  C_5
REMARK    5  A    between atoms: C_5  and  N_6
REMARK    6  A    between atoms: C_5  and  C_16
REMARK    7  A    between atoms: C_7  and  C_9
REMARK    8  A    between atoms: C_12  and  C_13
REMARK    9  A    between atoms: N_18  and  C_19
REMARK   10  A    between atoms: N_22  and  C_23
REMARK   11  A    between atoms: C_23  and  C_24
REMARK                            x       y       z     vdW  Elec       q    Type
REMARK                         _______ _______ _______ _____ _____    ______ ____
ROOT
ATOM      1  C   UNL     1       4.741   4.588  17.798  0.00  0.00    +0.000 C 
ATOM      2  O   UNL     1       4.937   3.875  16.814  0.00  0.00    +0.000 OA
ATOM      3  N   UNL     1       5.766   5.224  18.459  0.00  0.00    +0.000 N 
ATOM      4  H   UNL     1       5.508   5.846  19.226  0.00  0.00    +0.000 HD
ENDROOT
BRANCH   3   5
ATOM      5  C   UNL     1       7.152   5.217  18.003  0.00  0.00    +0.000 C 
ATOM      6  C   UNL     1       8.082   5.843  19.042  0.00  0.00    +0.000 C 
ATOM      7  C   UNL     1       7.939   7.364  19.114  0.00  0.00    +0.000 C 
ATOM      8  N   UNL     1       8.126   8.009  17.803  0.00  0.00    +0.000 NA
ATOM      9  C   UNL     1       7.203   7.448  16.800  0.00  0.00    +0.000 C 
ATOM     10  C   UNL     1       7.331   5.931  16.663  0.00  0.00    +0.000 C 
BRANCH   8  11
ATOM     11  C   UNL     1       7.900   9.469  17.898  0.00  0.00    +0.000 C 
BRANCH  11  12
ATOM     12  C   UNL     1       9.070  10.260  18.455  0.00  0.00    +0.000 A 
ATOM     13  C   UNL     1       9.248  10.400  19.838  0.00  0.00    +0.000 A 
ATOM     14  C   UNL     1      10.349  11.105  20.342  0.00  0.00    +0.000 A 
ATOM     15  C   UNL     1      11.279  11.672  19.470  0.00  0.00    +0.000 A 
ATOM     16  C   UNL     1      11.101  11.543  18.093  0.00  0.00    +0.000 A 
ATOM     17  C   UNL     1      10.007  10.841  17.589  0.00  0.00    +0.000 A 
ENDBRANCH  11  12
ENDBRANCH   8  11
ENDBRANCH   3   5
BRANCH   1  18
ATOM     18  C   UNL     1       3.333   4.669  18.468  0.00  0.00    +0.000 C 
BRANCH  18  19
ATOM     19  N   UNL     1       2.869   6.064  18.667  0.00  0.00    +0.000 N 
ATOM     20  C   UNL     1       2.359   6.662  19.800  0.00  0.00    +0.000 C 
ATOM     21  O   UNL     1       2.197   6.056  20.855  0.00  0.00    +0.000 OA
ATOM     22  H   UNL     1       2.807   6.603  17.813  0.00  0.00    +0.000 HD
BRANCH  20  23
ATOM     23  C   UNL     1       1.993   8.146  19.618  0.00  0.00    +0.000 C 
ATOM     24  C   UNL     1       1.683   8.562  18.166  0.00  0.00    +0.000 C 
ATOM     25  C   UNL     1       1.523  10.089  18.055  0.00  0.00    +0.000 C 
ATOM     26  C   UNL     1       0.528  10.688  19.069  0.00  0.00    +0.000 C 
ATOM     27  C   UNL     1       0.625  12.218  19.105  0.00  0.00    +0.000 C 
ATOM     28  C   UNL     1       0.746  10.124  20.481  0.00  0.00    +0.000 C 
ATOM     29  C   UNL     1       0.801   8.597  20.474  0.00  0.00    +0.000 C 
ENDBRANCH  20  23
ENDBRANCH  18  19
BRANCH  18  30
ATOM     30  C   UNL     1       3.222   3.685  19.675  0.00  0.00    +0.000 C 
ATOM     31  C   UNL     1       4.266   2.548  19.523  0.00  0.00    +0.000 C 
BRANCH  30  33
ATOM     32  C   UNL     1       1.376   2.733  21.260  0.00  0.00    +0.000 C 
ATOM     33  C   UNL     1       1.870   2.943  19.841  0.00  0.00    +0.000 C 
ENDBRANCH  30  33
ENDBRANCH  18  30
ENDBRANCH   1  18
TORSDOF 8
ENDMDL
