MODEL 1
REMARK VINA RESULT:      -7.9      0.000      0.000
REMARK  Name = 
REMARK  5 active torsions:
REMARK  status: ('A' for Active; 'I' for Inactive)
REMARK    1  A    between atoms: C_1  and  N_2
REMARK    2  A    between atoms: N_5  and  C_6
REMARK    3  A    between atoms: N_9  and  C_10
REMARK    4  A    between atoms: C_10  and  C_11
REMARK    5  A    between atoms: C_19  and  N_20
REMARK                            x       y       z     vdW  Elec       q    Type
REMARK                         _______ _______ _______ _____ _____    ______ ____
ROOT
ATOM      1  C   UNL     1       3.806   4.984  19.105  0.00  0.00    +0.000 A 
ATOM      2  N   UNL     1       3.217   6.086  19.634  0.00  0.00    +0.000 NA
ATOM      3  C   UNL     1       2.211   5.937  20.515  0.00  0.00    +0.000 A 
ATOM      4  N   UNL     1       1.671   7.032  21.132  0.00  0.00    +0.000 N 
ATOM      5  N   UNL     1       1.724   4.749  20.886  0.00  0.00    +0.000 NA
ATOM      6  C   UNL     1       2.270   3.649  20.346  0.00  0.00    +0.000 A 
ATOM      7  N   UNL     1       1.590   2.468  20.632  0.00  0.00    +0.000 N 
ATOM      8  C   UNL     1       3.335   3.736  19.475  0.00  0.00    +0.000 A 
ATOM      9  H   UNL     1       1.094   6.828  21.932  0.00  0.00    +0.000 HD
ATOM     10  H   UNL     1       0.875   2.634  21.336  0.00  0.00    +0.000 HD
ATOM     11  H   UNL     1       2.140   1.632  20.792  0.00  0.00    +0.000 HD
ENDROOT
BRANCH   1  16
ATOM     12  C   UNL     1       7.224   5.034  14.706  0.00  0.00    +0.000 C 
ATOM     13  N   UNL     1       6.638   5.544  15.945  0.00  0.00    +0.000 NA
ATOM     14  C   UNL     1       6.850   4.566  17.032  0.00  0.00    +0.000 C 
ATOM     15  C   UNL     1       6.201   5.008  18.356  0.00  0.00    +0.000 C 
ATOM     16  N   UNL     1       4.768   5.232  18.149  0.00  0.00    +0.000 N 
ATOM     17  C   UNL     1       4.463   6.204  17.085  0.00  0.00    +0.000 C 
ATOM     18  C   UNL     1       5.187   5.797  15.773  0.00  0.00    +0.000 C 
ENDBRANCH   1  16
BRANCH   8  19
ATOM     19  N   UNL     1       4.023   2.534  19.114  0.00  0.00    +0.000 N 
ATOM     20  O   UNL     1       4.871   2.102  19.922  0.00  0.00    +0.000 OA
ATOM     21  O   UNL     1       3.718   1.991  18.054  0.00  0.00    +0.000 OA
ENDBRANCH   8  19
BRANCH   4  22
ATOM     22  C   UNL     1       1.452   8.273  20.418  0.00  0.00    +0.000 C 
BRANCH  22  23
ATOM     23  C   UNL     1       0.684   9.295  21.200  0.00  0.00    +0.000 A 
ATOM     24  C   UNL     1       0.017   9.262  22.413  0.00  0.00    +0.000 A 
ATOM     25  C   UNL     1      -0.521  10.562  22.615  0.00  0.00    +0.000 A 
ATOM     26  C   UNL     1      -0.149  11.300  21.518  0.00  0.00    +0.000 A 
ATOM     27  O   UNL     1       0.579  10.546  20.656  0.00  0.00    +0.000 OA
ENDBRANCH  22  23
ENDBRANCH   4  22
TORSDOF 4
ENDMDL
MODEL 2
REMARK VINA RESULT:      -7.7      4.023      8.472
REMARK  Name = 
REMARK  5 active torsions:
REMARK  status: ('A' for Active; 'I' for Inactive)
REMARK    1  A    between atoms: C_1  and  N_2
REMARK    2  A    between atoms: N_5  and  C_6
REMARK    3  A    between atoms: N_9  and  C_10
REMARK    4  A    between atoms: C_10  and  C_11
REMARK    5  A    between atoms: C_19  and  N_20
REMARK                            x       y       z     vdW  Elec       q    Type
REMARK                         _______ _______ _______ _____ _____    ______ ____
ROOT
ATOM      1  C   UNL     1       5.224   4.355  17.183  0.00  0.00    +0.000 A 
ATOM      2  N   UNL     1       5.484   4.125  15.871  0.00  0.00    +0.000 NA
ATOM      3  C   UNL     1       6.512   4.762  15.282  0.00  0.00    +0.000 A 
ATOM      4  N   UNL     1       6.849   4.470  13.988  0.00  0.00    +0.000 N 
ATOM      5  N   UNL     1       7.291   5.647  15.910  0.00  0.00    +0.000 NA
ATOM      6  C   UNL     1       7.027   5.915  17.198  0.00  0.00    +0.000 A 
ATOM      7  N   UNL     1       7.753   6.979  17.726  0.00  0.00    +0.000 N 
ATOM      8  C   UNL     1       6.018   5.259  17.870  0.00  0.00    +0.000 A 
ATOM      9  H   UNL     1       7.752   4.809  13.697  0.00  0.00    +0.000 HD
ATOM     10  H   UNL     1       8.476   7.272  17.074  0.00  0.00    +0.000 HD
ATOM     11  H   UNL     1       8.069   6.906  18.687  0.00  0.00    +0.000 HD
ENDROOT
BRANCH   1  16
ATOM     12  C   UNL     1       0.852   2.541  20.121  0.00  0.00    +0.000 C 
ATOM     13  N   UNL     1       1.727   2.635  18.953  0.00  0.00    +0.000 NA
ATOM     14  C   UNL     1       3.091   2.206  19.322  0.00  0.00    +0.000 C 
ATOM     15  C   UNL     1       4.086   2.340  18.154  0.00  0.00    +0.000 C 
ATOM     16  N   UNL     1       4.102   3.726  17.680  0.00  0.00    +0.000 N 
ATOM     17  C   UNL     1       2.779   4.237  17.281  0.00  0.00    +0.000 C 
ATOM     18  C   UNL     1       1.761   4.024  18.433  0.00  0.00    +0.000 C 
ENDBRANCH   1  16
BRANCH   8  19
ATOM     19  N   UNL     1       5.931   5.410  19.290  0.00  0.00    +0.000 N 
ATOM     20  O   UNL     1       6.992   5.294  19.938  0.00  0.00    +0.000 OA
ATOM     21  O   UNL     1       4.832   5.668  19.777  0.00  0.00    +0.000 OA
ENDBRANCH   8  19
BRANCH   4  22
ATOM     22  C   UNL     1       5.839   4.232  12.978  0.00  0.00    +0.000 C 
BRANCH  22  23
ATOM     23  C   UNL     1       6.120   3.043  12.108  0.00  0.00    +0.000 A 
ATOM     24  C   UNL     1       5.322   2.046  11.574  0.00  0.00    +0.000 A 
ATOM     25  C   UNL     1       6.183   1.193  10.831  0.00  0.00    +0.000 A 
ATOM     26  C   UNL     1       7.444   1.723  10.960  0.00  0.00    +0.000 A 
ATOM     27  O   UNL     1       7.418   2.840  11.730  0.00  0.00    +0.000 OA
ENDBRANCH  22  23
ENDBRANCH   4  22
TORSDOF 4
ENDMDL
MODEL 3
REMARK VINA RESULT:      -7.7      1.171      1.525
REMARK  Name = 
REMARK  5 active torsions:
REMARK  status: ('A' for Active; 'I' for Inactive)
REMARK    1  A    between atoms: C_1  and  N_2
REMARK    2  A    between atoms: N_5  and  C_6
REMARK    3  A    between atoms: N_9  and  C_10
REMARK    4  A    between atoms: C_10  and  C_11
REMARK    5  A    between atoms: C_19  and  N_20
REMARK                            x       y       z     vdW  Elec       q    Type
REMARK                         _______ _______ _______ _____ _____    ______ ____
ROOT
ATOM      1  C   UNL     1       3.964   4.549  18.899  0.00  0.00    +0.000 A 
ATOM      2  N   UNL     1       3.496   5.809  19.087  0.00  0.00    +0.000 NA
ATOM      3  C   UNL     1       2.576   6.034  20.042  0.00  0.00    +0.000 A 
ATOM      4  N   UNL     1       2.166   7.312  20.312  0.00  0.00    +0.000 N 
ATOM      5  N   UNL     1       2.059   5.072  20.813  0.00  0.00    +0.000 NA
ATOM      6  C   UNL     1       2.483   3.814  20.617  0.00  0.00    +0.000 A 
ATOM      7  N   UNL     1       1.766   2.849  21.319  0.00  0.00    +0.000 N 
ATOM      8  C   UNL     1       3.459   3.528  19.687  0.00  0.00    +0.000 A 
ATOM      9  H   UNL     1       1.660   7.422  21.177  0.00  0.00    +0.000 HD
ATOM     10  H   UNL     1       1.135   3.291  21.983  0.00  0.00    +0.000 HD
ATOM     11  H   UNL     1       2.279   2.061  21.698  0.00  0.00    +0.000 HD
ENDROOT
BRANCH   1  16
ATOM     12  C   UNL     1       7.292   5.094  14.465  0.00  0.00    +0.000 C 
ATOM     13  N   UNL     1       6.691   4.401  15.604  0.00  0.00    +0.000 NA
ATOM     14  C   UNL     1       5.227   4.328  15.421  0.00  0.00    +0.000 C 
ATOM     15  C   UNL     1       4.517   3.666  16.616  0.00  0.00    +0.000 C 
ATOM     16  N   UNL     1       4.839   4.397  17.844  0.00  0.00    +0.000 N 
ATOM     17  C   UNL     1       6.283   4.510  18.112  0.00  0.00    +0.000 C 
ATOM     18  C   UNL     1       7.005   5.103  16.871  0.00  0.00    +0.000 C 
ENDBRANCH   1  16
BRANCH   8  19
ATOM     19  N   UNL     1       4.035   2.218  19.682  0.00  0.00    +0.000 N 
ATOM     20  O   UNL     1       4.973   2.009  20.479  0.00  0.00    +0.000 OA
ATOM     21  O   UNL     1       3.557   1.380  18.920  0.00  0.00    +0.000 OA
ENDBRANCH   8  19
BRANCH   4  22
ATOM     22  C   UNL     1       1.950   8.277  19.255  0.00  0.00    +0.000 C 
BRANCH  22  23
ATOM     23  C   UNL     1       0.940   9.332  19.593  0.00  0.00    +0.000 A 
ATOM     24  C   UNL     1       0.437   9.820  20.788  0.00  0.00    +0.000 A 
ATOM     25  C   UNL     1      -0.508  10.826  20.448  0.00  0.00    +0.000 A 
ATOM     26  C   UNL     1      -0.520  10.886  19.076  0.00  0.00    +0.000 A 
ATOM     27  O   UNL     1       0.350   9.988  18.548  0.00  0.00    +0.000 OA
ENDBRANCH  22  23
ENDBRANCH   4  22
TORSDOF 4
ENDMDL
MODEL 4
REMARK VINA RESULT:      -7.7      1.103      1.663
REMARK  Name = 
REMARK  5 active torsions:
REMARK  status: ('A' for Active; 'I' for Inactive)
REMARK    1  A    between atoms: C_1  and  N_2
REMARK    2  A    between atoms: N_5  and  C_6
REMARK    3  A    between atoms: N_9  and  C_10
REMARK    4  A    between atoms: C_10  and  C_11
REMARK    5  A    between atoms: C_19  and  N_20
REMARK                            x       y       z     vdW  Elec       q    Type
REMARK                         _______ _______ _______ _____ _____    ______ ____
ROOT
ATOM      1  C   UNL     1       3.957   4.530  18.956  0.00  0.00    +0.000 A 
ATOM      2  N   UNL     1       3.476   5.785  19.146  0.00  0.00    +0.000 NA
ATOM      3  C   UNL     1       2.555   6.000  20.103  0.00  0.00    +0.000 A 
ATOM      4  N   UNL     1       2.132   7.273  20.374  0.00  0.00    +0.000 N 
ATOM      5  N   UNL     1       2.051   5.032  20.874  0.00  0.00    +0.000 NA
ATOM      6  C   UNL     1       2.488   3.779  20.677  0.00  0.00    +0.000 A 
ATOM      7  N   UNL     1       1.784   2.806  21.380  0.00  0.00    +0.000 N 
ATOM      8  C   UNL     1       3.465   3.504  19.745  0.00  0.00    +0.000 A 
ATOM      9  H   UNL     1       1.627   7.377  21.240  0.00  0.00    +0.000 HD
ATOM     10  H   UNL     1       1.150   3.241  22.047  0.00  0.00    +0.000 HD
ATOM     11  H   UNL     1       2.307   2.024  21.758  0.00  0.00    +0.000 HD
ENDROOT
BRANCH   1  16
ATOM     12  C   UNL     1       7.272   5.115  14.517  0.00  0.00    +0.000 C 
ATOM     13  N   UNL     1       6.678   4.413  15.655  0.00  0.00    +0.000 NA
ATOM     14  C   UNL     1       5.215   4.330  15.475  0.00  0.00    +0.000 C 
ATOM     15  C   UNL     1       4.513   3.659  16.669  0.00  0.00    +0.000 C 
ATOM     16  N   UNL     1       4.831   4.388  17.899  0.00  0.00    +0.000 N 
ATOM     17  C   UNL     1       6.275   4.513  18.164  0.00  0.00    +0.000 C 
ATOM     18  C   UNL     1       6.989   5.115  16.924  0.00  0.00    +0.000 C 
ENDBRANCH   1  16
BRANCH   8  19
ATOM     19  N   UNL     1       4.056   2.200  19.738  0.00  0.00    +0.000 N 
ATOM     20  O   UNL     1       3.581   1.368  18.938  0.00  0.00    +0.000 OA
ATOM     21  O   UNL     1       5.003   1.992  20.493  0.00  0.00    +0.000 OA
ENDBRANCH   8  19
BRANCH   4  22
ATOM     22  C   UNL     1       1.903   8.236  19.317  0.00  0.00    +0.000 C 
BRANCH  22  23
ATOM     23  C   UNL     1       0.989   9.359  19.708  0.00  0.00    +0.000 A 
ATOM     24  C   UNL     1       0.073  10.127  19.009  0.00  0.00    +0.000 A 
ATOM     25  C   UNL     1      -0.482  11.043  19.944  0.00  0.00    +0.000 A 
ATOM     26  C   UNL     1       0.127  10.775  21.146  0.00  0.00    +0.000 A 
ATOM     27  O   UNL     1       1.019   9.759  21.015  0.00  0.00    +0.000 OA
ENDBRANCH  22  23
ENDBRANCH   4  22
TORSDOF 4
ENDMDL
MODEL 5
REMARK VINA RESULT:      -7.5      0.756      1.132
REMARK  Name = 
REMARK  5 active torsions:
REMARK  status: ('A' for Active; 'I' for Inactive)
REMARK    1  A    between atoms: C_1  and  N_2
REMARK    2  A    between atoms: N_5  and  C_6
REMARK    3  A    between atoms: N_9  and  C_10
REMARK    4  A    between atoms: C_10  and  C_11
REMARK    5  A    between atoms: C_19  and  N_20
REMARK                            x       y       z     vdW  Elec       q    Type
REMARK                         _______ _______ _______ _____ _____    ______ ____
ROOT
ATOM      1  C   UNL     1       3.862   5.265  18.697  0.00  0.00    +0.000 A 
ATOM      2  N   UNL     1       3.293   6.433  19.089  0.00  0.00    +0.000 NA
ATOM      3  C   UNL     1       2.276   6.407  19.970  0.00  0.00    +0.000 A 
ATOM      4  N   UNL     1       1.755   7.578  20.451  0.00  0.00    +0.000 N 
ATOM      5  N   UNL     1       1.760   5.281  20.470  0.00  0.00    +0.000 NA
ATOM      6  C   UNL     1       2.286   4.114  20.067  0.00  0.00    +0.000 A 
ATOM      7  N   UNL     1       1.578   2.989  20.479  0.00  0.00    +0.000 N 
ATOM      8  C   UNL     1       3.360   4.078  19.203  0.00  0.00    +0.000 A 
ATOM      9  H   UNL     1       1.167   7.479  21.264  0.00  0.00    +0.000 HD
ATOM     10  H   UNL     1       0.860   3.250  21.151  0.00  0.00    +0.000 HD
ATOM     11  H   UNL     1       2.108   2.165  20.740  0.00  0.00    +0.000 HD
ENDROOT
BRANCH   1  16
ATOM     12  C   UNL     1       7.206   4.850  14.260  0.00  0.00    +0.000 C 
ATOM     13  N   UNL     1       6.707   5.437  15.504  0.00  0.00    +0.000 NA
ATOM     14  C   UNL     1       6.800   4.443  16.592  0.00  0.00    +0.000 C 
ATOM     15  C   UNL     1       6.230   4.970  17.922  0.00  0.00    +0.000 C 
ATOM     16  N   UNL     1       4.838   5.382  17.730  0.00  0.00    +0.000 N 
ATOM     17  C   UNL     1       4.651   6.383  16.665  0.00  0.00    +0.000 C 
ATOM     18  C   UNL     1       5.300   5.880  15.347  0.00  0.00    +0.000 C 
ENDBRANCH   1  16
BRANCH   8  19
ATOM     19  N   UNL     1       4.024   2.829  18.991  0.00  0.00    +0.000 N 
ATOM     20  O   UNL     1       3.752   2.214  17.938  0.00  0.00    +0.000 OA
ATOM     21  O   UNL     1       4.834   2.454  19.836  0.00  0.00    +0.000 OA
ENDBRANCH   8  19
BRANCH   4  22
ATOM     22  C   UNL     1       1.569   8.732  19.597  0.00  0.00    +0.000 C 
BRANCH  22  23
ATOM     23  C   UNL     1       0.639   9.762  20.163  0.00  0.00    +0.000 A 
ATOM     24  C   UNL     1      -0.534  10.338  19.706  0.00  0.00    +0.000 A 
ATOM     25  C   UNL     1      -0.947  11.261  20.705  0.00  0.00    +0.000 A 
ATOM     26  C   UNL     1      -0.004  11.188  21.701  0.00  0.00    +0.000 A 
ATOM     27  O   UNL     1       0.959  10.286  21.385  0.00  0.00    +0.000 OA
ENDBRANCH  22  23
ENDBRANCH   4  22
TORSDOF 4
ENDMDL
MODEL 6
REMARK VINA RESULT:      -7.2      1.349      1.667
REMARK  Name = 
REMARK  5 active torsions:
REMARK  status: ('A' for Active; 'I' for Inactive)
REMARK    1  A    between atoms: C_1  and  N_2
REMARK    2  A    between atoms: N_5  and  C_6
REMARK    3  A    between atoms: N_9  and  C_10
REMARK    4  A    between atoms: C_10  and  C_11
REMARK    5  A    between atoms: C_19  and  N_20
REMARK                            x       y       z     vdW  Elec       q    Type
REMARK                         _______ _______ _______ _____ _____    ______ ____
ROOT
ATOM      1  C   UNL     1       3.330   5.267  18.922  0.00  0.00    +0.000 A 
ATOM      2  N   UNL     1       3.024   6.374  19.645  0.00  0.00    +0.000 NA
ATOM      3  C   UNL     1       1.925   6.372  20.421  0.00  0.00    +0.000 A 
ATOM      4  N   UNL     1       1.654   7.441  21.230  0.00  0.00    +0.000 N 
ATOM      5  N   UNL     1       1.081   5.339  20.504  0.00  0.00    +0.000 NA
ATOM      6  C   UNL     1       1.347   4.249  19.769  0.00  0.00    +0.000 A 
ATOM      7  N   UNL     1       0.331   3.297  19.759  0.00  0.00    +0.000 N 
ATOM      8  C   UNL     1       2.484   4.173  18.992  0.00  0.00    +0.000 A 
ATOM      9  H   UNL     1       0.957   7.273  21.938  0.00  0.00    +0.000 HD
ATOM     10  H   UNL     1      -0.381   3.535  20.446  0.00  0.00    +0.000 HD
ATOM     11  H   UNL     1       0.598   2.319  19.764  0.00  0.00    +0.000 HD
ENDROOT
BRANCH   1  16
ATOM     12  C   UNL     1       7.187   4.941  14.915  0.00  0.00    +0.000 C 
ATOM     13  N   UNL     1       6.560   5.479  16.122  0.00  0.00    +0.000 NA
ATOM     14  C   UNL     1       6.472   4.420  17.148  0.00  0.00    +0.000 C 
ATOM     15  C   UNL     1       5.762   4.898  18.428  0.00  0.00    +0.000 C 
ATOM     16  N   UNL     1       4.424   5.390  18.092  0.00  0.00    +0.000 N 
ATOM     17  C   UNL     1       4.417   6.459  17.079  0.00  0.00    +0.000 C 
ATOM     18  C   UNL     1       5.205   6.001  15.822  0.00  0.00    +0.000 C 
ENDBRANCH   1  16
BRANCH   8  19
ATOM     19  N   UNL     1       2.836   2.911  18.417  0.00  0.00    +0.000 N 
ATOM     20  O   UNL     1       3.652   2.209  19.049  0.00  0.00    +0.000 OA
ATOM     21  O   UNL     1       2.298   2.588  17.360  0.00  0.00    +0.000 OA
ENDBRANCH   8  19
BRANCH   4  22
ATOM     22  C   UNL     1       1.879   8.802  20.789  0.00  0.00    +0.000 C 
BRANCH  22  23
ATOM     23  C   UNL     1       0.895   9.278  19.763  0.00  0.00    +0.000 A 
ATOM     24  C   UNL     1       0.928   9.367  18.381  0.00  0.00    +0.000 A 
ATOM     25  C   UNL     1      -0.324   9.908  17.981  0.00  0.00    +0.000 A 
ATOM     26  C   UNL     1      -1.036  10.113  19.138  0.00  0.00    +0.000 A 
ATOM     27  O   UNL     1      -0.309   9.736  20.221  0.00  0.00    +0.000 OA
ENDBRANCH  22  23
ENDBRANCH   4  22
TORSDOF 4
ENDMDL
MODEL 7
REMARK VINA RESULT:      -7.2      0.748      1.002
REMARK  Name = 
REMARK  5 active torsions:
REMARK  status: ('A' for Active; 'I' for Inactive)
REMARK    1  A    between atoms: C_1  and  N_2
REMARK    2  A    between atoms: N_5  and  C_6
REMARK    3  A    between atoms: N_9  and  C_10
REMARK    4  A    between atoms: C_10  and  C_11
REMARK    5  A    between atoms: C_19  and  N_20
REMARK                            x       y       z     vdW  Elec       q    Type
REMARK                         _______ _______ _______ _____ _____    ______ ____
ROOT
ATOM      1  C   UNL     1       3.554   4.957  19.107  0.00  0.00    +0.000 A 
ATOM      2  N   UNL     1       3.005   6.089  19.614  0.00  0.00    +0.000 NA
ATOM      3  C   UNL     1       2.198   6.007  20.687  0.00  0.00    +0.000 A 
ATOM      4  N   UNL     1       1.714   7.146  21.271  0.00  0.00    +0.000 N 
ATOM      5  N   UNL     1       1.872   4.854  21.280  0.00  0.00    +0.000 NA
ATOM      6  C   UNL     1       2.377   3.720  20.771  0.00  0.00    +0.000 A 
ATOM      7  N   UNL     1       1.845   2.556  21.317  0.00  0.00    +0.000 N 
ATOM      8  C   UNL     1       3.247   3.745  19.702  0.00  0.00    +0.000 A 
ATOM      9  H   UNL     1       1.316   7.017  22.188  0.00  0.00    +0.000 HD
ATOM     10  H   UNL     1       1.268   2.777  22.126  0.00  0.00    +0.000 HD
ATOM     11  H   UNL     1       2.470   1.770  21.459  0.00  0.00    +0.000 HD
ENDROOT
BRANCH   1  16
ATOM     12  C   UNL     1       7.214   4.756  14.911  0.00  0.00    +0.000 C 
ATOM     13  N   UNL     1       6.008   5.202  15.608  0.00  0.00    +0.000 NA
ATOM     14  C   UNL     1       6.384   5.846  16.884  0.00  0.00    +0.000 C 
ATOM     15  C   UNL     1       5.158   6.284  17.706  0.00  0.00    +0.000 C 
ATOM     16  N   UNL     1       4.297   5.126  17.957  0.00  0.00    +0.000 N 
ATOM     17  C   UNL     1       3.865   4.425  16.736  0.00  0.00    +0.000 C 
ATOM     18  C   UNL     1       5.101   4.059  15.871  0.00  0.00    +0.000 C 
ENDBRANCH   1  16
BRANCH   8  19
ATOM     19  N   UNL     1       3.932   2.538  19.351  0.00  0.00    +0.000 N 
ATOM     20  O   UNL     1       3.314   1.724  18.634  0.00  0.00    +0.000 OA
ATOM     21  O   UNL     1       5.086   2.392  19.749  0.00  0.00    +0.000 OA
ENDBRANCH   8  19
BRANCH   4  22
ATOM     22  C   UNL     1       1.280   8.277  20.479  0.00  0.00    +0.000 C 
BRANCH  22  23
ATOM     23  C   UNL     1       0.478   9.284  21.248  0.00  0.00    +0.000 A 
ATOM     24  C   UNL     1       0.131   9.405  22.583  0.00  0.00    +0.000 A 
ATOM     25  C   UNL     1      -0.653  10.586  22.691  0.00  0.00    +0.000 A 
ATOM     26  C   UNL     1      -0.731  11.107  21.422  0.00  0.00    +0.000 A 
ATOM     27  O   UNL     1      -0.052  10.328  20.541  0.00  0.00    +0.000 OA
ENDBRANCH  22  23
ENDBRANCH   4  22
TORSDOF 4
ENDMDL
MODEL 8
REMARK VINA RESULT:      -7.0      1.121      1.491
REMARK  Name = 
REMARK  5 active torsions:
REMARK  status: ('A' for Active; 'I' for Inactive)
REMARK    1  A    between atoms: C_1  and  N_2
REMARK    2  A    between atoms: N_5  and  C_6
REMARK    3  A    between atoms: N_9  and  C_10
REMARK    4  A    between atoms: C_10  and  C_11
REMARK    5  A    between atoms: C_19  and  N_20
REMARK                            x       y       z     vdW  Elec       q    Type
REMARK                         _______ _______ _______ _____ _____    ______ ____
ROOT
ATOM      1  C   UNL     1       3.366   5.178  19.283  0.00  0.00    +0.000 A 
ATOM      2  N   UNL     1       2.826   6.235  19.942  0.00  0.00    +0.000 NA
ATOM      3  C   UNL     1       1.663   6.077  20.599  0.00  0.00    +0.000 A 
ATOM      4  N   UNL     1       1.155   7.102  21.350  0.00  0.00    +0.000 N 
ATOM      5  N   UNL     1       0.975   4.932  20.619  0.00  0.00    +0.000 NA
ATOM      6  C   UNL     1       1.474   3.886  19.943  0.00  0.00    +0.000 A 
ATOM      7  N   UNL     1       0.615   2.795  19.852  0.00  0.00    +0.000 N 
ATOM      8  C   UNL     1       2.686   3.972  19.291  0.00  0.00    +0.000 A 
ATOM      9  H   UNL     1       0.418   6.839  21.985  0.00  0.00    +0.000 HD
ATOM     10  H   UNL     1      -0.194   2.931  20.454  0.00  0.00    +0.000 HD
ATOM     11  H   UNL     1       1.019   1.867  19.908  0.00  0.00    +0.000 HD
ENDROOT
BRANCH   1  16
ATOM     12  C   UNL     1       7.939   7.341  16.949  0.00  0.00    +0.000 C 
ATOM     13  N   UNL     1       6.965   6.293  17.252  0.00  0.00    +0.000 NA
ATOM     14  C   UNL     1       5.629   6.707  16.776  0.00  0.00    +0.000 C 
ATOM     15  C   UNL     1       4.537   5.678  17.120  0.00  0.00    +0.000 C 
ATOM     16  N   UNL     1       4.512   5.453  18.568  0.00  0.00    +0.000 N 
ATOM     17  C   UNL     1       5.806   5.027  19.129  0.00  0.00    +0.000 C 
ATOM     18  C   UNL     1       6.918   6.026  18.710  0.00  0.00    +0.000 C 
ENDBRANCH   1  16
BRANCH   8  19
ATOM     19  N   UNL     1       3.277   2.771  18.786  0.00  0.00    +0.000 N 
ATOM     20  O   UNL     1       3.957   2.095  19.587  0.00  0.00    +0.000 OA
ATOM     21  O   UNL     1       3.060   2.468  17.615  0.00  0.00    +0.000 OA
ENDBRANCH   8  19
BRANCH   4  22
ATOM     22  C   UNL     1       1.225   8.477  20.901  0.00  0.00    +0.000 C 
BRANCH  22  23
ATOM     23  C   UNL     1       0.377   9.420  21.700  0.00  0.00    +0.000 A 
ATOM     24  C   UNL     1      -0.407   9.269  22.831  0.00  0.00    +0.000 A 
ATOM     25  C   UNL     1      -0.970  10.545  23.106  0.00  0.00    +0.000 A 
ATOM     26  C   UNL     1      -0.495  11.387  22.130  0.00  0.00    +0.000 A 
ATOM     27  O   UNL     1       0.319  10.719  21.274  0.00  0.00    +0.000 OA
ENDBRANCH  22  23
ENDBRANCH   4  22
TORSDOF 4
ENDMDL
MODEL 9
REMARK VINA RESULT:      -6.9      2.432      6.210
REMARK  Name = 
REMARK  5 active torsions:
REMARK  status: ('A' for Active; 'I' for Inactive)
REMARK    1  A    between atoms: C_1  and  N_2
REMARK    2  A    between atoms: N_5  and  C_6
REMARK    3  A    between atoms: N_9  and  C_10
REMARK    4  A    between atoms: C_10  and  C_11
REMARK    5  A    between atoms: C_19  and  N_20
REMARK                            x       y       z     vdW  Elec       q    Type
REMARK                         _______ _______ _______ _____ _____    ______ ____
ROOT
ATOM      1  C   UNL     1       2.975   5.681  18.598  0.00  0.00    +0.000 A 
ATOM      2  N   UNL     1       3.792   5.608  17.516  0.00  0.00    +0.000 NA
ATOM      3  C   UNL     1       4.394   4.441  17.224  0.00  0.00    +0.000 A 
ATOM      4  N   UNL     1       5.142   4.322  16.085  0.00  0.00    +0.000 N 
ATOM      5  N   UNL     1       4.262   3.336  17.963  0.00  0.00    +0.000 NA
ATOM      6  C   UNL     1       3.488   3.399  19.057  0.00  0.00    +0.000 A 
ATOM      7  N   UNL     1       3.551   2.274  19.875  0.00  0.00    +0.000 N 
ATOM      8  C   UNL     1       2.806   4.552  19.382  0.00  0.00    +0.000 A 
ATOM      9  H   UNL     1       5.365   3.375  15.820  0.00  0.00    +0.000 HD
ATOM     10  H   UNL     1       4.066   1.529  19.411  0.00  0.00    +0.000 HD
ATOM     11  H   UNL     1       2.696   1.966  20.324  0.00  0.00    +0.000 HD
ENDROOT
BRANCH   1  16
ATOM     12  C   UNL     1      -0.122  10.199  19.620  0.00  0.00    +0.000 C 
ATOM     13  N   UNL     1       1.118   9.433  19.493  0.00  0.00    +0.000 NA
ATOM     14  C   UNL     1       1.245   8.923  18.112  0.00  0.00    +0.000 C 
ATOM     15  C   UNL     1       2.498   8.050  17.920  0.00  0.00    +0.000 C 
ATOM     16  N   UNL     1       2.470   6.935  18.870  0.00  0.00    +0.000 N 
ATOM     17  C   UNL     1       2.354   7.353  20.278  0.00  0.00    +0.000 C 
ATOM     18  C   UNL     1       1.135   8.300  20.449  0.00  0.00    +0.000 C 
ENDBRANCH   1  16
BRANCH   8  19
ATOM     19  N   UNL     1       1.820   4.496  20.417  0.00  0.00    +0.000 N 
ATOM     20  O   UNL     1       0.627   4.422  20.060  0.00  0.00    +0.000 OA
ATOM     21  O   UNL     1       2.208   4.495  21.584  0.00  0.00    +0.000 OA
ENDBRANCH   8  19
BRANCH   4  22
ATOM     22  C   UNL     1       6.006   5.391  15.630  0.00  0.00    +0.000 C 
BRANCH  22  23
ATOM     23  C   UNL     1       6.797   6.039  16.726  0.00  0.00    +0.000 A 
ATOM     24  C   UNL     1       7.438   5.553  17.853  0.00  0.00    +0.000 A 
ATOM     25  C   UNL     1       8.015   6.676  18.507  0.00  0.00    +0.000 A 
ATOM     26  C   UNL     1       7.690   7.768  17.740  0.00  0.00    +0.000 A 
ATOM     27  O   UNL     1       6.954   7.396  16.662  0.00  0.00    +0.000 OA
ENDBRANCH  22  23
ENDBRANCH   4  22
TORSDOF 4
ENDMDL
