MODEL 1
REMARK VINA RESULT:      -7.7      0.000      0.000
REMARK  Name = 
REMARK  5 active torsions:
REMARK  status: ('A' for Active; 'I' for Inactive)
REMARK    1  A    between atoms: C_1  and  C_2
REMARK    2  A    between atoms: C_2  and  N_3
REMARK    3  A    between atoms: C_7  and  C_8
REMARK    4  A    between atoms: C_8  and  N_9
REMARK    5  A    between atoms: N_9  and  C_10
REMARK                            x       y       z     vdW  Elec       q    Type
REMARK                         _______ _______ _______ _____ _____    ______ ____
ROOT
ATOM      1  C   UNL     1       5.502   3.875  17.683  0.00  0.00    +0.000 A 
ATOM      2  C   UNL     1       5.150   3.557  16.364  0.00  0.00    +0.000 A 
ATOM      3  C   UNL     1       5.602   4.338  15.295  0.00  0.00    +0.000 A 
ATOM      4 CL   UNL     1       5.135   3.929  13.688  0.00  0.00    +0.000 Cl
ATOM      5  C   UNL     1       6.415   5.446  15.511  0.00  0.00    +0.000 A 
ATOM      6  C   UNL     1       6.811   5.747  16.810  0.00  0.00    +0.000 A 
ATOM      7  C   UNL     1       6.399   4.944  17.886  0.00  0.00    +0.000 A 
ATOM      8  O   UNL     1       6.764   5.218  19.184  0.00  0.00    +0.000 OA
ATOM      9  C   UNL     1       7.887   6.077  19.306  0.00  0.00    +0.000 C 
ATOM     10  C   UNL     1       8.019   7.211  18.297  0.00  0.00    +0.000 C 
ATOM     11  O   UNL     1       8.565   8.282  18.540  0.00  0.00    +0.000 OA
ATOM     12  N   UNL     1       7.567   6.900  17.042  0.00  0.00    +0.000 N 
ATOM     13  H   UNL     1       7.724   7.584  16.314  0.00  0.00    +0.000 HD
ENDROOT
BRANCH   1  14
ATOM     14  N   UNL     1       5.097   3.096  18.784  0.00  0.00    +0.000 N 
ATOM     15  H   UNL     1       5.860   2.493  19.090  0.00  0.00    +0.000 HD
BRANCH  14  16
ATOM     16  C   UNL     1       3.840   2.369  18.683  0.00  0.00    +0.000 C 
BRANCH  16  21
ATOM     17  N   UNL     1       1.865   3.870  19.224  0.00  0.00    +0.000 N 
ATOM     18  N   UNL     1       0.958   4.119  20.192  0.00  0.00    +0.000 NA
ATOM     19  C   UNL     1       1.312   3.304  21.185  0.00  0.00    +0.000 A 
ATOM     20  C   UNL     1       2.433   2.530  20.864  0.00  0.00    +0.000 A 
ATOM     21  C   UNL     1       2.771   2.897  19.576  0.00  0.00    +0.000 A 
BRANCH  17  23
ATOM     22  C   UNL     1       2.513   5.952  18.072  0.00  0.00    +0.000 C 
ATOM     23  C   UNL     1       1.777   4.627  17.987  0.00  0.00    +0.000 C 
ENDBRANCH  17  23
ENDBRANCH  16  21
ENDBRANCH  14  16
ENDBRANCH   1  14
TORSDOF 4
ENDMDL
MODEL 2
REMARK VINA RESULT:      -7.7      0.963      1.942
REMARK  Name = 
REMARK  5 active torsions:
REMARK  status: ('A' for Active; 'I' for Inactive)
REMARK    1  A    between atoms: C_1  and  C_2
REMARK    2  A    between atoms: C_2  and  N_3
REMARK    3  A    between atoms: C_7  and  C_8
REMARK    4  A    between atoms: C_8  and  N_9
REMARK    5  A    between atoms: N_9  and  C_10
REMARK                            x       y       z     vdW  Elec       q    Type
REMARK                         _______ _______ _______ _____ _____    ______ ____
ROOT
ATOM      1  C   UNL     1       5.187   3.834  16.943  0.00  0.00    +0.000 A 
ATOM      2  C   UNL     1       5.196   3.464  15.590  0.00  0.00    +0.000 A 
ATOM      3  C   UNL     1       6.032   4.112  14.676  0.00  0.00    +0.000 A 
ATOM      4 CL   UNL     1       6.003   3.644  13.019  0.00  0.00    +0.000 Cl
ATOM      5  C   UNL     1       6.882   5.136  15.084  0.00  0.00    +0.000 A 
ATOM      6  C   UNL     1       6.919   5.483  16.430  0.00  0.00    +0.000 A 
ATOM      7  C   UNL     1       6.115   4.809  17.364  0.00  0.00    +0.000 A 
ATOM      8  O   UNL     1       6.120   5.133  18.701  0.00  0.00    +0.000 OA
ATOM      9  C   UNL     1       7.259   5.869  19.119  0.00  0.00    +0.000 C 
ATOM     10  C   UNL     1       7.820   6.906  18.155  0.00  0.00    +0.000 C 
ATOM     11  O   UNL     1       8.404   7.925  18.511  0.00  0.00    +0.000 OA
ATOM     12  N   UNL     1       7.715   6.559  16.834  0.00  0.00    +0.000 N 
ATOM     13  H   UNL     1       8.162   7.168  16.162  0.00  0.00    +0.000 HD
ENDROOT
BRANCH   1  14
ATOM     14  N   UNL     1       4.386   3.185  17.901  0.00  0.00    +0.000 N 
ATOM     15  H   UNL     1       4.581   2.185  17.907  0.00  0.00    +0.000 HD
BRANCH  14  16
ATOM     16  C   UNL     1       2.955   3.457  17.894  0.00  0.00    +0.000 C 
BRANCH  16  21
ATOM     17  N   UNL     1       1.848   4.473  19.940  0.00  0.00    +0.000 N 
ATOM     18  N   UNL     1       1.679   5.650  20.578  0.00  0.00    +0.000 NA
ATOM     19  C   UNL     1       2.275   6.539  19.782  0.00  0.00    +0.000 A 
ATOM     20  C   UNL     1       2.829   5.944  18.643  0.00  0.00    +0.000 A 
ATOM     21  C   UNL     1       2.559   4.595  18.769  0.00  0.00    +0.000 A 
BRANCH  17  23
ATOM     22  C   UNL     1       2.175   2.708  21.631  0.00  0.00    +0.000 C 
ATOM     23  C   UNL     1       1.284   3.277  20.542  0.00  0.00    +0.000 C 
ENDBRANCH  17  23
ENDBRANCH  16  21
ENDBRANCH  14  16
ENDBRANCH   1  14
TORSDOF 4
ENDMDL
MODEL 3
REMARK VINA RESULT:      -7.6      0.967      1.054
REMARK  Name = 
REMARK  5 active torsions:
REMARK  status: ('A' for Active; 'I' for Inactive)
REMARK    1  A    between atoms: C_1  and  C_2
REMARK    2  A    between atoms: C_2  and  N_3
REMARK    3  A    between atoms: C_7  and  C_8
REMARK    4  A    between atoms: C_8  and  N_9
REMARK    5  A    between atoms: N_9  and  C_10
REMARK                            x       y       z     vdW  Elec       q    Type
REMARK                         _______ _______ _______ _____ _____    ______ ____
ROOT
ATOM      1  C   UNL     1       5.267   3.732  16.802  0.00  0.00    +0.000 A 
ATOM      2  C   UNL     1       5.293   3.370  15.447  0.00  0.00    +0.000 A 
ATOM      3  C   UNL     1       6.100   4.062  14.538  0.00  0.00    +0.000 A 
ATOM      4 CL   UNL     1       6.094   3.603  12.878  0.00  0.00    +0.000 Cl
ATOM      5  C   UNL     1       6.901   5.121  14.953  0.00  0.00    +0.000 A 
ATOM      6  C   UNL     1       6.922   5.462  16.301  0.00  0.00    +0.000 A 
ATOM      7  C   UNL     1       6.149   4.746  17.230  0.00  0.00    +0.000 A 
ATOM      8  O   UNL     1       6.138   5.061  18.569  0.00  0.00    +0.000 OA
ATOM      9  C   UNL     1       7.241   5.846  18.993  0.00  0.00    +0.000 C 
ATOM     10  C   UNL     1       7.755   6.914  18.036  0.00  0.00    +0.000 C 
ATOM     11  O   UNL     1       8.291   7.957  18.398  0.00  0.00    +0.000 OA
ATOM     12  N   UNL     1       7.667   6.571  16.713  0.00  0.00    +0.000 N 
ATOM     13  H   UNL     1       8.086   7.203  16.044  0.00  0.00    +0.000 HD
ENDROOT
BRANCH   1  14
ATOM     14  N   UNL     1       4.496   3.041  17.756  0.00  0.00    +0.000 N 
ATOM     15  H   UNL     1       4.853   2.095  17.882  0.00  0.00    +0.000 HD
BRANCH  14  16
ATOM     16  C   UNL     1       3.047   3.056  17.606  0.00  0.00    +0.000 C 
BRANCH  16  21
ATOM     17  N   UNL     1       2.163   4.657  19.367  0.00  0.00    +0.000 N 
ATOM     18  N   UNL     1       1.404   4.689  20.483  0.00  0.00    +0.000 NA
ATOM     19  C   UNL     1       1.096   3.411  20.703  0.00  0.00    +0.000 A 
ATOM     20  C   UNL     1       1.643   2.559  19.737  0.00  0.00    +0.000 A 
ATOM     21  C   UNL     1       2.320   3.387  18.863  0.00  0.00    +0.000 A 
BRANCH  17  23
ATOM     22  C   UNL     1       2.275   7.096  19.710  0.00  0.00    +0.000 C 
ATOM     23  C   UNL     1       2.695   5.910  18.860  0.00  0.00    +0.000 C 
ENDBRANCH  17  23
ENDBRANCH  16  21
ENDBRANCH  14  16
ENDBRANCH   1  14
TORSDOF 4
ENDMDL
MODEL 4
REMARK VINA RESULT:      -7.5      2.432      2.961
REMARK  Name = 
REMARK  5 active torsions:
REMARK  status: ('A' for Active; 'I' for Inactive)
REMARK    1  A    between atoms: C_1  and  C_2
REMARK    2  A    between atoms: C_2  and  N_3
REMARK    3  A    between atoms: C_7  and  C_8
REMARK    4  A    between atoms: C_8  and  N_9
REMARK    5  A    between atoms: N_9  and  C_10
REMARK                            x       y       z     vdW  Elec       q    Type
REMARK                         _______ _______ _______ _____ _____    ______ ____
ROOT
ATOM      1  C   UNL     1       4.914   4.969  18.808  0.00  0.00    +0.000 A 
ATOM      2  C   UNL     1       3.877   5.874  19.076  0.00  0.00    +0.000 A 
ATOM      3  C   UNL     1       3.528   6.859  18.146  0.00  0.00    +0.000 A 
ATOM      4 CL   UNL     1       2.263   7.966  18.517  0.00  0.00    +0.000 Cl
ATOM      5  C   UNL     1       4.195   6.963  16.929  0.00  0.00    +0.000 A 
ATOM      6  C   UNL     1       5.194   6.043  16.629  0.00  0.00    +0.000 A 
ATOM      7  C   UNL     1       5.523   5.023  17.537  0.00  0.00    +0.000 A 
ATOM      8  O   UNL     1       6.511   4.102  17.275  0.00  0.00    +0.000 OA
ATOM      9  C   UNL     1       6.863   3.997  15.905  0.00  0.00    +0.000 C 
ATOM     10  C   UNL     1       6.877   5.277  15.080  0.00  0.00    +0.000 C 
ATOM     11  O   UNL     1       7.610   5.461  14.114  0.00  0.00    +0.000 OA
ATOM     12  N   UNL     1       5.917   6.187  15.441  0.00  0.00    +0.000 N 
ATOM     13  H   UNL     1       5.821   7.009  14.860  0.00  0.00    +0.000 HD
ENDROOT
BRANCH   1  14
ATOM     14  N   UNL     1       5.274   3.941  19.701  0.00  0.00    +0.000 N 
ATOM     15  H   UNL     1       6.282   3.795  19.683  0.00  0.00    +0.000 HD
BRANCH  14  16
ATOM     16  C   UNL     1       4.543   2.684  19.628  0.00  0.00    +0.000 C 
BRANCH  16  21
ATOM     17  N   UNL     1       2.014   2.783  19.436  0.00  0.00    +0.000 N 
ATOM     18  N   UNL     1       0.893   2.785  20.189  0.00  0.00    +0.000 NA
ATOM     19  C   UNL     1       1.346   2.788  21.443  0.00  0.00    +0.000 A 
ATOM     20  C   UNL     1       2.745   2.783  21.503  0.00  0.00    +0.000 A 
ATOM     21  C   UNL     1       3.165   2.760  20.188  0.00  0.00    +0.000 A 
BRANCH  17  23
ATOM     22  C   UNL     1       1.326   4.129  17.488  0.00  0.00    +0.000 C 
ATOM     23  C   UNL     1       1.870   2.803  17.990  0.00  0.00    +0.000 C 
ENDBRANCH  17  23
ENDBRANCH  16  21
ENDBRANCH  14  16
ENDBRANCH   1  14
TORSDOF 4
ENDMDL
MODEL 5
REMARK VINA RESULT:      -7.2      2.695      6.191
REMARK  Name = 
REMARK  5 active torsions:
REMARK  status: ('A' for Active; 'I' for Inactive)
REMARK    1  A    between atoms: C_1  and  C_2
REMARK    2  A    between atoms: C_2  and  N_3
REMARK    3  A    between atoms: C_7  and  C_8
REMARK    4  A    between atoms: C_8  and  N_9
REMARK    5  A    between atoms: N_9  and  C_10
REMARK                            x       y       z     vdW  Elec       q    Type
REMARK                         _______ _______ _______ _____ _____    ______ ____
ROOT
ATOM      1  C   UNL     1       4.160   4.624  18.409  0.00  0.00    +0.000 A 
ATOM      2  C   UNL     1       3.872   5.937  18.010  0.00  0.00    +0.000 A 
ATOM      3  C   UNL     1       2.862   6.672  18.639  0.00  0.00    +0.000 A 
ATOM      4 CL   UNL     1       2.522   8.275  18.111  0.00  0.00    +0.000 Cl
ATOM      5  C   UNL     1       2.121   6.123  19.681  0.00  0.00    +0.000 A 
ATOM      6  C   UNL     1       2.425   4.839  20.120  0.00  0.00    +0.000 A 
ATOM      7  C   UNL     1       3.467   4.108  19.524  0.00  0.00    +0.000 A 
ATOM      8  O   UNL     1       3.789   2.833  19.927  0.00  0.00    +0.000 OA
ATOM      9  C   UNL     1       3.304   2.487  21.214  0.00  0.00    +0.000 C 
ATOM     10  C   UNL     1       1.930   3.011  21.613  0.00  0.00    +0.000 C 
ATOM     11  O   UNL     1       1.174   2.431  22.386  0.00  0.00    +0.000 OA
ATOM     12  N   UNL     1       1.638   4.254  21.116  0.00  0.00    +0.000 N 
ATOM     13  H   UNL     1       0.781   4.686  21.433  0.00  0.00    +0.000 HD
ENDROOT
BRANCH   1  14
ATOM     14  N   UNL     1       5.190   3.863  17.825  0.00  0.00    +0.000 N 
ATOM     15  H   UNL     1       6.093   4.310  17.982  0.00  0.00    +0.000 HD
BRANCH  14  16
ATOM     16  C   UNL     1       5.029   3.442  16.440  0.00  0.00    +0.000 C 
BRANCH  16  21
ATOM     17  N   UNL     1       7.009   4.924  15.869  0.00  0.00    +0.000 N 
ATOM     18  N   UNL     1       7.721   5.382  14.817  0.00  0.00    +0.000 NA
ATOM     19  C   UNL     1       7.079   4.895  13.755  0.00  0.00    +0.000 A 
ATOM     20  C   UNL     1       5.967   4.124  14.113  0.00  0.00    +0.000 A 
ATOM     21  C   UNL     1       5.945   4.137  15.494  0.00  0.00    +0.000 A 
BRANCH  17  23
ATOM     22  C   UNL     1       7.431   6.808  17.404  0.00  0.00    +0.000 C 
ATOM     23  C   UNL     1       7.436   5.302  17.205  0.00  0.00    +0.000 C 
ENDBRANCH  17  23
ENDBRANCH  16  21
ENDBRANCH  14  16
ENDBRANCH   1  14
TORSDOF 4
ENDMDL
MODEL 6
REMARK VINA RESULT:      -7.2      3.267      6.214
REMARK  Name = 
REMARK  5 active torsions:
REMARK  status: ('A' for Active; 'I' for Inactive)
REMARK    1  A    between atoms: C_1  and  C_2
REMARK    2  A    between atoms: C_2  and  N_3
REMARK    3  A    between atoms: C_7  and  C_8
REMARK    4  A    between atoms: C_8  and  N_9
REMARK    5  A    between atoms: N_9  and  C_10
REMARK                            x       y       z     vdW  Elec       q    Type
REMARK                         _______ _______ _______ _____ _____    ______ ____
ROOT
ATOM      1  C   UNL     1       3.254   5.310  18.580  0.00  0.00    +0.000 A 
ATOM      2  C   UNL     1       3.159   4.098  19.279  0.00  0.00    +0.000 A 
ATOM      3  C   UNL     1       2.510   4.035  20.516  0.00  0.00    +0.000 A 
ATOM      4 CL   UNL     1       2.428   2.534  21.356  0.00  0.00    +0.000 Cl
ATOM      5  C   UNL     1       1.936   5.169  21.082  0.00  0.00    +0.000 A 
ATOM      6  C   UNL     1       1.981   6.368  20.380  0.00  0.00    +0.000 A 
ATOM      7  C   UNL     1       2.592   6.434  19.117  0.00  0.00    +0.000 A 
ATOM      8  O   UNL     1       2.662   7.605  18.399  0.00  0.00    +0.000 OA
ATOM      9  C   UNL     1       1.738   8.599  18.811  0.00  0.00    +0.000 C 
ATOM     10  C   UNL     1       1.450   8.719  20.302  0.00  0.00    +0.000 C 
ATOM     11  O   UNL     1       1.133   9.768  20.856  0.00  0.00    +0.000 OA
ATOM     12  N   UNL     1       1.471   7.526  20.975  0.00  0.00    +0.000 N 
ATOM     13  H   UNL     1       1.189   7.541  21.946  0.00  0.00    +0.000 HD
ENDROOT
BRANCH   1  14
ATOM     14  N   UNL     1       3.869   5.411  17.317  0.00  0.00    +0.000 N 
ATOM     15  H   UNL     1       3.217   5.798  16.636  0.00  0.00    +0.000 HD
BRANCH  14  16
ATOM     16  C   UNL     1       4.561   4.240  16.798  0.00  0.00    +0.000 C 
BRANCH  16  21
ATOM     17  N   UNL     1       6.828   5.136  16.092  0.00  0.00    +0.000 N 
ATOM     18  N   UNL     1       7.628   5.262  15.012  0.00  0.00    +0.000 NA
ATOM     19  C   UNL     1       6.895   4.780  14.008  0.00  0.00    +0.000 A 
ATOM     20  C   UNL     1       5.635   4.342  14.432  0.00  0.00    +0.000 A 
ATOM     21  C   UNL     1       5.613   4.564  15.796  0.00  0.00    +0.000 A 
BRANCH  17  23
ATOM     22  C   UNL     1       7.261   7.113  17.501  0.00  0.00    +0.000 C 
ATOM     23  C   UNL     1       7.326   5.601  17.375  0.00  0.00    +0.000 C 
ENDBRANCH  17  23
ENDBRANCH  16  21
ENDBRANCH  14  16
ENDBRANCH   1  14
TORSDOF 4
ENDMDL
MODEL 7
REMARK VINA RESULT:      -7.2      0.970      1.075
REMARK  Name = 
REMARK  5 active torsions:
REMARK  status: ('A' for Active; 'I' for Inactive)
REMARK    1  A    between atoms: C_1  and  C_2
REMARK    2  A    between atoms: C_2  and  N_3
REMARK    3  A    between atoms: C_7  and  C_8
REMARK    4  A    between atoms: C_8  and  N_9
REMARK    5  A    between atoms: N_9  and  C_10
REMARK                            x       y       z     vdW  Elec       q    Type
REMARK                         _______ _______ _______ _____ _____    ______ ____
ROOT
ATOM      1  C   UNL     1       5.722   4.060  17.625  0.00  0.00    +0.000 A 
ATOM      2  C   UNL     1       5.357   3.661  16.331  0.00  0.00    +0.000 A 
ATOM      3  C   UNL     1       5.718   4.427  15.218  0.00  0.00    +0.000 A 
ATOM      4 CL   UNL     1       5.236   3.918  13.645  0.00  0.00    +0.000 Cl
ATOM      5  C   UNL     1       6.454   5.599  15.363  0.00  0.00    +0.000 A 
ATOM      6  C   UNL     1       6.864   5.983  16.635  0.00  0.00    +0.000 A 
ATOM      7  C   UNL     1       6.544   5.199  17.756  0.00  0.00    +0.000 A 
ATOM      8  O   UNL     1       6.925   5.553  19.029  0.00  0.00    +0.000 OA
ATOM      9  C   UNL     1       7.985   6.495  19.081  0.00  0.00    +0.000 C 
ATOM     10  C   UNL     1       8.004   7.592  18.023  0.00  0.00    +0.000 C 
ATOM     11  O   UNL     1       8.477   8.709  18.205  0.00  0.00    +0.000 OA
ATOM     12  N   UNL     1       7.539   7.196  16.796  0.00  0.00    +0.000 N 
ATOM     13  H   UNL     1       7.625   7.858  16.037  0.00  0.00    +0.000 HD
ENDROOT
BRANCH   1  14
ATOM     14  N   UNL     1       5.408   3.301  18.769  0.00  0.00    +0.000 N 
ATOM     15  H   UNL     1       5.278   2.322  18.519  0.00  0.00    +0.000 HD
BRANCH  14  16
ATOM     16  C   UNL     1       4.344   3.783  19.638  0.00  0.00    +0.000 C 
BRANCH  16  21
ATOM     17  N   UNL     1       2.203   4.284  18.369  0.00  0.00    +0.000 N 
ATOM     18  N   UNL     1       1.032   3.720  18.002  0.00  0.00    +0.000 NA
ATOM     19  C   UNL     1       1.056   2.519  18.580  0.00  0.00    +0.000 A 
ATOM     20  C   UNL     1       2.231   2.302  19.309  0.00  0.00    +0.000 A 
ATOM     21  C   UNL     1       2.977   3.454  19.147  0.00  0.00    +0.000 A 
BRANCH  17  23
ATOM     22  C   UNL     1       2.412   6.645  19.049  0.00  0.00    +0.000 C 
ATOM     23  C   UNL     1       2.487   5.635  17.918  0.00  0.00    +0.000 C 
ENDBRANCH  17  23
ENDBRANCH  16  21
ENDBRANCH  14  16
ENDBRANCH   1  14
TORSDOF 4
ENDMDL
MODEL 8
REMARK VINA RESULT:      -7.1      3.730      5.094
REMARK  Name = 
REMARK  5 active torsions:
REMARK  status: ('A' for Active; 'I' for Inactive)
REMARK    1  A    between atoms: C_1  and  C_2
REMARK    2  A    between atoms: C_2  and  N_3
REMARK    3  A    between atoms: C_7  and  C_8
REMARK    4  A    between atoms: C_8  and  N_9
REMARK    5  A    between atoms: N_9  and  C_10
REMARK                            x       y       z     vdW  Elec       q    Type
REMARK                         _______ _______ _______ _____ _____    ______ ____
ROOT
ATOM      1  C   UNL     1       2.886   5.856  18.091  0.00  0.00    +0.000 A 
ATOM      2  C   UNL     1       1.962   4.829  18.331  0.00  0.00    +0.000 A 
ATOM      3  C   UNL     1       2.330   3.487  18.184  0.00  0.00    +0.000 A 
ATOM      4 CL   UNL     1       1.164   2.252  18.469  0.00  0.00    +0.000 Cl
ATOM      5  C   UNL     1       3.621   3.136  17.803  0.00  0.00    +0.000 A 
ATOM      6  C   UNL     1       4.561   4.141  17.606  0.00  0.00    +0.000 A 
ATOM      7  C   UNL     1       4.215   5.490  17.793  0.00  0.00    +0.000 A 
ATOM      8  O   UNL     1       5.118   6.510  17.599  0.00  0.00    +0.000 OA
ATOM      9  C   UNL     1       6.475   6.100  17.616  0.00  0.00    +0.000 C 
ATOM     10  C   UNL     1       6.812   4.752  16.991  0.00  0.00    +0.000 C 
ATOM     11  O   UNL     1       7.890   4.490  16.467  0.00  0.00    +0.000 OA
ATOM     12  N   UNL     1       5.839   3.800  17.152  0.00  0.00    +0.000 N 
ATOM     13  H   UNL     1       6.056   2.863  16.842  0.00  0.00    +0.000 HD
ENDROOT
BRANCH   1  14
ATOM     14  N   UNL     1       2.567   7.217  18.260  0.00  0.00    +0.000 N 
ATOM     15  H   UNL     1       3.285   7.804  17.836  0.00  0.00    +0.000 HD
BRANCH  14  16
ATOM     16  C   UNL     1       2.214   7.676  19.597  0.00  0.00    +0.000 C 
BRANCH  16  21
ATOM     17  N   UNL     1       0.847   9.488  20.733  0.00  0.00    +0.000 N 
ATOM     18  N   UNL     1       0.169  10.625  20.469  0.00  0.00    +0.000 NA
ATOM     19  C   UNL     1       0.238  10.744  19.143  0.00  0.00    +0.000 A 
ATOM     20  C   UNL     1       0.958   9.700  18.553  0.00  0.00    +0.000 A 
ATOM     21  C   UNL     1       1.364   8.899  19.603  0.00  0.00    +0.000 A 
BRANCH  17  23
ATOM     22  C   UNL     1      -0.178   9.608  22.972  0.00  0.00    +0.000 C 
ATOM     23  C   UNL     1       0.942   9.048  22.114  0.00  0.00    +0.000 C 
ENDBRANCH  17  23
ENDBRANCH  16  21
ENDBRANCH  14  16
ENDBRANCH   1  14
TORSDOF 4
ENDMDL
MODEL 9
REMARK VINA RESULT:      -7.1      1.014      1.303
REMARK  Name = 
REMARK  5 active torsions:
REMARK  status: ('A' for Active; 'I' for Inactive)
REMARK    1  A    between atoms: C_1  and  C_2
REMARK    2  A    between atoms: C_2  and  N_3
REMARK    3  A    between atoms: C_7  and  C_8
REMARK    4  A    between atoms: C_8  and  N_9
REMARK    5  A    between atoms: N_9  and  C_10
REMARK                            x       y       z     vdW  Elec       q    Type
REMARK                         _______ _______ _______ _____ _____    ______ ____
ROOT
ATOM      1  C   UNL     1       5.655   3.999  17.498  0.00  0.00    +0.000 A 
ATOM      2  C   UNL     1       5.314   3.632  16.188  0.00  0.00    +0.000 A 
ATOM      3  C   UNL     1       5.709   4.416  15.100  0.00  0.00    +0.000 A 
ATOM      4 CL   UNL     1       5.257   3.947  13.506  0.00  0.00    +0.000 Cl
ATOM      5  C   UNL     1       6.455   5.576  15.287  0.00  0.00    +0.000 A 
ATOM      6  C   UNL     1       6.841   5.928  16.575  0.00  0.00    +0.000 A 
ATOM      7  C   UNL     1       6.487   5.124  17.672  0.00  0.00    +0.000 A 
ATOM      8  O   UNL     1       6.844   5.447  18.961  0.00  0.00    +0.000 OA
ATOM      9  C   UNL     1       7.913   6.375  19.055  0.00  0.00    +0.000 C 
ATOM     10  C   UNL     1       7.968   7.493  18.022  0.00  0.00    +0.000 C 
ATOM     11  O   UNL     1       8.450   8.601  18.239  0.00  0.00    +0.000 OA
ATOM     12  N   UNL     1       7.527   7.130  16.777  0.00  0.00    +0.000 N 
ATOM     13  H   UNL     1       7.637   7.807  16.034  0.00  0.00    +0.000 HD
ENDROOT
BRANCH   1  14
ATOM     14  N   UNL     1       5.307   3.220  18.618  0.00  0.00    +0.000 N 
ATOM     15  H   UNL     1       5.078   2.269  18.331  0.00  0.00    +0.000 HD
BRANCH  14  16
ATOM     16  C   UNL     1       4.320   3.756  19.545  0.00  0.00    +0.000 C 
BRANCH  16  21
ATOM     17  N   UNL     1       1.820   3.670  19.979  0.00  0.00    +0.000 N 
ATOM     18  N   UNL     1       0.692   3.060  19.557  0.00  0.00    +0.000 NA
ATOM     19  C   UNL     1       1.118   2.188  18.643  0.00  0.00    +0.000 A 
ATOM     20  C   UNL     1       2.506   2.234  18.470  0.00  0.00    +0.000 A 
ATOM     21  C   UNL     1       2.948   3.218  19.334  0.00  0.00    +0.000 A 
BRANCH  17  23
ATOM     22  C   UNL     1       1.725   6.089  20.446  0.00  0.00    +0.000 C 
ATOM     23  C   UNL     1       1.709   4.681  21.016  0.00  0.00    +0.000 C 
ENDBRANCH  17  23
ENDBRANCH  16  21
ENDBRANCH  14  16
ENDBRANCH   1  14
TORSDOF 4
ENDMDL
