MODEL 1
REMARK VINA RESULT:      -7.0      0.000      0.000
REMARK  Name = 
REMARK  11 active torsions:
REMARK  status: ('A' for Active; 'I' for Inactive)
REMARK    1  A    between atoms: C_1  and  O_2
REMARK    2  A    between atoms: O_2  and  C_3
REMARK    3  A    between atoms: C_5  and  N_6
REMARK    4  A    between atoms: N_6  and  C_7
REMARK    5  A    between atoms: N_10  and  C_11
REMARK    6  A    between atoms: N_10  and  C_12
REMARK    7  A    between atoms: C_15  and  N_16
REMARK    8  A    between atoms: C_22  and  O_23
REMARK    9  A    between atoms: O_23  and  C_24
REMARK   10  A    between atoms: C_25  and  O_26
REMARK   11  A    between atoms: O_26  and  C_27
REMARK                            x       y       z     vdW  Elec       q    Type
REMARK                         _______ _______ _______ _____ _____    ______ ____
ROOT
ATOM      1  N   UNL     1       2.670   7.663  18.325  0.00  0.00    +0.000 N 
ATOM      2  C   UNL     1       3.282   8.256  17.126  0.00  0.00    +0.000 C 
ATOM      3  C   UNL     1       1.821   8.483  19.058  0.00  0.00    +0.000 C 
ATOM      4  O   UNL     1       1.599   9.625  18.618  0.00  0.00    +0.000 OA
ATOM      5  N   UNL     1       1.282   8.088  20.282  0.00  0.00    +0.000 N 
ATOM      6  C   UNL     1       1.424   6.826  21.015  0.00  0.00    +0.000 C 
ENDROOT
BRANCH   1   9
ATOM      7  C   UNL     1       2.605   3.963  18.239  0.00  0.00    +0.000 A 
ATOM      8  C   UNL     1       2.179   5.303  18.210  0.00  0.00    +0.000 A 
ATOM      9  C   UNL     1       3.047   6.335  18.556  0.00  0.00    +0.000 A 
ATOM     10  C   UNL     1       4.347   6.026  18.954  0.00  0.00    +0.000 A 
ATOM     11  C   UNL     1       4.763   4.691  19.084  0.00  0.00    +0.000 A 
ATOM     12  C   UNL     1       3.885   3.635  18.738  0.00  0.00    +0.000 A 
BRANCH   7  14
ATOM     13  C   UNL     1       0.860   2.461  18.778  0.00  0.00    +0.000 C 
ATOM     14  O   UNL     1       1.763   2.975  17.793  0.00  0.00    +0.000 OA
ENDBRANCH   7  14
BRANCH  11  15
ATOM     15  O   UNL     1       6.059   4.619  19.534  0.00  0.00    +0.000 OA
ATOM     16  C   UNL     1       7.011   5.581  19.107  0.00  0.00    +0.000 C 
ENDBRANCH  11  15
BRANCH  12  17
ATOM     17  O   UNL     1       4.378   2.374  18.928  0.00  0.00    +0.000 OA
ATOM     18  C   UNL     1       4.460   1.785  20.213  0.00  0.00    +0.000 C 
ENDBRANCH  12  17
ENDBRANCH   1   9
BRANCH   5  19
ATOM     19  C   UNL     1       0.526   9.063  21.015  0.00  0.00    +0.000 A 
ATOM     20  C   UNL     1       0.434   8.981  22.412  0.00  0.00    +0.000 A 
ATOM     21  C   UNL     1      -0.279   9.943  23.134  0.00  0.00    +0.000 A 
ATOM     22  C   UNL     1      -0.928  10.978  22.452  0.00  0.00    +0.000 A 
ATOM     23  C   UNL     1      -0.851  11.070  21.055  0.00  0.00    +0.000 A 
ATOM     24  C   UNL     1      -0.109  10.119  20.344  0.00  0.00    +0.000 A 
BRANCH  22  25
ATOM     25  N   UNL     1      -1.704  11.974  23.203  0.00  0.00    +0.000 N 
ATOM     26  O   UNL     1      -2.868  11.685  23.512  0.00  0.00    +0.000 OA
ATOM     27  O   UNL     1      -1.147  13.044  23.487  0.00  0.00    +0.000 OA
ENDBRANCH  22  25
ENDBRANCH   5  19
TORSDOF 6
ENDMDL
MODEL 2
REMARK VINA RESULT:      -6.8      2.838      8.704
REMARK  Name = 
REMARK  11 active torsions:
REMARK  status: ('A' for Active; 'I' for Inactive)
REMARK    1  A    between atoms: C_1  and  O_2
REMARK    2  A    between atoms: O_2  and  C_3
REMARK    3  A    between atoms: C_5  and  N_6
REMARK    4  A    between atoms: N_6  and  C_7
REMARK    5  A    between atoms: N_10  and  C_11
REMARK    6  A    between atoms: N_10  and  C_12
REMARK    7  A    between atoms: C_15  and  N_16
REMARK    8  A    between atoms: C_22  and  O_23
REMARK    9  A    between atoms: O_23  and  C_24
REMARK   10  A    between atoms: C_25  and  O_26
REMARK   11  A    between atoms: O_26  and  C_27
REMARK                            x       y       z     vdW  Elec       q    Type
REMARK                         _______ _______ _______ _____ _____    ______ ____
ROOT
ATOM      1  N   UNL     1       0.924   9.383  20.770  0.00  0.00    +0.000 N 
ATOM      2  C   UNL     1       0.665   9.279  22.214  0.00  0.00    +0.000 C 
ATOM      3  C   UNL     1       1.481   8.267  20.158  0.00  0.00    +0.000 C 
ATOM      4  O   UNL     1       1.664   7.255  20.857  0.00  0.00    +0.000 OA
ATOM      5  N   UNL     1       1.897   8.282  18.826  0.00  0.00    +0.000 N 
ATOM      6  C   UNL     1       1.823   9.349  17.824  0.00  0.00    +0.000 C 
ENDROOT
BRANCH   1   9
ATOM      7  C   UNL     1      -1.174  12.094  19.373  0.00  0.00    +0.000 A 
ATOM      8  C   UNL     1      -0.727  10.813  19.743  0.00  0.00    +0.000 A 
ATOM      9  C   UNL     1       0.567  10.619  20.218  0.00  0.00    +0.000 A 
ATOM     10  C   UNL     1       1.429  11.711  20.307  0.00  0.00    +0.000 A 
ATOM     11  C   UNL     1       1.035  12.980  19.852  0.00  0.00    +0.000 A 
ATOM     12  C   UNL     1      -0.277  13.184  19.363  0.00  0.00    +0.000 A 
BRANCH   7  14
ATOM     13  C   UNL     1      -2.948  11.399  17.972  0.00  0.00    +0.000 C 
ATOM     14  O   UNL     1      -2.485  12.273  19.006  0.00  0.00    +0.000 OA
ENDBRANCH   7  14
BRANCH  11  15
ATOM     15  O   UNL     1       2.053  13.891  19.989  0.00  0.00    +0.000 OA
ATOM     16  C   UNL     1       3.032  14.020  18.969  0.00  0.00    +0.000 C 
ENDBRANCH  11  15
BRANCH  12  17
ATOM     17  O   UNL     1      -0.549  14.449  18.919  0.00  0.00    +0.000 OA
ATOM     18  C   UNL     1      -0.920  15.491  19.802  0.00  0.00    +0.000 C 
ENDBRANCH  12  17
ENDBRANCH   1   9
BRANCH   5  19
ATOM     19  C   UNL     1       2.579   7.119  18.335  0.00  0.00    +0.000 A 
ATOM     20  C   UNL     1       1.965   5.859  18.402  0.00  0.00    +0.000 A 
ATOM     21  C   UNL     1       2.613   4.727  17.900  0.00  0.00    +0.000 A 
ATOM     22  C   UNL     1       3.896   4.850  17.355  0.00  0.00    +0.000 A 
ATOM     23  C   UNL     1       4.525   6.101  17.286  0.00  0.00    +0.000 A 
ATOM     24  C   UNL     1       3.855   7.233  17.763  0.00  0.00    +0.000 A 
BRANCH  22  25
ATOM     25  N   UNL     1       4.594   3.658  16.854  0.00  0.00    +0.000 N 
ATOM     26  O   UNL     1       5.553   3.830  16.090  0.00  0.00    +0.000 OA
ATOM     27  O   UNL     1       4.186   2.549  17.230  0.00  0.00    +0.000 OA
ENDBRANCH  22  25
ENDBRANCH   5  19
TORSDOF 6
ENDMDL
MODEL 3
REMARK VINA RESULT:      -6.8      2.788      8.769
REMARK  Name = 
REMARK  11 active torsions:
REMARK  status: ('A' for Active; 'I' for Inactive)
REMARK    1  A    between atoms: C_1  and  O_2
REMARK    2  A    between atoms: O_2  and  C_3
REMARK    3  A    between atoms: C_5  and  N_6
REMARK    4  A    between atoms: N_6  and  C_7
REMARK    5  A    between atoms: N_10  and  C_11
REMARK    6  A    between atoms: N_10  and  C_12
REMARK    7  A    between atoms: C_15  and  N_16
REMARK    8  A    between atoms: C_22  and  O_23
REMARK    9  A    between atoms: O_23  and  C_24
REMARK   10  A    between atoms: C_25  and  O_26
REMARK   11  A    between atoms: O_26  and  C_27
REMARK                            x       y       z     vdW  Elec       q    Type
REMARK                         _______ _______ _______ _____ _____    ______ ____
ROOT
ATOM      1  N   UNL     1       0.950   9.401  20.791  0.00  0.00    +0.000 N 
ATOM      2  C   UNL     1       0.727   9.314  22.242  0.00  0.00    +0.000 C 
ATOM      3  C   UNL     1       1.497   8.280  20.179  0.00  0.00    +0.000 C 
ATOM      4  O   UNL     1       1.702   7.277  20.886  0.00  0.00    +0.000 OA
ATOM      5  N   UNL     1       1.880   8.279  18.838  0.00  0.00    +0.000 N 
ATOM      6  C   UNL     1       1.776   9.334  17.824  0.00  0.00    +0.000 C 
ENDROOT
BRANCH   1   9
ATOM      7  C   UNL     1      -1.198  12.100  19.448  0.00  0.00    +0.000 A 
ATOM      8  C   UNL     1      -0.742  10.823  19.822  0.00  0.00    +0.000 A 
ATOM      9  C   UNL     1       0.574  10.628  20.232  0.00  0.00    +0.000 A 
ATOM     10  C   UNL     1       1.448  11.714  20.253  0.00  0.00    +0.000 A 
ATOM     11  C   UNL     1       1.041  12.976  19.792  0.00  0.00    +0.000 A 
ATOM     12  C   UNL     1      -0.294  13.182  19.368  0.00  0.00    +0.000 A 
BRANCH   7  14
ATOM     13  C   UNL     1      -3.351  12.648  20.259  0.00  0.00    +0.000 C 
ATOM     14  O   UNL     1      -2.525  12.283  19.148  0.00  0.00    +0.000 OA
ENDBRANCH   7  14
BRANCH  11  15
ATOM     15  O   UNL     1       2.072  13.882  19.856  0.00  0.00    +0.000 OA
ATOM     16  C   UNL     1       3.033  13.936  18.813  0.00  0.00    +0.000 C 
ENDBRANCH  11  15
BRANCH  12  17
ATOM     17  O   UNL     1      -0.580  14.440  18.912  0.00  0.00    +0.000 OA
ATOM     18  C   UNL     1      -0.865  15.511  19.793  0.00  0.00    +0.000 C 
ENDBRANCH  12  17
ENDBRANCH   1   9
BRANCH   5  19
ATOM     19  C   UNL     1       2.555   7.113  18.345  0.00  0.00    +0.000 A 
ATOM     20  C   UNL     1       3.897   7.190  17.945  0.00  0.00    +0.000 A 
ATOM     21  C   UNL     1       4.568   6.051  17.490  0.00  0.00    +0.000 A 
ATOM     22  C   UNL     1       3.884   4.833  17.406  0.00  0.00    +0.000 A 
ATOM     23  C   UNL     1       2.541   4.741  17.797  0.00  0.00    +0.000 A 
ATOM     24  C   UNL     1       1.887   5.880  18.280  0.00  0.00    +0.000 A 
BRANCH  22  25
ATOM     25  N   UNL     1       4.575   3.640  16.900  0.00  0.00    +0.000 N 
ATOM     26  O   UNL     1       5.506   3.808  16.101  0.00  0.00    +0.000 OA
ATOM     27  O   UNL     1       4.189   2.533  17.305  0.00  0.00    +0.000 OA
ENDBRANCH  22  25
ENDBRANCH   5  19
TORSDOF 6
ENDMDL
MODEL 4
REMARK VINA RESULT:      -6.7      2.878      8.948
REMARK  Name = 
REMARK  11 active torsions:
REMARK  status: ('A' for Active; 'I' for Inactive)
REMARK    1  A    between atoms: C_1  and  O_2
REMARK    2  A    between atoms: O_2  and  C_3
REMARK    3  A    between atoms: C_5  and  N_6
REMARK    4  A    between atoms: N_6  and  C_7
REMARK    5  A    between atoms: N_10  and  C_11
REMARK    6  A    between atoms: N_10  and  C_12
REMARK    7  A    between atoms: C_15  and  N_16
REMARK    8  A    between atoms: C_22  and  O_23
REMARK    9  A    between atoms: O_23  and  C_24
REMARK   10  A    between atoms: C_25  and  O_26
REMARK   11  A    between atoms: O_26  and  C_27
REMARK                            x       y       z     vdW  Elec       q    Type
REMARK                         _______ _______ _______ _____ _____    ______ ____
ROOT
ATOM      1  N   UNL     1       0.915   9.406  20.805  0.00  0.00    +0.000 N 
ATOM      2  C   UNL     1       0.617   9.259  22.238  0.00  0.00    +0.000 C 
ATOM      3  C   UNL     1       1.455   8.295  20.168  0.00  0.00    +0.000 C 
ATOM      4  O   UNL     1       1.591   7.255  20.835  0.00  0.00    +0.000 OA
ATOM      5  N   UNL     1       1.904   8.344  18.848  0.00  0.00    +0.000 N 
ATOM      6  C   UNL     1       1.886   9.447  17.883  0.00  0.00    +0.000 C 
ENDROOT
BRANCH   1   9
ATOM      7  C   UNL     1       1.360  12.895  19.655  0.00  0.00    +0.000 A 
ATOM      8  C   UNL     1       1.560  11.684  20.341  0.00  0.00    +0.000 A 
ATOM      9  C   UNL     1       0.608  10.670  20.289  0.00  0.00    +0.000 A 
ATOM     10  C   UNL     1      -0.564  10.873  19.561  0.00  0.00    +0.000 A 
ATOM     11  C   UNL     1      -0.827  12.109  18.949  0.00  0.00    +0.000 A 
ATOM     12  C   UNL     1       0.134  13.148  19.001  0.00  0.00    +0.000 A 
BRANCH   7  14
ATOM     13  C   UNL     1       2.899  14.168  20.921  0.00  0.00    +0.000 C 
ATOM     14  O   UNL     1       2.360  13.836  19.637  0.00  0.00    +0.000 OA
ENDBRANCH   7  14
BRANCH  11  15
ATOM     15  O   UNL     1      -2.053  12.103  18.332  0.00  0.00    +0.000 OA
ATOM     16  C   UNL     1      -2.300  11.212  17.254  0.00  0.00    +0.000 C 
ENDBRANCH  11  15
BRANCH  12  17
ATOM     17  O   UNL     1      -0.233  14.319  18.398  0.00  0.00    +0.000 OA
ATOM     18  C   UNL     1      -0.458  15.505  19.138  0.00  0.00    +0.000 C 
ENDBRANCH  12  17
ENDBRANCH   1   9
BRANCH   5  19
ATOM     19  C   UNL     1       2.565   7.179  18.333  0.00  0.00    +0.000 A 
ATOM     20  C   UNL     1       3.876   7.269  17.842  0.00  0.00    +0.000 A 
ATOM     21  C   UNL     1       4.533   6.132  17.364  0.00  0.00    +0.000 A 
ATOM     22  C   UNL     1       3.867   4.902  17.350  0.00  0.00    +0.000 A 
ATOM     23  C   UNL     1       2.555   4.796  17.833  0.00  0.00    +0.000 A 
ATOM     24  C   UNL     1       1.915   5.934  18.337  0.00  0.00    +0.000 A 
BRANCH  22  25
ATOM     25  N   UNL     1       4.543   3.710  16.821  0.00  0.00    +0.000 N 
ATOM     26  O   UNL     1       4.209   2.608  17.276  0.00  0.00    +0.000 OA
ATOM     27  O   UNL     1       5.406   3.876  15.946  0.00  0.00    +0.000 OA
ENDBRANCH  22  25
ENDBRANCH   5  19
TORSDOF 6
ENDMDL
MODEL 5
REMARK VINA RESULT:      -6.6      2.917      8.942
REMARK  Name = 
REMARK  11 active torsions:
REMARK  status: ('A' for Active; 'I' for Inactive)
REMARK    1  A    between atoms: C_1  and  O_2
REMARK    2  A    between atoms: O_2  and  C_3
REMARK    3  A    between atoms: C_5  and  N_6
REMARK    4  A    between atoms: N_6  and  C_7
REMARK    5  A    between atoms: N_10  and  C_11
REMARK    6  A    between atoms: N_10  and  C_12
REMARK    7  A    between atoms: C_15  and  N_16
REMARK    8  A    between atoms: C_22  and  O_23
REMARK    9  A    between atoms: O_23  and  C_24
REMARK   10  A    between atoms: C_25  and  O_26
REMARK   11  A    between atoms: O_26  and  C_27
REMARK                            x       y       z     vdW  Elec       q    Type
REMARK                         _______ _______ _______ _____ _____    ______ ____
ROOT
ATOM      1  N   UNL     1       0.888   9.506  20.787  0.00  0.00    +0.000 N 
ATOM      2  C   UNL     1       0.580   9.374  22.219  0.00  0.00    +0.000 C 
ATOM      3  C   UNL     1       1.433   8.390  20.165  0.00  0.00    +0.000 C 
ATOM      4  O   UNL     1       1.565   7.356  20.843  0.00  0.00    +0.000 OA
ATOM      5  N   UNL     1       1.890   8.425  18.847  0.00  0.00    +0.000 N 
ATOM      6  C   UNL     1       1.878   9.519  17.871  0.00  0.00    +0.000 C 
ENDROOT
BRANCH   1   9
ATOM      7  C   UNL     1       1.314  13.018  19.698  0.00  0.00    +0.000 A 
ATOM      8  C   UNL     1       1.496  11.807  20.390  0.00  0.00    +0.000 A 
ATOM      9  C   UNL     1       0.583  10.765  20.257  0.00  0.00    +0.000 A 
ATOM     10  C   UNL     1      -0.533  10.939  19.439  0.00  0.00    +0.000 A 
ATOM     11  C   UNL     1      -0.785  12.172  18.816  0.00  0.00    +0.000 A 
ATOM     12  C   UNL     1       0.136  13.239  18.951  0.00  0.00    +0.000 A 
BRANCH   7  14
ATOM     13  C   UNL     1       3.235  13.967  18.698  0.00  0.00    +0.000 C 
ATOM     14  O   UNL     1       2.282  13.989  19.766  0.00  0.00    +0.000 OA
ENDBRANCH   7  14
BRANCH  11  15
ATOM     15  O   UNL     1      -1.958  12.134  18.103  0.00  0.00    +0.000 OA
ATOM     16  C   UNL     1      -2.835  11.026  18.241  0.00  0.00    +0.000 C 
ENDBRANCH  11  15
BRANCH  12  17
ATOM     17  O   UNL     1      -0.218  14.404  18.328  0.00  0.00    +0.000 OA
ATOM     18  C   UNL     1      -0.443  15.601  19.049  0.00  0.00    +0.000 C 
ENDBRANCH  12  17
ENDBRANCH   1   9
BRANCH   5  19
ATOM     19  C   UNL     1       2.554   7.255  18.348  0.00  0.00    +0.000 A 
ATOM     20  C   UNL     1       1.925   6.004  18.413  0.00  0.00    +0.000 A 
ATOM     21  C   UNL     1       2.556   4.865  17.904  0.00  0.00    +0.000 A 
ATOM     22  C   UNL     1       3.837   4.973  17.352  0.00  0.00    +0.000 A 
ATOM     23  C   UNL     1       4.482   6.217  17.284  0.00  0.00    +0.000 A 
ATOM     24  C   UNL     1       3.829   7.356  17.769  0.00  0.00    +0.000 A 
BRANCH  22  25
ATOM     25  N   UNL     1       4.517   3.775  16.843  0.00  0.00    +0.000 N 
ATOM     26  O   UNL     1       4.163   2.677  17.291  0.00  0.00    +0.000 OA
ATOM     27  O   UNL     1       5.404   3.933  15.990  0.00  0.00    +0.000 OA
ENDBRANCH  22  25
ENDBRANCH   5  19
TORSDOF 6
ENDMDL
MODEL 6
REMARK VINA RESULT:      -6.6      3.209      4.408
REMARK  Name = 
REMARK  11 active torsions:
REMARK  status: ('A' for Active; 'I' for Inactive)
REMARK    1  A    between atoms: C_1  and  O_2
REMARK    2  A    between atoms: O_2  and  C_3
REMARK    3  A    between atoms: C_5  and  N_6
REMARK    4  A    between atoms: N_6  and  C_7
REMARK    5  A    between atoms: N_10  and  C_11
REMARK    6  A    between atoms: N_10  and  C_12
REMARK    7  A    between atoms: C_15  and  N_16
REMARK    8  A    between atoms: C_22  and  O_23
REMARK    9  A    between atoms: O_23  and  C_24
REMARK   10  A    between atoms: C_25  and  O_26
REMARK   11  A    between atoms: O_26  and  C_27
REMARK                            x       y       z     vdW  Elec       q    Type
REMARK                         _______ _______ _______ _____ _____    ______ ____
ROOT
ATOM      1  N   UNL     1       3.357   4.165  17.531  0.00  0.00    +0.000 N 
ATOM      2  C   UNL     1       2.747   2.831  17.636  0.00  0.00    +0.000 C 
ATOM      3  C   UNL     1       2.713   5.196  18.204  0.00  0.00    +0.000 C 
ATOM      4  O   UNL     1       1.712   4.907  18.884  0.00  0.00    +0.000 OA
ATOM      5  N   UNL     1       3.111   6.527  18.078  0.00  0.00    +0.000 N 
ATOM      6  C   UNL     1       4.219   7.115  17.318  0.00  0.00    +0.000 C 
ENDROOT
BRANCH   1   9
ATOM      7  C   UNL     1       5.534   4.369  14.544  0.00  0.00    +0.000 A 
ATOM      8  C   UNL     1       4.413   4.135  15.362  0.00  0.00    +0.000 A 
ATOM      9  C   UNL     1       4.517   4.198  16.748  0.00  0.00    +0.000 A 
ATOM     10  C   UNL     1       5.754   4.479  17.326  0.00  0.00    +0.000 A 
ATOM     11  C   UNL     1       6.904   4.620  16.533  0.00  0.00    +0.000 A 
ATOM     12  C   UNL     1       6.809   4.552  15.122  0.00  0.00    +0.000 A 
BRANCH   7  14
ATOM     13  C   UNL     1       5.576   3.149  12.519  0.00  0.00    +0.000 C 
ATOM     14  O   UNL     1       5.381   4.403  13.180  0.00  0.00    +0.000 OA
ENDBRANCH   7  14
BRANCH  11  15
ATOM     15  O   UNL     1       8.015   4.843  17.310  0.00  0.00    +0.000 OA
ATOM     16  C   UNL     1       7.873   5.403  18.606  0.00  0.00    +0.000 C 
ENDBRANCH  11  15
BRANCH  12  17
ATOM     17  O   UNL     1       7.992   4.673  14.446  0.00  0.00    +0.000 OA
ATOM     18  C   UNL     1       8.146   5.567  13.359  0.00  0.00    +0.000 C 
ENDBRANCH  12  17
ENDBRANCH   1   9
BRANCH   5  19
ATOM     19  C   UNL     1       2.295   7.523  18.711  0.00  0.00    +0.000 A 
ATOM     20  C   UNL     1       2.055   7.466  20.092  0.00  0.00    +0.000 A 
ATOM     21  C   UNL     1       1.283   8.449  20.718  0.00  0.00    +0.000 A 
ATOM     22  C   UNL     1       0.723   9.479  19.955  0.00  0.00    +0.000 A 
ATOM     23  C   UNL     1       0.949   9.547  18.573  0.00  0.00    +0.000 A 
ATOM     24  C   UNL     1       1.748   8.575  17.960  0.00  0.00    +0.000 A 
BRANCH  22  25
ATOM     25  N   UNL     1      -0.114  10.497  20.603  0.00  0.00    +0.000 N 
ATOM     26  O   UNL     1      -0.119  10.537  21.841  0.00  0.00    +0.000 OA
ATOM     27  O   UNL     1      -0.764  11.261  19.873  0.00  0.00    +0.000 OA
ENDBRANCH  22  25
ENDBRANCH   5  19
TORSDOF 6
ENDMDL
MODEL 7
REMARK VINA RESULT:      -6.6      2.275      3.729
REMARK  Name = 
REMARK  11 active torsions:
REMARK  status: ('A' for Active; 'I' for Inactive)
REMARK    1  A    between atoms: C_1  and  O_2
REMARK    2  A    between atoms: O_2  and  C_3
REMARK    3  A    between atoms: C_5  and  N_6
REMARK    4  A    between atoms: N_6  and  C_7
REMARK    5  A    between atoms: N_10  and  C_11
REMARK    6  A    between atoms: N_10  and  C_12
REMARK    7  A    between atoms: C_15  and  N_16
REMARK    8  A    between atoms: C_22  and  O_23
REMARK    9  A    between atoms: O_23  and  C_24
REMARK   10  A    between atoms: C_25  and  O_26
REMARK   11  A    between atoms: O_26  and  C_27
REMARK                            x       y       z     vdW  Elec       q    Type
REMARK                         _______ _______ _______ _____ _____    ______ ____
ROOT
ATOM      1  N   UNL     1       2.204   6.542  20.003  0.00  0.00    +0.000 N 
ATOM      2  C   UNL     1       2.015   5.624  21.136  0.00  0.00    +0.000 C 
ATOM      3  C   UNL     1       1.624   7.799  20.121  0.00  0.00    +0.000 C 
ATOM      4  O   UNL     1       1.045   8.071  21.188  0.00  0.00    +0.000 OA
ATOM      5  N   UNL     1       1.617   8.714  19.068  0.00  0.00    +0.000 N 
ATOM      6  C   UNL     1       2.192   8.613  17.723  0.00  0.00    +0.000 C 
ENDROOT
BRANCH   1   9
ATOM      7  C   UNL     1       5.068   5.862  17.759  0.00  0.00    +0.000 A 
ATOM      8  C   UNL     1       4.213   6.512  18.668  0.00  0.00    +0.000 A 
ATOM      9  C   UNL     1       2.951   5.999  18.952  0.00  0.00    +0.000 A 
ATOM     10  C   UNL     1       2.529   4.835  18.310  0.00  0.00    +0.000 A 
ATOM     11  C   UNL     1       3.327   4.225  17.328  0.00  0.00    +0.000 A 
ATOM     12  C   UNL     1       4.610   4.743  17.029  0.00  0.00    +0.000 A 
BRANCH   7  14
ATOM     13  C   UNL     1       7.331   5.750  18.434  0.00  0.00    +0.000 C 
ATOM     14  O   UNL     1       6.345   6.332  17.576  0.00  0.00    +0.000 OA
ENDBRANCH   7  14
BRANCH  11  15
ATOM     15  O   UNL     1       2.698   3.127  16.794  0.00  0.00    +0.000 OA
ATOM     16  C   UNL     1       2.373   2.022  17.625  0.00  0.00    +0.000 C 
ENDBRANCH  11  15
BRANCH  12  17
ATOM     17  O   UNL     1       5.291   4.092  16.038  0.00  0.00    +0.000 OA
ATOM     18  C   UNL     1       5.401   4.621  14.730  0.00  0.00    +0.000 C 
ENDBRANCH  12  17
ENDBRANCH   1   9
BRANCH   5  19
ATOM     19  C   UNL     1       0.876   9.929  19.255  0.00  0.00    +0.000 A 
ATOM     20  C   UNL     1       1.412  10.972  20.025  0.00  0.00    +0.000 A 
ATOM     21  C   UNL     1       0.707  12.167  20.188  0.00  0.00    +0.000 A 
ATOM     22  C   UNL     1      -0.555  12.312  19.601  0.00  0.00    +0.000 A 
ATOM     23  C   UNL     1      -1.106  11.277  18.832  0.00  0.00    +0.000 A 
ATOM     24  C   UNL     1      -0.379  10.095  18.650  0.00  0.00    +0.000 A 
BRANCH  22  25
ATOM     25  N   UNL     1      -1.313  13.555  19.794  0.00  0.00    +0.000 N 
ATOM     26  O   UNL     1      -2.451  13.467  20.274  0.00  0.00    +0.000 OA
ATOM     27  O   UNL     1      -0.767  14.620  19.470  0.00  0.00    +0.000 OA
ENDBRANCH  22  25
ENDBRANCH   5  19
TORSDOF 6
ENDMDL
MODEL 8
REMARK VINA RESULT:      -6.6      2.330      3.727
REMARK  Name = 
REMARK  11 active torsions:
REMARK  status: ('A' for Active; 'I' for Inactive)
REMARK    1  A    between atoms: C_1  and  O_2
REMARK    2  A    between atoms: O_2  and  C_3
REMARK    3  A    between atoms: C_5  and  N_6
REMARK    4  A    between atoms: N_6  and  C_7
REMARK    5  A    between atoms: N_10  and  C_11
REMARK    6  A    between atoms: N_10  and  C_12
REMARK    7  A    between atoms: C_15  and  N_16
REMARK    8  A    between atoms: C_22  and  O_23
REMARK    9  A    between atoms: O_23  and  C_24
REMARK   10  A    between atoms: C_25  and  O_26
REMARK   11  A    between atoms: O_26  and  C_27
REMARK                            x       y       z     vdW  Elec       q    Type
REMARK                         _______ _______ _______ _____ _____    ______ ____
ROOT
ATOM      1  N   UNL     1       2.157   6.801  19.930  0.00  0.00    +0.000 N 
ATOM      2  C   UNL     1       2.112   5.873  21.070  0.00  0.00    +0.000 C 
ATOM      3  C   UNL     1       1.551   8.038  20.114  0.00  0.00    +0.000 C 
ATOM      4  O   UNL     1       1.073   8.287  21.235  0.00  0.00    +0.000 OA
ATOM      5  N   UNL     1       1.409   8.956  19.073  0.00  0.00    +0.000 N 
ATOM      6  C   UNL     1       1.849   8.878  17.677  0.00  0.00    +0.000 C 
ENDROOT
BRANCH   1   9
ATOM      7  C   UNL     1       4.749   6.316  17.333  0.00  0.00    +0.000 A 
ATOM      8  C   UNL     1       3.957   6.917  18.328  0.00  0.00    +0.000 A 
ATOM      9  C   UNL     1       2.812   6.286  18.806  0.00  0.00    +0.000 A 
ATOM     10  C   UNL     1       2.443   5.052  18.274  0.00  0.00    +0.000 A 
ATOM     11  C   UNL     1       3.165   4.479  17.214  0.00  0.00    +0.000 A 
ATOM     12  C   UNL     1       4.328   5.117  16.718  0.00  0.00    +0.000 A 
BRANCH   7  14
ATOM     13  C   UNL     1       7.058   6.584  17.770  0.00  0.00    +0.000 C 
ATOM     14  O   UNL     1       5.928   6.910  16.955  0.00  0.00    +0.000 OA
ENDBRANCH   7  14
BRANCH  11  15
ATOM     15  O   UNL     1       2.599   3.292  16.816  0.00  0.00    +0.000 OA
ATOM     16  C   UNL     1       2.496   2.214  17.733  0.00  0.00    +0.000 C 
ENDBRANCH  11  15
BRANCH  12  17
ATOM     17  O   UNL     1       4.939   4.491  15.667  0.00  0.00    +0.000 OA
ATOM     18  C   UNL     1       6.042   3.622  15.849  0.00  0.00    +0.000 C 
ENDBRANCH  12  17
ENDBRANCH   1   9
BRANCH   5  19
ATOM     19  C   UNL     1       0.652  10.145  19.341  0.00  0.00    +0.000 A 
ATOM     20  C   UNL     1      -0.724  10.183  19.068  0.00  0.00    +0.000 A 
ATOM     21  C   UNL     1      -1.471  11.329  19.352  0.00  0.00    +0.000 A 
ATOM     22  C   UNL     1      -0.835  12.455  19.888  0.00  0.00    +0.000 A 
ATOM     23  C   UNL     1       0.539  12.434  20.162  0.00  0.00    +0.000 A 
ATOM     24  C   UNL     1       1.274  11.271  19.902  0.00  0.00    +0.000 A 
BRANCH  22  25
ATOM     25  N   UNL     1      -1.610  13.672  20.160  0.00  0.00    +0.000 N 
ATOM     26  O   UNL     1      -1.032  14.762  20.047  0.00  0.00    +0.000 OA
ATOM     27  O   UNL     1      -2.800  13.539  20.483  0.00  0.00    +0.000 OA
ENDBRANCH  22  25
ENDBRANCH   5  19
TORSDOF 6
ENDMDL
MODEL 9
REMARK VINA RESULT:      -6.5      1.267      1.455
REMARK  Name = 
REMARK  11 active torsions:
REMARK  status: ('A' for Active; 'I' for Inactive)
REMARK    1  A    between atoms: C_1  and  O_2
REMARK    2  A    between atoms: O_2  and  C_3
REMARK    3  A    between atoms: C_5  and  N_6
REMARK    4  A    between atoms: N_6  and  C_7
REMARK    5  A    between atoms: N_10  and  C_11
REMARK    6  A    between atoms: N_10  and  C_12
REMARK    7  A    between atoms: C_15  and  N_16
REMARK    8  A    between atoms: C_22  and  O_23
REMARK    9  A    between atoms: O_23  and  C_24
REMARK   10  A    between atoms: C_25  and  O_26
REMARK   11  A    between atoms: O_26  and  C_27
REMARK                            x       y       z     vdW  Elec       q    Type
REMARK                         _______ _______ _______ _____ _____    ______ ____
ROOT
ATOM      1  N   UNL     1       3.274   7.356  17.660  0.00  0.00    +0.000 N 
ATOM      2  C   UNL     1       3.985   7.661  16.409  0.00  0.00    +0.000 C 
ATOM      3  C   UNL     1       2.362   8.307  18.102  0.00  0.00    +0.000 C 
ATOM      4  O   UNL     1       2.175   9.306  17.385  0.00  0.00    +0.000 OA
ATOM      5  N   UNL     1       1.720   8.202  19.336  0.00  0.00    +0.000 N 
ATOM      6  C   UNL     1       1.802   7.155  20.358  0.00  0.00    +0.000 C 
ENDROOT
BRANCH   1   9
ATOM      7  C   UNL     1       3.237   3.739  18.446  0.00  0.00    +0.000 A 
ATOM      8  C   UNL     1       2.809   5.023  18.061  0.00  0.00    +0.000 A 
ATOM      9  C   UNL     1       3.633   6.131  18.233  0.00  0.00    +0.000 A 
ATOM     10  C   UNL     1       4.890   5.961  18.812  0.00  0.00    +0.000 A 
ATOM     11  C   UNL     1       5.298   4.705  19.292  0.00  0.00    +0.000 A 
ATOM     12  C   UNL     1       4.464   3.574  19.125  0.00  0.00    +0.000 A 
BRANCH   7  14
ATOM     13  C   UNL     1       1.213   2.601  18.894  0.00  0.00    +0.000 C 
ATOM     14  O   UNL     1       2.447   2.651  18.170  0.00  0.00    +0.000 OA
ENDBRANCH   7  14
BRANCH  11  15
ATOM     15  O   UNL     1       6.544   4.778  19.864  0.00  0.00    +0.000 OA
ATOM     16  C   UNL     1       7.522   5.656  19.327  0.00  0.00    +0.000 C 
ENDBRANCH  11  15
BRANCH  12  17
ATOM     17  O   UNL     1       4.943   2.407  19.653  0.00  0.00    +0.000 OA
ATOM     18  C   UNL     1       4.450   1.875  20.869  0.00  0.00    +0.000 C 
ENDBRANCH  12  17
ENDBRANCH   1   9
BRANCH   5  19
ATOM     19  C   UNL     1       0.900   9.305  19.749  0.00  0.00    +0.000 A 
ATOM     20  C   UNL     1       1.027   9.835  21.042  0.00  0.00    +0.000 A 
ATOM     21  C   UNL     1       0.251  10.926  21.440  0.00  0.00    +0.000 A 
ATOM     22  C   UNL     1      -0.680  11.474  20.550  0.00  0.00    +0.000 A 
ATOM     23  C   UNL     1      -0.822  10.953  19.257  0.00  0.00    +0.000 A 
ATOM     24  C   UNL     1      -0.019   9.879  18.857  0.00  0.00    +0.000 A 
BRANCH  22  25
ATOM     25  N   UNL     1      -1.520  12.602  20.974  0.00  0.00    +0.000 N 
ATOM     26  O   UNL     1      -1.030  13.422  21.763  0.00  0.00    +0.000 OA
ATOM     27  O   UNL     1      -2.670  12.671  20.514  0.00  0.00    +0.000 OA
ENDBRANCH  22  25
ENDBRANCH   5  19
TORSDOF 6
ENDMDL
