MODEL 1
REMARK VINA RESULT:      -8.3      0.000      0.000
REMARK  Name = 
REMARK  5 active torsions:
REMARK  status: ('A' for Active; 'I' for Inactive)
REMARK    1  A    between atoms: C_1  and  C_2
REMARK    2  A    between atoms: C_4  and  C_5
REMARK    3  A    between atoms: C_7  and  C_9
REMARK    4  A    between atoms: C_9  and  C_10
REMARK    5  A    between atoms: C_10  and  C_11
REMARK                            x       y       z     vdW  Elec       q    Type
REMARK                         _______ _______ _______ _____ _____    ______ ____
ROOT
ATOM      1  C   UNL     1       4.696   4.983  16.657  0.00  0.00    +0.000 C 
ENDROOT
BRANCH   1   2
ATOM      2  C   UNL     1       4.847   5.779  17.979  0.00  0.00    +0.000 C 
ATOM      3  C   UNL     1       5.729   4.987  18.948  0.00  0.00    +0.000 C 
ATOM      4  O   UNL     1       5.146   3.682  19.115  0.00  0.00    +0.000 OA
ATOM      5  C   UNL     1       3.839   3.823  19.524  0.00  0.00    +0.000 A 
ATOM      6  C   UNL     1       3.202   2.706  20.046  0.00  0.00    +0.000 A 
ATOM      7  C   UNL     1       1.997   2.870  20.727  0.00  0.00    +0.000 A 
ATOM      8  C   UNL     1       1.464   4.151  20.899  0.00  0.00    +0.000 A 
ATOM      9  C   UNL     1       2.031   5.240  20.232  0.00  0.00    +0.000 A 
ATOM     10  C   UNL     1       3.173   5.050  19.462  0.00  0.00    +0.000 A 
ATOM     11  O   UNL     1       3.602   6.077  18.650  0.00  0.00    +0.000 OA
ENDBRANCH   1   2
BRANCH   1  12
ATOM     12  C   UNL     1       5.880   4.111  16.254  0.00  0.00    +0.000 C 
BRANCH  12  19
ATOM     13  C   UNL     1       5.349   2.285  11.544  0.00  0.00    +0.000 C 
ATOM     14  C   UNL     1       6.124   3.300  12.293  0.00  0.00    +0.000 A 
ATOM     15  C   UNL     1       7.098   4.193  11.800  0.00  0.00    +0.000 A 
ATOM     16  C   UNL     1       7.508   4.924  12.883  0.00  0.00    +0.000 A 
ATOM     17  C   UNL     1       8.510   6.023  12.948  0.00  0.00    +0.000 C 
ATOM     18  N   UNL     1       6.787   4.457  13.979  0.00  0.00    +0.000 N 
ATOM     19  C   UNL     1       6.822   4.875  15.324  0.00  0.00    +0.000 C 
ATOM     20  O   UNL     1       7.557   5.802  15.663  0.00  0.00    +0.000 OA
ATOM     21  N   UNL     1       5.934   3.459  13.606  0.00  0.00    +0.000 NA
ENDBRANCH  12  19
ENDBRANCH   1  12
TORSDOF 3
ENDMDL
MODEL 2
REMARK VINA RESULT:      -8.0      2.371      7.123
REMARK  Name = 
REMARK  5 active torsions:
REMARK  status: ('A' for Active; 'I' for Inactive)
REMARK    1  A    between atoms: C_1  and  C_2
REMARK    2  A    between atoms: C_4  and  C_5
REMARK    3  A    between atoms: C_7  and  C_9
REMARK    4  A    between atoms: C_9  and  C_10
REMARK    5  A    between atoms: C_10  and  C_11
REMARK                            x       y       z     vdW  Elec       q    Type
REMARK                         _______ _______ _______ _____ _____    ______ ____
ROOT
ATOM      1  C   UNL     1       6.639   4.660  17.575  0.00  0.00    +0.000 C 
ENDROOT
BRANCH   1   2
ATOM      2  C   UNL     1       6.718   5.888  16.632  0.00  0.00    +0.000 C 
ATOM      3  C   UNL     1       5.319   6.208  16.099  0.00  0.00    +0.000 C 
ATOM      4  O   UNL     1       4.802   5.020  15.469  0.00  0.00    +0.000 OA
ATOM      5  C   UNL     1       5.692   4.597  14.509  0.00  0.00    +0.000 A 
ATOM      6  C   UNL     1       5.245   3.672  13.577  0.00  0.00    +0.000 A 
ATOM      7  C   UNL     1       6.009   3.438  12.434  0.00  0.00    +0.000 A 
ATOM      8  C   UNL     1       7.192   4.154  12.230  0.00  0.00    +0.000 A 
ATOM      9  C   UNL     1       7.707   4.960  13.248  0.00  0.00    +0.000 A 
ATOM     10  C   UNL     1       6.994   5.103  14.433  0.00  0.00    +0.000 A 
ATOM     11  O   UNL     1       7.601   5.726  15.500  0.00  0.00    +0.000 OA
ENDBRANCH   1   2
BRANCH   1  12
ATOM     12  C   UNL     1       6.126   4.923  18.987  0.00  0.00    +0.000 C 
BRANCH  12  19
ATOM     13  C   UNL     1       1.941   7.650  19.907  0.00  0.00    +0.000 C 
ATOM     14  C   UNL     1       2.403   6.243  19.881  0.00  0.00    +0.000 A 
ATOM     15  C   UNL     1       1.660   5.076  20.153  0.00  0.00    +0.000 A 
ATOM     16  C   UNL     1       2.535   4.036  19.986  0.00  0.00    +0.000 A 
ATOM     17  C   UNL     1       2.294   2.574  20.127  0.00  0.00    +0.000 C 
ATOM     18  N   UNL     1       3.760   4.595  19.629  0.00  0.00    +0.000 N 
ATOM     19  C   UNL     1       4.986   3.966  19.334  0.00  0.00    +0.000 C 
ATOM     20  O   UNL     1       5.068   2.738  19.350  0.00  0.00    +0.000 OA
ATOM     21  N   UNL     1       3.668   5.955  19.562  0.00  0.00    +0.000 NA
ENDBRANCH  12  19
ENDBRANCH   1  12
TORSDOF 3
ENDMDL
MODEL 3
REMARK VINA RESULT:      -8.0      1.107      1.175
REMARK  Name = 
REMARK  5 active torsions:
REMARK  status: ('A' for Active; 'I' for Inactive)
REMARK    1  A    between atoms: C_1  and  C_2
REMARK    2  A    between atoms: C_4  and  C_5
REMARK    3  A    between atoms: C_7  and  C_9
REMARK    4  A    between atoms: C_9  and  C_10
REMARK    5  A    between atoms: C_10  and  C_11
REMARK                            x       y       z     vdW  Elec       q    Type
REMARK                         _______ _______ _______ _____ _____    ______ ____
ROOT
ATOM      1  C   UNL     1       5.797   4.753  17.541  0.00  0.00    +0.000 C 
ENDROOT
BRANCH   1   2
ATOM      2  C   UNL     1       4.576   5.665  17.826  0.00  0.00    +0.000 C 
ATOM      3  C   UNL     1       4.448   5.880  19.337  0.00  0.00    +0.000 C 
ATOM      4  O   UNL     1       4.371   4.587  19.965  0.00  0.00    +0.000 OA
ATOM      5  C   UNL     1       3.335   3.876  19.404  0.00  0.00    +0.000 A 
ATOM      6  C   UNL     1       2.889   2.746  20.075  0.00  0.00    +0.000 A 
ATOM      7  C   UNL     1       1.676   2.170  19.702  0.00  0.00    +0.000 A 
ATOM      8  C   UNL     1       0.916   2.750  18.682  0.00  0.00    +0.000 A 
ATOM      9  C   UNL     1       1.452   3.786  17.912  0.00  0.00    +0.000 A 
ATOM     10  C   UNL     1       2.713   4.285  18.221  0.00  0.00    +0.000 A 
ATOM     11  O   UNL     1       3.314   5.155  17.339  0.00  0.00    +0.000 OA
ENDBRANCH   1   2
BRANCH   1  12
ATOM     12  C   UNL     1       5.845   4.098  16.164  0.00  0.00    +0.000 C 
BRANCH  12  19
ATOM     13  C   UNL     1       5.301   2.321  11.437  0.00  0.00    +0.000 C 
ATOM     14  C   UNL     1       6.102   3.305  12.201  0.00  0.00    +0.000 A 
ATOM     15  C   UNL     1       7.110   4.168  11.723  0.00  0.00    +0.000 A 
ATOM     16  C   UNL     1       7.533   4.878  12.815  0.00  0.00    +0.000 A 
ATOM     17  C   UNL     1       8.570   5.943  12.898  0.00  0.00    +0.000 C 
ATOM     18  N   UNL     1       6.786   4.428  13.901  0.00  0.00    +0.000 N 
ATOM     19  C   UNL     1       6.821   4.836  15.249  0.00  0.00    +0.000 C 
ATOM     20  O   UNL     1       7.583   5.737  15.601  0.00  0.00    +0.000 OA
ATOM     21  N   UNL     1       5.904   3.462  13.513  0.00  0.00    +0.000 NA
ENDBRANCH  12  19
ENDBRANCH   1  12
TORSDOF 3
ENDMDL
MODEL 4
REMARK VINA RESULT:      -7.6      4.573      7.457
REMARK  Name = 
REMARK  5 active torsions:
REMARK  status: ('A' for Active; 'I' for Inactive)
REMARK    1  A    between atoms: C_1  and  C_2
REMARK    2  A    between atoms: C_4  and  C_5
REMARK    3  A    between atoms: C_7  and  C_9
REMARK    4  A    between atoms: C_9  and  C_10
REMARK    5  A    between atoms: C_10  and  C_11
REMARK                            x       y       z     vdW  Elec       q    Type
REMARK                         _______ _______ _______ _____ _____    ______ ____
ROOT
ATOM      1  C   UNL     1       3.240   7.096  17.822  0.00  0.00    +0.000 C 
ENDROOT
BRANCH   1   2
ATOM      2  C   UNL     1       4.185   6.086  18.523  0.00  0.00    +0.000 C 
ATOM      3  C   UNL     1       4.393   4.873  17.612  0.00  0.00    +0.000 C 
ATOM      4  O   UNL     1       3.098   4.334  17.286  0.00  0.00    +0.000 OA
ATOM      5  C   UNL     1       2.421   4.058  18.453  0.00  0.00    +0.000 A 
ATOM      6  C   UNL     1       1.300   3.244  18.371  0.00  0.00    +0.000 A 
ATOM      7  C   UNL     1       0.763   2.712  19.542  0.00  0.00    +0.000 A 
ATOM      8  C   UNL     1       1.372   2.980  20.771  0.00  0.00    +0.000 A 
ATOM      9  C   UNL     1       2.397   3.925  20.853  0.00  0.00    +0.000 A 
ATOM     10  C   UNL     1       2.857   4.537  19.692  0.00  0.00    +0.000 A 
ATOM     11  O   UNL     1       3.716   5.608  19.803  0.00  0.00    +0.000 OA
ENDBRANCH   1   2
BRANCH   1  12
ATOM     12  C   UNL     1       2.039   7.573  18.633  0.00  0.00    +0.000 C 
BRANCH  12  19
ATOM     13  C   UNL     1       0.003   9.459  22.886  0.00  0.00    +0.000 C 
ATOM     14  C   UNL     1       0.438   9.895  21.539  0.00  0.00    +0.000 A 
ATOM     15  C   UNL     1       0.393  11.190  20.985  0.00  0.00    +0.000 A 
ATOM     16  C   UNL     1       0.914  11.069  19.724  0.00  0.00    +0.000 A 
ATOM     17  C   UNL     1       1.125  12.119  18.690  0.00  0.00    +0.000 C 
ATOM     18  N   UNL     1       1.248   9.727  19.556  0.00  0.00    +0.000 N 
ATOM     19  C   UNL     1       1.825   9.075  18.448  0.00  0.00    +0.000 C 
ATOM     20  O   UNL     1       2.133   9.719  17.445  0.00  0.00    +0.000 OA
ATOM     21  N   UNL     1       0.955   9.012  20.680  0.00  0.00    +0.000 NA
ENDBRANCH  12  19
ENDBRANCH   1  12
TORSDOF 3
ENDMDL
MODEL 5
REMARK VINA RESULT:      -7.6      4.010      7.679
REMARK  Name = 
REMARK  5 active torsions:
REMARK  status: ('A' for Active; 'I' for Inactive)
REMARK    1  A    between atoms: C_1  and  C_2
REMARK    2  A    between atoms: C_4  and  C_5
REMARK    3  A    between atoms: C_7  and  C_9
REMARK    4  A    between atoms: C_9  and  C_10
REMARK    5  A    between atoms: C_10  and  C_11
REMARK                            x       y       z     vdW  Elec       q    Type
REMARK                         _______ _______ _______ _____ _____    ______ ____
ROOT
ATOM      1  C   UNL     1       3.337   5.251  19.918  0.00  0.00    +0.000 C 
ENDROOT
BRANCH   1   2
ATOM      2  C   UNL     1       3.247   3.992  19.018  0.00  0.00    +0.000 C 
ATOM      3  C   UNL     1       4.386   3.033  19.373  0.00  0.00    +0.000 C 
ATOM      4  O   UNL     1       5.627   3.752  19.250  0.00  0.00    +0.000 OA
ATOM      5  C   UNL     1       5.712   4.288  17.986  0.00  0.00    +0.000 A 
ATOM      6  C   UNL     1       6.952   4.740  17.557  0.00  0.00    +0.000 A 
ATOM      7  C   UNL     1       7.142   5.019  16.205  0.00  0.00    +0.000 A 
ATOM      8  C   UNL     1       6.096   4.815  15.300  0.00  0.00    +0.000 A 
ATOM      9  C   UNL     1       4.814   4.516  15.767  0.00  0.00    +0.000 A 
ATOM     10  C   UNL     1       4.606   4.347  17.132  0.00  0.00    +0.000 A 
ATOM     11  O   UNL     1       3.314   4.258  17.599  0.00  0.00    +0.000 OA
ENDBRANCH   1   2
BRANCH   1  12
ATOM     12  C   UNL     1       2.028   5.984  20.188  0.00  0.00    +0.000 C 
BRANCH  12  19
ATOM     13  C   UNL     1      -0.067   9.629  23.038  0.00  0.00    +0.000 C 
ATOM     14  C   UNL     1       0.472   9.415  21.676  0.00  0.00    +0.000 A 
ATOM     15  C   UNL     1       0.562  10.343  20.618  0.00  0.00    +0.000 A 
ATOM     16  C   UNL     1       1.136   9.660  19.579  0.00  0.00    +0.000 A 
ATOM     17  C   UNL     1       1.486  10.146  18.216  0.00  0.00    +0.000 C 
ATOM     18  N   UNL     1       1.368   8.363  20.030  0.00  0.00    +0.000 N 
ATOM     19  C   UNL     1       1.947   7.267  19.360  0.00  0.00    +0.000 C 
ATOM     20  O   UNL     1       2.359   7.396  18.207  0.00  0.00    +0.000 OA
ATOM     21  N   UNL     1       0.959   8.222  21.324  0.00  0.00    +0.000 NA
ENDBRANCH  12  19
ENDBRANCH   1  12
TORSDOF 3
ENDMDL
MODEL 6
REMARK VINA RESULT:      -7.4      2.929      6.738
REMARK  Name = 
REMARK  5 active torsions:
REMARK  status: ('A' for Active; 'I' for Inactive)
REMARK    1  A    between atoms: C_1  and  C_2
REMARK    2  A    between atoms: C_4  and  C_5
REMARK    3  A    between atoms: C_7  and  C_9
REMARK    4  A    between atoms: C_9  and  C_10
REMARK    5  A    between atoms: C_10  and  C_11
REMARK                            x       y       z     vdW  Elec       q    Type
REMARK                         _______ _______ _______ _____ _____    ______ ____
ROOT
ATOM      1  C   UNL     1       4.557   4.524  15.761  0.00  0.00    +0.000 C 
ENDROOT
BRANCH   1   2
ATOM      2  C   UNL     1       5.712   5.308  15.086  0.00  0.00    +0.000 C 
ATOM      3  C   UNL     1       6.974   4.441  15.077  0.00  0.00    +0.000 C 
ATOM      4  O   UNL     1       7.250   4.045  16.434  0.00  0.00    +0.000 OA
ATOM      5  C   UNL     1       7.341   5.170  17.221  0.00  0.00    +0.000 A 
ATOM      6  C   UNL     1       7.913   5.035  18.478  0.00  0.00    +0.000 A 
ATOM      7  C   UNL     1       8.282   6.180  19.181  0.00  0.00    +0.000 A 
ATOM      8  C   UNL     1       8.099   7.440  18.604  0.00  0.00    +0.000 A 
ATOM      9  C   UNL     1       7.379   7.566  17.413  0.00  0.00    +0.000 A 
ATOM     10  C   UNL     1       6.915   6.423  16.770  0.00  0.00    +0.000 A 
ATOM     11  O   UNL     1       6.038   6.566  15.719  0.00  0.00    +0.000 OA
ENDBRANCH   1   2
BRANCH   1  12
ATOM     12  C   UNL     1       3.976   5.135  17.032  0.00  0.00    +0.000 C 
BRANCH  12  19
ATOM     13  C   UNL     1       1.535   7.403  20.865  0.00  0.00    +0.000 C 
ATOM     14  C   UNL     1       1.817   6.050  20.334  0.00  0.00    +0.000 A 
ATOM     15  C   UNL     1       1.400   4.806  20.850  0.00  0.00    +0.000 A 
ATOM     16  C   UNL     1       1.911   3.864  19.998  0.00  0.00    +0.000 A 
ATOM     17  C   UNL     1       1.774   2.383  20.044  0.00  0.00    +0.000 C 
ATOM     18  N   UNL     1       2.613   4.554  19.012  0.00  0.00    +0.000 N 
ATOM     19  C   UNL     1       3.317   4.060  17.896  0.00  0.00    +0.000 C 
ATOM     20  O   UNL     1       3.347   2.851  17.672  0.00  0.00    +0.000 OA
ATOM     21  N   UNL     1       2.546   5.900  19.225  0.00  0.00    +0.000 NA
ENDBRANCH  12  19
ENDBRANCH   1  12
TORSDOF 3
ENDMDL
MODEL 7
REMARK VINA RESULT:      -7.4      3.175      6.875
REMARK  Name = 
REMARK  5 active torsions:
REMARK  status: ('A' for Active; 'I' for Inactive)
REMARK    1  A    between atoms: C_1  and  C_2
REMARK    2  A    between atoms: C_4  and  C_5
REMARK    3  A    between atoms: C_7  and  C_9
REMARK    4  A    between atoms: C_9  and  C_10
REMARK    5  A    between atoms: C_10  and  C_11
REMARK                            x       y       z     vdW  Elec       q    Type
REMARK                         _______ _______ _______ _____ _____    ______ ____
ROOT
ATOM      1  C   UNL     1       4.492   3.666  17.049  0.00  0.00    +0.000 C 
ENDROOT
BRANCH   1   2
ATOM      2  C   UNL     1       5.168   4.420  15.874  0.00  0.00    +0.000 C 
ATOM      3  C   UNL     1       6.610   3.928  15.720  0.00  0.00    +0.000 C 
ATOM      4  O   UNL     1       7.276   4.100  16.986  0.00  0.00    +0.000 OA
ATOM      5  C   UNL     1       7.163   5.415  17.376  0.00  0.00    +0.000 A 
ATOM      6  C   UNL     1       7.997   5.860  18.392  0.00  0.00    +0.000 A 
ATOM      7  C   UNL     1       8.119   7.230  18.618  0.00  0.00    +0.000 A 
ATOM      8  C   UNL     1       7.427   8.133  17.805  0.00  0.00    +0.000 A 
ATOM      9  C   UNL     1       6.472   7.667  16.897  0.00  0.00    +0.000 A 
ATOM     10  C   UNL     1       6.275   6.298  16.755  0.00  0.00    +0.000 A 
ATOM     11  O   UNL     1       5.200   5.858  16.017  0.00  0.00    +0.000 OA
ENDBRANCH   1   2
BRANCH   1  12
ATOM     12  C   UNL     1       2.971   3.573  17.006  0.00  0.00    +0.000 C 
BRANCH  12  19
ATOM     13  C   UNL     1       2.103   7.687  19.855  0.00  0.00    +0.000 C 
ATOM     14  C   UNL     1       2.004   6.211  19.922  0.00  0.00    +0.000 A 
ATOM     15  C   UNL     1       1.556   5.416  20.997  0.00  0.00    +0.000 A 
ATOM     16  C   UNL     1       1.649   4.122  20.560  0.00  0.00    +0.000 A 
ATOM     17  C   UNL     1       1.296   2.862  21.271  0.00  0.00    +0.000 C 
ATOM     18  N   UNL     1       2.146   4.172  19.259  0.00  0.00    +0.000 N 
ATOM     19  C   UNL     1       2.419   3.124  18.358  0.00  0.00    +0.000 C 
ATOM     20  O   UNL     1       2.191   1.958  18.681  0.00  0.00    +0.000 OA
ATOM     21  N   UNL     1       2.358   5.464  18.873  0.00  0.00    +0.000 NA
ENDBRANCH  12  19
ENDBRANCH   1  12
TORSDOF 3
ENDMDL
MODEL 8
REMARK VINA RESULT:      -7.3      5.318      7.848
REMARK  Name = 
REMARK  5 active torsions:
REMARK  status: ('A' for Active; 'I' for Inactive)
REMARK    1  A    between atoms: C_1  and  C_2
REMARK    2  A    between atoms: C_4  and  C_5
REMARK    3  A    between atoms: C_7  and  C_9
REMARK    4  A    between atoms: C_9  and  C_10
REMARK    5  A    between atoms: C_10  and  C_11
REMARK                            x       y       z     vdW  Elec       q    Type
REMARK                         _______ _______ _______ _____ _____    ______ ____
ROOT
ATOM      1  C   UNL     1       1.664   7.870  18.190  0.00  0.00    +0.000 C 
ENDROOT
BRANCH   1   2
ATOM      2  C   UNL     1       2.818   7.221  18.996  0.00  0.00    +0.000 C 
ATOM      3  C   UNL     1       3.590   6.259  18.089  0.00  0.00    +0.000 C 
ATOM      4  O   UNL     1       2.652   5.312  17.545  0.00  0.00    +0.000 OA
ATOM      5  C   UNL     1       1.980   4.701  18.580  0.00  0.00    +0.000 A 
ATOM      6  C   UNL     1       1.273   3.542  18.295  0.00  0.00    +0.000 A 
ATOM      7  C   UNL     1       0.825   2.745  19.347  0.00  0.00    +0.000 A 
ATOM      8  C   UNL     1       1.118   3.105  20.666  0.00  0.00    +0.000 A 
ATOM      9  C   UNL     1       1.688   4.351  20.941  0.00  0.00    +0.000 A 
ATOM     10  C   UNL     1       2.032   5.192  19.888  0.00  0.00    +0.000 A 
ATOM     11  O   UNL     1       2.399   6.489  20.169  0.00  0.00    +0.000 OA
ENDBRANCH   1   2
BRANCH   1  12
ATOM     12  C   UNL     1       1.760   9.375  17.964  0.00  0.00    +0.000 C 
BRANCH  12  19
ATOM     13  C   UNL     1      -2.865   9.906  15.932  0.00  0.00    +0.000 C 
ATOM     14  C   UNL     1      -2.111  10.254  17.158  0.00  0.00    +0.000 A 
ATOM     15  C   UNL     1      -2.568  10.953  18.294  0.00  0.00    +0.000 A 
ATOM     16  C   UNL     1      -1.498  11.009  19.147  0.00  0.00    +0.000 A 
ATOM     17  C   UNL     1      -1.409  11.615  20.503  0.00  0.00    +0.000 C 
ATOM     18  N   UNL     1      -0.444  10.358  18.510  0.00  0.00    +0.000 N 
ATOM     19  C   UNL     1       0.873  10.128  18.956  0.00  0.00    +0.000 C 
ATOM     20  O   UNL     1       1.220  10.506  20.075  0.00  0.00    +0.000 OA
ATOM     21  N   UNL     1      -0.831   9.893  17.287  0.00  0.00    +0.000 NA
ENDBRANCH  12  19
ENDBRANCH   1  12
TORSDOF 3
ENDMDL
MODEL 9
REMARK VINA RESULT:      -7.3      5.456      7.999
REMARK  Name = 
REMARK  5 active torsions:
REMARK  status: ('A' for Active; 'I' for Inactive)
REMARK    1  A    between atoms: C_1  and  C_2
REMARK    2  A    between atoms: C_4  and  C_5
REMARK    3  A    between atoms: C_7  and  C_9
REMARK    4  A    between atoms: C_9  and  C_10
REMARK    5  A    between atoms: C_10  and  C_11
REMARK                            x       y       z     vdW  Elec       q    Type
REMARK                         _______ _______ _______ _____ _____    ______ ____
ROOT
ATOM      1  C   UNL     1       1.903   7.893  17.973  0.00  0.00    +0.000 C 
ENDROOT
BRANCH   1   2
ATOM      2  C   UNL     1       2.908   7.255  18.966  0.00  0.00    +0.000 C 
ATOM      3  C   UNL     1       3.827   6.293  18.208  0.00  0.00    +0.000 C 
ATOM      4  O   UNL     1       2.999   5.338  17.519  0.00  0.00    +0.000 OA
ATOM      5  C   UNL     1       2.166   4.727  18.429  0.00  0.00    +0.000 A 
ATOM      6  C   UNL     1       1.522   3.563  18.036  0.00  0.00    +0.000 A 
ATOM      7  C   UNL     1       0.908   2.768  19.002  0.00  0.00    +0.000 A 
ATOM      8  C   UNL     1       0.972   3.137  20.349  0.00  0.00    +0.000 A 
ATOM      9  C   UNL     1       1.481   4.388  20.709  0.00  0.00    +0.000 A 
ATOM     10  C   UNL     1       1.993   5.226  19.724  0.00  0.00    +0.000 A 
ATOM     11  O   UNL     1       2.300   6.526  20.056  0.00  0.00    +0.000 OA
ENDBRANCH   1   2
BRANCH   1  12
ATOM     12  C   UNL     1       1.943   9.413  17.853  0.00  0.00    +0.000 C 
BRANCH  12  19
ATOM     13  C   UNL     1       3.142  14.344  18.058  0.00  0.00    +0.000 C 
ATOM     14  C   UNL     1       2.283  13.350  18.741  0.00  0.00    +0.000 A 
ATOM     15  C   UNL     1       1.410  13.552  19.830  0.00  0.00    +0.000 A 
ATOM     16  C   UNL     1       0.848  12.330  20.082  0.00  0.00    +0.000 A 
ATOM     17  C   UNL     1      -0.160  11.955  21.112  0.00  0.00    +0.000 C 
ATOM     18  N   UNL     1       1.390  11.440  19.159  0.00  0.00    +0.000 N 
ATOM     19  C   UNL     1       1.142  10.064  18.980  0.00  0.00    +0.000 C 
ATOM     20  O   UNL     1       0.317   9.490  19.691  0.00  0.00    +0.000 OA
ATOM     21  N   UNL     1       2.271  12.077  18.334  0.00  0.00    +0.000 NA
ENDBRANCH  12  19
ENDBRANCH   1  12
TORSDOF 3
ENDMDL
