MODEL 1
REMARK VINA RESULT:      -6.9      0.000      0.000
REMARK  Name = 
REMARK  5 active torsions:
REMARK  status: ('A' for Active; 'I' for Inactive)
REMARK    1  A    between atoms: C_1  and  C_2
REMARK    2  A    between atoms: C_2  and  C_3
REMARK    3  A    between atoms: C_2  and  N_9
REMARK    4  A    between atoms: N_9  and  C_10
REMARK    5  A    between atoms: C_11  and  C_13
REMARK                            x       y       z     vdW  Elec       q    Type
REMARK                         _______ _______ _______ _____ _____    ______ ____
ROOT
ATOM      1  N   UNL     1       4.327   4.202  18.018  0.00  0.00    +0.000 N 
ATOM      2  C   UNL     1       3.284   5.138  17.624  0.00  0.00    +0.000 C 
ATOM      3  C   UNL     1       4.203   3.316  19.098  0.00  0.00    +0.000 C 
ATOM      4  O   UNL     1       5.169   2.648  19.476  0.00  0.00    +0.000 OA
ENDROOT
BRANCH   3   5
ATOM      5  C   UNL     1       2.941   3.192  19.820  0.00  0.00    +0.000 A 
ATOM      6  C   UNL     1       1.602   3.298  19.483  0.00  0.00    +0.000 A 
ATOM      7  C   UNL     1       0.820   3.092  20.649  0.00  0.00    +0.000 A 
ATOM      8  C   UNL     1       1.689   2.810  21.673  0.00  0.00    +0.000 A 
ATOM      9  N   UNL     1       2.956   2.827  21.159  0.00  0.00    +0.000 N 
ATOM     10  H   UNL     1       3.809   2.624  21.667  0.00  0.00    +0.000 HD
ENDBRANCH   3   5
BRANCH   1  12
ATOM     11  C   UNL     1       5.404   4.106  15.768  0.00  0.00    +0.000 C 
ATOM     12  C   UNL     1       5.608   4.246  17.284  0.00  0.00    +0.000 C 
BRANCH  12  13
ATOM     13  C   UNL     1       6.471   5.442  17.688  0.00  0.00    +0.000 A 
ATOM     14  C   UNL     1       6.466   6.659  16.987  0.00  0.00    +0.000 A 
ATOM     15  C   UNL     1       7.317   7.705  17.354  0.00  0.00    +0.000 A 
ATOM     16  C   UNL     1       8.185   7.555  18.431  0.00  0.00    +0.000 A 
ATOM     17  C   UNL     1       8.186   6.366  19.157  0.00  0.00    +0.000 A 
ATOM     18  C   UNL     1       7.331   5.322  18.794  0.00  0.00    +0.000 A 
ENDBRANCH  12  13
ENDBRANCH   1  12
TORSDOF 3
ENDMDL
MODEL 2
REMARK VINA RESULT:      -6.9      0.747      1.462
REMARK  Name = 
REMARK  5 active torsions:
REMARK  status: ('A' for Active; 'I' for Inactive)
REMARK    1  A    between atoms: C_1  and  C_2
REMARK    2  A    between atoms: C_2  and  C_3
REMARK    3  A    between atoms: C_2  and  N_9
REMARK    4  A    between atoms: N_9  and  C_10
REMARK    5  A    between atoms: C_11  and  C_13
REMARK                            x       y       z     vdW  Elec       q    Type
REMARK                         _______ _______ _______ _____ _____    ______ ____
ROOT
ATOM      1  N   UNL     1       4.600   4.355  17.937  0.00  0.00    +0.000 N 
ATOM      2  C   UNL     1       3.610   5.244  17.351  0.00  0.00    +0.000 C 
ATOM      3  C   UNL     1       4.370   3.594  19.092  0.00  0.00    +0.000 C 
ATOM      4  O   UNL     1       5.289   2.969  19.626  0.00  0.00    +0.000 OA
ENDROOT
BRANCH   3   5
ATOM      5  C   UNL     1       3.048   3.555  19.709  0.00  0.00    +0.000 A 
ATOM      6  C   UNL     1       2.406   4.275  20.703  0.00  0.00    +0.000 A 
ATOM      7  C   UNL     1       1.104   3.743  20.884  0.00  0.00    +0.000 A 
ATOM      8  C   UNL     1       0.945   2.741  19.960  0.00  0.00    +0.000 A 
ATOM      9  N   UNL     1       2.098   2.664  19.230  0.00  0.00    +0.000 N 
ATOM     10  H   UNL     1       2.271   2.038  18.452  0.00  0.00    +0.000 HD
ENDBRANCH   3   5
BRANCH   1  12
ATOM     11  C   UNL     1       5.867   4.079  15.804  0.00  0.00    +0.000 C 
ATOM     12  C   UNL     1       5.942   4.312  17.320  0.00  0.00    +0.000 C 
BRANCH  12  13
ATOM     13  C   UNL     1       6.808   5.505  17.725  0.00  0.00    +0.000 A 
ATOM     14  C   UNL     1       7.614   5.507  18.876  0.00  0.00    +0.000 A 
ATOM     15  C   UNL     1       8.342   6.643  19.243  0.00  0.00    +0.000 A 
ATOM     16  C   UNL     1       8.281   7.794  18.464  0.00  0.00    +0.000 A 
ATOM     17  C   UNL     1       7.510   7.803  17.303  0.00  0.00    +0.000 A 
ATOM     18  C   UNL     1       6.787   6.666  16.933  0.00  0.00    +0.000 A 
ENDBRANCH  12  13
ENDBRANCH   1  12
TORSDOF 3
ENDMDL
MODEL 3
REMARK VINA RESULT:      -6.5      1.952      5.986
REMARK  Name = 
REMARK  5 active torsions:
REMARK  status: ('A' for Active; 'I' for Inactive)
REMARK    1  A    between atoms: C_1  and  C_2
REMARK    2  A    between atoms: C_2  and  C_3
REMARK    3  A    between atoms: C_2  and  N_9
REMARK    4  A    between atoms: N_9  and  C_10
REMARK    5  A    between atoms: C_11  and  C_13
REMARK                            x       y       z     vdW  Elec       q    Type
REMARK                         _______ _______ _______ _____ _____    ______ ____
ROOT
ATOM      1  N   UNL     1       3.984   5.837  18.444  0.00  0.00    +0.000 N 
ATOM      2  C   UNL     1       3.573   6.653  17.312  0.00  0.00    +0.000 C 
ATOM      3  C   UNL     1       5.031   4.906  18.387  0.00  0.00    +0.000 C 
ATOM      4  O   UNL     1       5.243   4.140  19.331  0.00  0.00    +0.000 OA
ENDROOT
BRANCH   3   5
ATOM      5  C   UNL     1       5.869   4.797  17.197  0.00  0.00    +0.000 A 
ATOM      6  C   UNL     1       6.957   5.491  16.695  0.00  0.00    +0.000 A 
ATOM      7  C   UNL     1       7.331   4.917  15.453  0.00  0.00    +0.000 A 
ATOM      8  C   UNL     1       6.502   3.846  15.237  0.00  0.00    +0.000 A 
ATOM      9  N   UNL     1       5.657   3.752  16.308  0.00  0.00    +0.000 N 
ATOM     10  H   UNL     1       4.950   3.041  16.451  0.00  0.00    +0.000 HD
ENDBRANCH   3   5
BRANCH   1  12
ATOM     11  C   UNL     1       2.402   7.254  19.756  0.00  0.00    +0.000 C 
ATOM     12  C   UNL     1       3.205   5.946  19.695  0.00  0.00    +0.000 C 
BRANCH  12  13
ATOM     13  C   UNL     1       2.376   4.693  19.977  0.00  0.00    +0.000 A 
ATOM     14  C   UNL     1       2.306   4.093  21.246  0.00  0.00    +0.000 A 
ATOM     15  C   UNL     1       1.587   2.912  21.445  0.00  0.00    +0.000 A 
ATOM     16  C   UNL     1       0.920   2.312  20.381  0.00  0.00    +0.000 A 
ATOM     17  C   UNL     1       0.952   2.905  19.121  0.00  0.00    +0.000 A 
ATOM     18  C   UNL     1       1.668   4.090  18.923  0.00  0.00    +0.000 A 
ENDBRANCH  12  13
ENDBRANCH   1  12
TORSDOF 3
ENDMDL
MODEL 4
REMARK VINA RESULT:      -6.5      2.375      6.140
REMARK  Name = 
REMARK  5 active torsions:
REMARK  status: ('A' for Active; 'I' for Inactive)
REMARK    1  A    between atoms: C_1  and  C_2
REMARK    2  A    between atoms: C_2  and  C_3
REMARK    3  A    between atoms: C_2  and  N_9
REMARK    4  A    between atoms: N_9  and  C_10
REMARK    5  A    between atoms: C_11  and  C_13
REMARK                            x       y       z     vdW  Elec       q    Type
REMARK                         _______ _______ _______ _____ _____    ______ ____
ROOT
ATOM      1  N   UNL     1       5.723   4.466  17.130  0.00  0.00    +0.000 N 
ATOM      2  C   UNL     1       4.411   4.489  16.502  0.00  0.00    +0.000 C 
ATOM      3  C   UNL     1       6.924   4.374  16.410  0.00  0.00    +0.000 C 
ATOM      4  O   UNL     1       7.997   4.214  16.997  0.00  0.00    +0.000 OA
ENDROOT
BRANCH   3   5
ATOM      5  C   UNL     1       6.926   4.427  14.952  0.00  0.00    +0.000 A 
ATOM      6  C   UNL     1       6.244   3.766  13.944  0.00  0.00    +0.000 A 
ATOM      7  C   UNL     1       6.705   4.244  12.691  0.00  0.00    +0.000 A 
ATOM      8  C   UNL     1       7.624   5.230  12.948  0.00  0.00    +0.000 A 
ATOM      9  N   UNL     1       7.718   5.366  14.305  0.00  0.00    +0.000 N 
ATOM     10  H   UNL     1       8.293   6.037  14.800  0.00  0.00    +0.000 HD
ENDBRANCH   3   5
BRANCH   1  12
ATOM     11  C   UNL     1       6.428   5.749  19.152  0.00  0.00    +0.000 C 
ATOM     12  C   UNL     1       5.783   4.467  18.606  0.00  0.00    +0.000 C 
BRANCH  12  13
ATOM     13  C   UNL     1       4.436   4.126  19.244  0.00  0.00    +0.000 A 
ATOM     14  C   UNL     1       3.926   2.819  19.299  0.00  0.00    +0.000 A 
ATOM     15  C   UNL     1       2.661   2.561  19.835  0.00  0.00    +0.000 A 
ATOM     16  C   UNL     1       1.886   3.605  20.330  0.00  0.00    +0.000 A 
ATOM     17  C   UNL     1       2.385   4.906  20.311  0.00  0.00    +0.000 A 
ATOM     18  C   UNL     1       3.652   5.163  19.780  0.00  0.00    +0.000 A 
ENDBRANCH  12  13
ENDBRANCH   1  12
TORSDOF 3
ENDMDL
MODEL 5
REMARK VINA RESULT:      -6.5      1.973      5.900
REMARK  Name = 
REMARK  5 active torsions:
REMARK  status: ('A' for Active; 'I' for Inactive)
REMARK    1  A    between atoms: C_1  and  C_2
REMARK    2  A    between atoms: C_2  and  C_3
REMARK    3  A    between atoms: C_2  and  N_9
REMARK    4  A    between atoms: N_9  and  C_10
REMARK    5  A    between atoms: C_11  and  C_13
REMARK                            x       y       z     vdW  Elec       q    Type
REMARK                         _______ _______ _______ _____ _____    ______ ____
ROOT
ATOM      1  N   UNL     1       4.010   5.836  18.400  0.00  0.00    +0.000 N 
ATOM      2  C   UNL     1       3.564   6.635  17.269  0.00  0.00    +0.000 C 
ATOM      3  C   UNL     1       5.071   4.921  18.330  0.00  0.00    +0.000 C 
ATOM      4  O   UNL     1       5.314   4.168  19.277  0.00  0.00    +0.000 OA
ENDROOT
BRANCH   3   5
ATOM      5  C   UNL     1       5.885   4.814  17.124  0.00  0.00    +0.000 A 
ATOM      6  C   UNL     1       6.960   5.512  16.599  0.00  0.00    +0.000 A 
ATOM      7  C   UNL     1       7.313   4.937  15.352  0.00  0.00    +0.000 A 
ATOM      8  C   UNL     1       6.486   3.860  15.155  0.00  0.00    +0.000 A 
ATOM      9  N   UNL     1       5.662   3.766  16.242  0.00  0.00    +0.000 N 
ATOM     10  H   UNL     1       4.962   3.050  16.401  0.00  0.00    +0.000 HD
ENDBRANCH   3   5
BRANCH   1  12
ATOM     11  C   UNL     1       2.430   7.240  19.728  0.00  0.00    +0.000 C 
ATOM     12  C   UNL     1       3.255   5.946  19.665  0.00  0.00    +0.000 C 
BRANCH  12  13
ATOM     13  C   UNL     1       2.455   4.681  19.979  0.00  0.00    +0.000 A 
ATOM     14  C   UNL     1       1.665   4.021  19.022  0.00  0.00    +0.000 A 
ATOM     15  C   UNL     1       0.901   2.904  19.368  0.00  0.00    +0.000 A 
ATOM     16  C   UNL     1       0.916   2.423  20.673  0.00  0.00    +0.000 A 
ATOM     17  C   UNL     1       1.715   3.045  21.630  0.00  0.00    +0.000 A 
ATOM     18  C   UNL     1       2.483   4.160  21.284  0.00  0.00    +0.000 A 
ENDBRANCH  12  13
ENDBRANCH   1  12
TORSDOF 3
ENDMDL
MODEL 6
REMARK VINA RESULT:      -6.5      1.829      2.858
REMARK  Name = 
REMARK  5 active torsions:
REMARK  status: ('A' for Active; 'I' for Inactive)
REMARK    1  A    between atoms: C_1  and  C_2
REMARK    2  A    between atoms: C_2  and  C_3
REMARK    3  A    between atoms: C_2  and  N_9
REMARK    4  A    between atoms: N_9  and  C_10
REMARK    5  A    between atoms: C_11  and  C_13
REMARK                            x       y       z     vdW  Elec       q    Type
REMARK                         _______ _______ _______ _____ _____    ______ ____
ROOT
ATOM      1  N   UNL     1       4.788   4.649  19.246  0.00  0.00    +0.000 N 
ATOM      2  C   UNL     1       5.100   3.228  19.239  0.00  0.00    +0.000 C 
ATOM      3  C   UNL     1       3.552   5.167  19.660  0.00  0.00    +0.000 C 
ATOM      4  O   UNL     1       3.291   6.363  19.511  0.00  0.00    +0.000 OA
ENDROOT
BRANCH   3   5
ATOM      5  C   UNL     1       2.535   4.297  20.243  0.00  0.00    +0.000 A 
ATOM      6  C   UNL     1       2.270   3.808  21.511  0.00  0.00    +0.000 A 
ATOM      7  C   UNL     1       1.130   2.968  21.447  0.00  0.00    +0.000 A 
ATOM      8  C   UNL     1       0.679   2.997  20.152  0.00  0.00    +0.000 A 
ATOM      9  N   UNL     1       1.500   3.831  19.445  0.00  0.00    +0.000 N 
ATOM     10  H   UNL     1       1.401   4.079  18.468  0.00  0.00    +0.000 HD
ENDBRANCH   3   5
BRANCH   1  12
ATOM     11  C   UNL     1       7.105   5.532  19.532  0.00  0.00    +0.000 C 
ATOM     12  C   UNL     1       5.804   5.583  18.718  0.00  0.00    +0.000 C 
BRANCH  12  13
ATOM     13  C   UNL     1       6.005   5.433  17.210  0.00  0.00    +0.000 A 
ATOM     14  C   UNL     1       5.042   5.832  16.268  0.00  0.00    +0.000 A 
ATOM     15  C   UNL     1       5.241   5.619  14.901  0.00  0.00    +0.000 A 
ATOM     16  C   UNL     1       6.408   5.008  14.451  0.00  0.00    +0.000 A 
ATOM     17  C   UNL     1       7.388   4.631  15.367  0.00  0.00    +0.000 A 
ATOM     18  C   UNL     1       7.191   4.849  16.733  0.00  0.00    +0.000 A 
ENDBRANCH  12  13
ENDBRANCH   1  12
TORSDOF 3
ENDMDL
MODEL 7
REMARK VINA RESULT:      -6.3      2.473      6.142
REMARK  Name = 
REMARK  5 active torsions:
REMARK  status: ('A' for Active; 'I' for Inactive)
REMARK    1  A    between atoms: C_1  and  C_2
REMARK    2  A    between atoms: C_2  and  C_3
REMARK    3  A    between atoms: C_2  and  N_9
REMARK    4  A    between atoms: N_9  and  C_10
REMARK    5  A    between atoms: C_11  and  C_13
REMARK                            x       y       z     vdW  Elec       q    Type
REMARK                         _______ _______ _______ _____ _____    ______ ____
ROOT
ATOM      1  N   UNL     1       4.121   5.076  17.398  0.00  0.00    +0.000 N 
ATOM      2  C   UNL     1       3.533   3.835  16.917  0.00  0.00    +0.000 C 
ATOM      3  C   UNL     1       5.245   5.678  16.812  0.00  0.00    +0.000 C 
ATOM      4  O   UNL     1       5.787   6.648  17.346  0.00  0.00    +0.000 OA
ENDROOT
BRANCH   3   5
ATOM      5  C   UNL     1       5.819   5.146  15.580  0.00  0.00    +0.000 A 
ATOM      6  C   UNL     1       5.360   4.343  14.549  0.00  0.00    +0.000 A 
ATOM      7  C   UNL     1       6.412   4.147  13.620  0.00  0.00    +0.000 A 
ATOM      8  C   UNL     1       7.486   4.877  14.065  0.00  0.00    +0.000 A 
ATOM      9  N   UNL     1       7.108   5.510  15.217  0.00  0.00    +0.000 N 
ATOM     10  H   UNL     1       7.676   6.146  15.763  0.00  0.00    +0.000 HD
ENDBRANCH   3   5
BRANCH   1  12
ATOM     11  C   UNL     1       2.596   6.848  18.272  0.00  0.00    +0.000 C 
ATOM     12  C   UNL     1       3.545   5.689  18.612  0.00  0.00    +0.000 C 
BRANCH  12  13
ATOM     13  C   UNL     1       2.945   4.650  19.561  0.00  0.00    +0.000 A 
ATOM     14  C   UNL     1       3.698   3.607  20.125  0.00  0.00    +0.000 A 
ATOM     15  C   UNL     1       3.096   2.642  20.937  0.00  0.00    +0.000 A 
ATOM     16  C   UNL     1       1.732   2.706  21.204  0.00  0.00    +0.000 A 
ATOM     17  C   UNL     1       0.973   3.749  20.678  0.00  0.00    +0.000 A 
ATOM     18  C   UNL     1       1.576   4.716  19.870  0.00  0.00    +0.000 A 
ENDBRANCH  12  13
ENDBRANCH   1  12
TORSDOF 3
ENDMDL
MODEL 8
REMARK VINA RESULT:      -6.2      2.544      3.725
REMARK  Name = 
REMARK  5 active torsions:
REMARK  status: ('A' for Active; 'I' for Inactive)
REMARK    1  A    between atoms: C_1  and  C_2
REMARK    2  A    between atoms: C_2  and  C_3
REMARK    3  A    between atoms: C_2  and  N_9
REMARK    4  A    between atoms: N_9  and  C_10
REMARK    5  A    between atoms: C_11  and  C_13
REMARK                            x       y       z     vdW  Elec       q    Type
REMARK                         _______ _______ _______ _____ _____    ______ ____
ROOT
ATOM      1  N   UNL     1       3.116   4.680  18.414  0.00  0.00    +0.000 N 
ATOM      2  C   UNL     1       1.810   4.635  17.776  0.00  0.00    +0.000 C 
ATOM      3  C   UNL     1       3.546   5.740  19.226  0.00  0.00    +0.000 C 
ATOM      4  O   UNL     1       4.712   5.794  19.623  0.00  0.00    +0.000 OA
ENDROOT
BRANCH   3   5
ATOM      5  C   UNL     1       2.633   6.821  19.586  0.00  0.00    +0.000 A 
ATOM      6  C   UNL     1       2.163   7.960  18.955  0.00  0.00    +0.000 A 
ATOM      7  C   UNL     1       1.296   8.648  19.842  0.00  0.00    +0.000 A 
ATOM      8  C   UNL     1       1.203   7.893  20.984  0.00  0.00    +0.000 A 
ATOM      9  N   UNL     1       1.972   6.776  20.806  0.00  0.00    +0.000 N 
ATOM     10  H   UNL     1       2.080   6.013  21.464  0.00  0.00    +0.000 HD
ENDBRANCH   3   5
BRANCH   1  12
ATOM     11  C   UNL     1       3.336   2.259  17.844  0.00  0.00    +0.000 C 
ATOM     12  C   UNL     1       4.063   3.582  18.128  0.00  0.00    +0.000 C 
BRANCH  12  13
ATOM     13  C   UNL     1       5.097   3.964  17.069  0.00  0.00    +0.000 A 
ATOM     14  C   UNL     1       6.426   4.295  17.383  0.00  0.00    +0.000 A 
ATOM     15  C   UNL     1       7.321   4.700  16.389  0.00  0.00    +0.000 A 
ATOM     16  C   UNL     1       6.905   4.777  15.064  0.00  0.00    +0.000 A 
ATOM     17  C   UNL     1       5.599   4.427  14.726  0.00  0.00    +0.000 A 
ATOM     18  C   UNL     1       4.706   4.017  15.720  0.00  0.00    +0.000 A 
ENDBRANCH  12  13
ENDBRANCH   1  12
TORSDOF 3
ENDMDL
MODEL 9
REMARK VINA RESULT:      -6.2      2.558      3.596
REMARK  Name = 
REMARK  5 active torsions:
REMARK  status: ('A' for Active; 'I' for Inactive)
REMARK    1  A    between atoms: C_1  and  C_2
REMARK    2  A    between atoms: C_2  and  C_3
REMARK    3  A    between atoms: C_2  and  N_9
REMARK    4  A    between atoms: N_9  and  C_10
REMARK    5  A    between atoms: C_11  and  C_13
REMARK                            x       y       z     vdW  Elec       q    Type
REMARK                         _______ _______ _______ _____ _____    ______ ____
ROOT
ATOM      1  N   UNL     1       3.109   4.698  18.417  0.00  0.00    +0.000 N 
ATOM      2  C   UNL     1       1.790   4.630  17.808  0.00  0.00    +0.000 C 
ATOM      3  C   UNL     1       3.535   5.762  19.226  0.00  0.00    +0.000 C 
ATOM      4  O   UNL     1       4.708   5.838  19.597  0.00  0.00    +0.000 OA
ENDROOT
BRANCH   3   5
ATOM      5  C   UNL     1       2.609   6.821  19.613  0.00  0.00    +0.000 A 
ATOM      6  C   UNL     1       2.132   7.977  19.016  0.00  0.00    +0.000 A 
ATOM      7  C   UNL     1       1.251   8.626  19.917  0.00  0.00    +0.000 A 
ATOM      8  C   UNL     1       1.157   7.833  21.033  0.00  0.00    +0.000 A 
ATOM      9  N   UNL     1       1.938   6.731  20.825  0.00  0.00    +0.000 N 
ATOM     10  H   UNL     1       2.048   5.948  21.459  0.00  0.00    +0.000 HD
ENDBRANCH   3   5
BRANCH   1  12
ATOM     11  C   UNL     1       3.367   2.280  17.854  0.00  0.00    +0.000 C 
ATOM     12  C   UNL     1       4.072   3.621  18.103  0.00  0.00    +0.000 C 
BRANCH  12  13
ATOM     13  C   UNL     1       5.056   4.022  17.004  0.00  0.00    +0.000 A 
ATOM     14  C   UNL     1       4.702   4.080  15.646  0.00  0.00    +0.000 A 
ATOM     15  C   UNL     1       5.650   4.390  14.667  0.00  0.00    +0.000 A 
ATOM     16  C   UNL     1       6.967   4.653  15.029  0.00  0.00    +0.000 A 
ATOM     17  C   UNL     1       7.333   4.629  16.373  0.00  0.00    +0.000 A 
ATOM     18  C   UNL     1       6.384   4.324  17.352  0.00  0.00    +0.000 A 
ENDBRANCH  12  13
ENDBRANCH   1  12
TORSDOF 3
ENDMDL
