MODEL 1
REMARK VINA RESULT:      -7.5      0.000      0.000
REMARK  Name = 
REMARK  8 active torsions:
REMARK  status: ('A' for Active; 'I' for Inactive)
REMARK    1  A    between atoms: C_1  and  O_2
REMARK    2  A    between atoms: O_2  and  C_3
REMARK    3  A    between atoms: C_3  and  C_5
REMARK    4  A    between atoms: C_6  and  C_7
REMARK    5  A    between atoms: C_14  and  C_15
REMARK    6  A    between atoms: C_14  and  C_16
REMARK    7  A    between atoms: C_18  and  C_19
REMARK    8  A    between atoms: C_22  and  C_23
REMARK                            x       y       z     vdW  Elec       q    Type
REMARK                         _______ _______ _______ _____ _____    ______ ____
ROOT
ATOM      1  C   UNL     1       1.944   7.886  18.779  0.00  0.00    +0.000 C 
ATOM      2  C   UNL     1       1.856   7.952  20.133  0.00  0.00    +0.000 C 
ATOM      3  C   UNL     1       1.560   9.181  20.953  0.00  0.00    +0.000 C 
ATOM      4  N   UNL     1       2.052   6.794  20.888  0.00  0.00    +0.000 N 
ATOM      5  C   UNL     1       2.000   5.522  20.347  0.00  0.00    +0.000 C 
ATOM      6  C   UNL     1       2.063   5.375  19.009  0.00  0.00    +0.000 C 
ATOM      7  C   UNL     1       1.806   4.051  18.387  0.00  0.00    +0.000 C 
ATOM      8  O   UNL     1       1.792   3.927  17.163  0.00  0.00    +0.000 OA
ATOM      9  C   UNL     1       1.449   2.892  19.297  0.00  0.00    +0.000 C 
ATOM     10  C   UNL     1       2.158   2.988  20.658  0.00  0.00    +0.000 C 
ATOM     11  C   UNL     1       1.638   1.881  21.592  0.00  0.00    +0.000 C 
ATOM     12  C   UNL     1       3.678   2.783  20.475  0.00  0.00    +0.000 C 
ATOM     13  C   UNL     1       1.852   4.362  21.296  0.00  0.00    +0.000 C 
ATOM     14  C   UNL     1       2.363   6.566  18.112  0.00  0.00    +0.000 C 
ATOM     15  H   UNL     1       1.924   6.876  21.894  0.00  0.00    +0.000 HD
ENDROOT
BRANCH  14  16
ATOM     16  C   UNL     1       3.824   6.563  17.707  0.00  0.00    +0.000 A 
ATOM     17  C   UNL     1       4.502   7.004  16.589  0.00  0.00    +0.000 A 
ATOM     18  C   UNL     1       5.868   6.687  16.796  0.00  0.00    +0.000 A 
ATOM     19  C   UNL     1       5.943   6.071  18.027  0.00  0.00    +0.000 A 
ATOM     20  C   UNL     1       7.049   5.510  18.827  0.00  0.00    +0.000 C 
ATOM     21  O   UNL     1       4.706   5.988  18.582  0.00  0.00    +0.000 OA
ENDBRANCH  14  16
BRANCH   1  22
ATOM     22  C   UNL     1       1.640   9.026  17.871  0.00  0.00    +0.000 C 
ATOM     23  O   UNL     1       2.455   9.842  17.472  0.00  0.00    +0.000 OA
BRANCH  22  25
ATOM     24  C   UNL     1      -0.371  10.212  18.104  0.00  0.00    +0.000 C 
ATOM     25  O   UNL     1       0.312   9.067  17.592  0.00  0.00    +0.000 OA
ENDBRANCH  22  25
ENDBRANCH   1  22
TORSDOF 3
ENDMDL
MODEL 2
REMARK VINA RESULT:      -7.3      1.942      4.759
REMARK  Name = 
REMARK  8 active torsions:
REMARK  status: ('A' for Active; 'I' for Inactive)
REMARK    1  A    between atoms: C_1  and  O_2
REMARK    2  A    between atoms: O_2  and  C_3
REMARK    3  A    between atoms: C_3  and  C_5
REMARK    4  A    between atoms: C_6  and  C_7
REMARK    5  A    between atoms: C_14  and  C_15
REMARK    6  A    between atoms: C_14  and  C_16
REMARK    7  A    between atoms: C_18  and  C_19
REMARK    8  A    between atoms: C_22  and  C_23
REMARK                            x       y       z     vdW  Elec       q    Type
REMARK                         _______ _______ _______ _____ _____    ______ ____
ROOT
ATOM      1  C   UNL     1       2.349   7.415  19.344  0.00  0.00    +0.000 C 
ATOM      2  C   UNL     1       2.253   7.962  18.104  0.00  0.00    +0.000 C 
ATOM      3  C   UNL     1       1.380   9.123  17.701  0.00  0.00    +0.000 C 
ATOM      4  N   UNL     1       3.019   7.433  17.063  0.00  0.00    +0.000 N 
ATOM      5  C   UNL     1       4.111   6.611  17.272  0.00  0.00    +0.000 C 
ATOM      6  C   UNL     1       4.286   6.045  18.482  0.00  0.00    +0.000 C 
ATOM      7  C   UNL     1       5.547   5.329  18.799  0.00  0.00    +0.000 C 
ATOM      8  O   UNL     1       5.741   4.873  19.926  0.00  0.00    +0.000 OA
ATOM      9  C   UNL     1       6.627   5.278  17.737  0.00  0.00    +0.000 C 
ATOM     10  C   UNL     1       6.038   5.225  16.317  0.00  0.00    +0.000 C 
ATOM     11  C   UNL     1       7.171   5.339  15.282  0.00  0.00    +0.000 C 
ATOM     12  C   UNL     1       5.322   3.875  16.096  0.00  0.00    +0.000 C 
ATOM     13  C   UNL     1       5.067   6.412  16.124  0.00  0.00    +0.000 C 
ATOM     14  C   UNL     1       3.213   6.161  19.553  0.00  0.00    +0.000 C 
ATOM     15  H   UNL     1       2.957   7.906  16.165  0.00  0.00    +0.000 HD
ENDROOT
BRANCH  14  16
ATOM     16  C   UNL     1       2.383   4.893  19.604  0.00  0.00    +0.000 A 
ATOM     17  C   UNL     1       1.632   4.209  18.670  0.00  0.00    +0.000 A 
ATOM     18  C   UNL     1       1.064   3.099  19.344  0.00  0.00    +0.000 A 
ATOM     19  C   UNL     1       1.500   3.172  20.650  0.00  0.00    +0.000 A 
ATOM     20  C   UNL     1       1.285   2.342  21.851  0.00  0.00    +0.000 C 
ATOM     21  O   UNL     1       2.295   4.261  20.814  0.00  0.00    +0.000 OA
ENDBRANCH  14  16
BRANCH   1  22
ATOM     22  C   UNL     1       1.673   7.968  20.550  0.00  0.00    +0.000 C 
ATOM     23  O   UNL     1       0.981   7.326  21.323  0.00  0.00    +0.000 OA
BRANCH  22  25
ATOM     24  C   UNL     1       0.853  10.032  21.306  0.00  0.00    +0.000 C 
ATOM     25  O   UNL     1       1.886   9.306  20.640  0.00  0.00    +0.000 OA
ENDBRANCH  22  25
ENDBRANCH   1  22
TORSDOF 3
ENDMDL
MODEL 3
REMARK VINA RESULT:      -6.9      1.917      4.675
REMARK  Name = 
REMARK  8 active torsions:
REMARK  status: ('A' for Active; 'I' for Inactive)
REMARK    1  A    between atoms: C_1  and  O_2
REMARK    2  A    between atoms: O_2  and  C_3
REMARK    3  A    between atoms: C_3  and  C_5
REMARK    4  A    between atoms: C_6  and  C_7
REMARK    5  A    between atoms: C_14  and  C_15
REMARK    6  A    between atoms: C_14  and  C_16
REMARK    7  A    between atoms: C_18  and  C_19
REMARK    8  A    between atoms: C_22  and  C_23
REMARK                            x       y       z     vdW  Elec       q    Type
REMARK                         _______ _______ _______ _____ _____    ______ ____
ROOT
ATOM      1  C   UNL     1       2.275   7.484  19.625  0.00  0.00    +0.000 C 
ATOM      2  C   UNL     1       2.172   8.076  18.407  0.00  0.00    +0.000 C 
ATOM      3  C   UNL     1       1.327   9.276  18.062  0.00  0.00    +0.000 C 
ATOM      4  N   UNL     1       2.901   7.561  17.333  0.00  0.00    +0.000 N 
ATOM      5  C   UNL     1       3.972   6.701  17.491  0.00  0.00    +0.000 C 
ATOM      6  C   UNL     1       4.153   6.088  18.678  0.00  0.00    +0.000 C 
ATOM      7  C   UNL     1       5.398   5.324  18.945  0.00  0.00    +0.000 C 
ATOM      8  O   UNL     1       5.599   4.823  20.051  0.00  0.00    +0.000 OA
ATOM      9  C   UNL     1       6.456   5.279  17.860  0.00  0.00    +0.000 C 
ATOM     10  C   UNL     1       5.838   5.293  16.452  0.00  0.00    +0.000 C 
ATOM     11  C   UNL     1       6.954   5.409  15.398  0.00  0.00    +0.000 C 
ATOM     12  C   UNL     1       5.077   3.973  16.199  0.00  0.00    +0.000 C 
ATOM     13  C   UNL     1       4.900   6.514  16.319  0.00  0.00    +0.000 C 
ATOM     14  C   UNL     1       3.104   6.198  19.773  0.00  0.00    +0.000 C 
ATOM     15  H   UNL     1       2.837   8.067  16.453  0.00  0.00    +0.000 HD
ENDROOT
BRANCH  14  16
ATOM     16  C   UNL     1       2.238   4.954  19.797  0.00  0.00    +0.000 A 
ATOM     17  C   UNL     1       1.196   4.535  20.600  0.00  0.00    +0.000 A 
ATOM     18  C   UNL     1       0.818   3.252  20.132  0.00  0.00    +0.000 A 
ATOM     19  C   UNL     1       1.651   2.962  19.073  0.00  0.00    +0.000 A 
ATOM     20  C   UNL     1       1.785   1.813  18.157  0.00  0.00    +0.000 C 
ATOM     21  O   UNL     1       2.518   3.989  18.869  0.00  0.00    +0.000 OA
ENDBRANCH  14  16
BRANCH   1  22
ATOM     22  C   UNL     1       1.639   8.014  20.863  0.00  0.00    +0.000 C 
ATOM     23  O   UNL     1       2.230   8.582  21.767  0.00  0.00    +0.000 OA
BRANCH  22  25
ATOM     24  C   UNL     1      -0.480   8.588  21.691  0.00  0.00    +0.000 C 
ATOM     25  O   UNL     1       0.313   7.725  20.874  0.00  0.00    +0.000 OA
ENDBRANCH  22  25
ENDBRANCH   1  22
TORSDOF 3
ENDMDL
MODEL 4
REMARK VINA RESULT:      -6.5      2.673      4.575
REMARK  Name = 
REMARK  8 active torsions:
REMARK  status: ('A' for Active; 'I' for Inactive)
REMARK    1  A    between atoms: C_1  and  O_2
REMARK    2  A    between atoms: O_2  and  C_3
REMARK    3  A    between atoms: C_3  and  C_5
REMARK    4  A    between atoms: C_6  and  C_7
REMARK    5  A    between atoms: C_14  and  C_15
REMARK    6  A    between atoms: C_14  and  C_16
REMARK    7  A    between atoms: C_18  and  C_19
REMARK    8  A    between atoms: C_22  and  C_23
REMARK                            x       y       z     vdW  Elec       q    Type
REMARK                         _______ _______ _______ _____ _____    ______ ____
ROOT
ATOM      1  C   UNL     1       6.698   6.371  17.996  0.00  0.00    +0.000 C 
ATOM      2  C   UNL     1       7.053   5.603  19.058  0.00  0.00    +0.000 C 
ATOM      3  C   UNL     1       8.371   5.640  19.790  0.00  0.00    +0.000 C 
ATOM      4  N   UNL     1       6.145   4.670  19.561  0.00  0.00    +0.000 N 
ATOM      5  C   UNL     1       4.794   4.700  19.271  0.00  0.00    +0.000 C 
ATOM      6  C   UNL     1       4.359   5.454  18.243  0.00  0.00    +0.000 C 
ATOM      7  C   UNL     1       2.905   5.671  18.034  0.00  0.00    +0.000 C 
ATOM      8  O   UNL     1       2.505   6.416  17.140  0.00  0.00    +0.000 OA
ATOM      9  C   UNL     1       1.940   5.042  19.019  0.00  0.00    +0.000 C 
ATOM     10  C   UNL     1       2.457   3.697  19.555  0.00  0.00    +0.000 C 
ATOM     11  C   UNL     1       1.521   3.186  20.665  0.00  0.00    +0.000 C 
ATOM     12  C   UNL     1       2.469   2.648  18.421  0.00  0.00    +0.000 C 
ATOM     13  C   UNL     1       3.871   3.895  20.149  0.00  0.00    +0.000 C 
ATOM     14  C   UNL     1       5.348   6.125  17.303  0.00  0.00    +0.000 C 
ATOM     15  H   UNL     1       6.432   4.154  20.390  0.00  0.00    +0.000 HD
ENDROOT
BRANCH  14  16
ATOM     16  C   UNL     1       5.494   5.314  16.030  0.00  0.00    +0.000 A 
ATOM     17  C   UNL     1       4.843   4.206  15.527  0.00  0.00    +0.000 A 
ATOM     18  C   UNL     1       5.467   3.899  14.292  0.00  0.00    +0.000 A 
ATOM     19  C   UNL     1       6.463   4.835  14.114  0.00  0.00    +0.000 A 
ATOM     20  C   UNL     1       7.462   5.083  13.057  0.00  0.00    +0.000 C 
ATOM     21  O   UNL     1       6.488   5.693  15.168  0.00  0.00    +0.000 OA
ENDBRANCH  14  16
BRANCH   1  22
ATOM     22  C   UNL     1       7.535   7.475  17.451  0.00  0.00    +0.000 C 
ATOM     23  O   UNL     1       8.329   7.365  16.531  0.00  0.00    +0.000 OA
BRANCH  22  25
ATOM     24  C   UNL     1       8.452   9.507  18.185  0.00  0.00    +0.000 C 
ATOM     25  O   UNL     1       7.337   8.614  18.163  0.00  0.00    +0.000 OA
ENDBRANCH  22  25
ENDBRANCH   1  22
TORSDOF 3
ENDMDL
MODEL 5
REMARK VINA RESULT:      -6.2      5.805      8.180
REMARK  Name = 
REMARK  8 active torsions:
REMARK  status: ('A' for Active; 'I' for Inactive)
REMARK    1  A    between atoms: C_1  and  O_2
REMARK    2  A    between atoms: O_2  and  C_3
REMARK    3  A    between atoms: C_3  and  C_5
REMARK    4  A    between atoms: C_6  and  C_7
REMARK    5  A    between atoms: C_14  and  C_15
REMARK    6  A    between atoms: C_14  and  C_16
REMARK    7  A    between atoms: C_18  and  C_19
REMARK    8  A    between atoms: C_22  and  C_23
REMARK                            x       y       z     vdW  Elec       q    Type
REMARK                         _______ _______ _______ _____ _____    ______ ____
ROOT
ATOM      1  C   UNL     1       0.581  13.466  20.206  0.00  0.00    +0.000 C 
ATOM      2  C   UNL     1      -0.273  14.218  19.464  0.00  0.00    +0.000 C 
ATOM      3  C   UNL     1      -0.316  15.724  19.400  0.00  0.00    +0.000 C 
ATOM      4  N   UNL     1      -1.225  13.584  18.665  0.00  0.00    +0.000 N 
ATOM      5  C   UNL     1      -1.148  12.248  18.316  0.00  0.00    +0.000 C 
ATOM      6  C   UNL     1      -0.309  11.440  18.993  0.00  0.00    +0.000 C 
ATOM      7  C   UNL     1      -0.051  10.057  18.515  0.00  0.00    +0.000 C 
ATOM      8  O   UNL     1       0.768   9.340  19.089  0.00  0.00    +0.000 OA
ATOM      9  C   UNL     1      -0.736   9.602  17.242  0.00  0.00    +0.000 C 
ATOM     10  C   UNL     1      -2.127  10.235  17.077  0.00  0.00    +0.000 C 
ATOM     11  C   UNL     1      -2.704   9.867  15.698  0.00  0.00    +0.000 C 
ATOM     12  C   UNL     1      -3.085   9.687  18.157  0.00  0.00    +0.000 C 
ATOM     13  C   UNL     1      -2.001  11.773  17.168  0.00  0.00    +0.000 C 
ATOM     14  C   UNL     1       0.413  11.938  20.234  0.00  0.00    +0.000 C 
ATOM     15  H   UNL     1      -1.808  14.183  18.085  0.00  0.00    +0.000 HD
ENDROOT
BRANCH  14  16
ATOM     16  C   UNL     1      -0.300  11.461  21.484  0.00  0.00    +0.000 A 
ATOM     17  C   UNL     1      -0.113  10.393  22.338  0.00  0.00    +0.000 A 
ATOM     18  C   UNL     1      -1.137  10.474  23.315  0.00  0.00    +0.000 A 
ATOM     19  C   UNL     1      -1.889  11.585  23.000  0.00  0.00    +0.000 A 
ATOM     20  C   UNL     1      -3.074  12.226  23.602  0.00  0.00    +0.000 C 
ATOM     21  O   UNL     1      -1.390  12.185  21.887  0.00  0.00    +0.000 OA
ENDBRANCH  14  16
BRANCH   1  22
ATOM     22  C   UNL     1       1.708  14.029  21.000  0.00  0.00    +0.000 C 
ATOM     23  O   UNL     1       1.618  14.458  22.139  0.00  0.00    +0.000 OA
BRANCH  22  25
ATOM     24  C   UNL     1       4.004  14.511  20.954  0.00  0.00    +0.000 C 
ATOM     25  O   UNL     1       2.845  14.051  20.258  0.00  0.00    +0.000 OA
ENDBRANCH  22  25
ENDBRANCH   1  22
TORSDOF 3
ENDMDL
MODEL 6
REMARK VINA RESULT:      -6.1      2.206      4.732
REMARK  Name = 
REMARK  8 active torsions:
REMARK  status: ('A' for Active; 'I' for Inactive)
REMARK    1  A    between atoms: C_1  and  O_2
REMARK    2  A    between atoms: O_2  and  C_3
REMARK    3  A    between atoms: C_3  and  C_5
REMARK    4  A    between atoms: C_6  and  C_7
REMARK    5  A    between atoms: C_14  and  C_15
REMARK    6  A    between atoms: C_14  and  C_16
REMARK    7  A    between atoms: C_18  and  C_19
REMARK    8  A    between atoms: C_22  and  C_23
REMARK                            x       y       z     vdW  Elec       q    Type
REMARK                         _______ _______ _______ _____ _____    ______ ____
ROOT
ATOM      1  C   UNL     1       5.596   5.475  17.910  0.00  0.00    +0.000 C 
ATOM      2  C   UNL     1       5.531   4.561  16.907  0.00  0.00    +0.000 C 
ATOM      3  C   UNL     1       6.550   4.356  15.815  0.00  0.00    +0.000 C 
ATOM      4  N   UNL     1       4.433   3.703  16.835  0.00  0.00    +0.000 N 
ATOM      5  C   UNL     1       3.571   3.489  17.894  0.00  0.00    +0.000 C 
ATOM      6  C   UNL     1       3.587   4.342  18.937  0.00  0.00    +0.000 C 
ATOM      7  C   UNL     1       2.827   4.030  20.174  0.00  0.00    +0.000 C 
ATOM      8  O   UNL     1       2.896   4.770  21.154  0.00  0.00    +0.000 OA
ATOM      9  C   UNL     1       2.061   2.723  20.231  0.00  0.00    +0.000 C 
ATOM     10  C   UNL     1       1.509   2.317  18.854  0.00  0.00    +0.000 C 
ATOM     11  C   UNL     1       0.885   0.913  18.940  0.00  0.00    +0.000 C 
ATOM     12  C   UNL     1       0.404   3.305  18.419  0.00  0.00    +0.000 C 
ATOM     13  C   UNL     1       2.666   2.286  17.830  0.00  0.00    +0.000 C 
ATOM     14  C   UNL     1       4.412   5.619  18.880  0.00  0.00    +0.000 C 
ATOM     15  H   UNL     1       4.451   2.999  16.101  0.00  0.00    +0.000 HD
ENDROOT
BRANCH  14  16
ATOM     16  C   UNL     1       3.526   6.801  18.535  0.00  0.00    +0.000 A 
ATOM     17  C   UNL     1       3.345   7.553  17.392  0.00  0.00    +0.000 A 
ATOM     18  C   UNL     1       2.391   8.550  17.714  0.00  0.00    +0.000 A 
ATOM     19  C   UNL     1       2.046   8.349  19.033  0.00  0.00    +0.000 A 
ATOM     20  C   UNL     1       1.120   9.020  19.965  0.00  0.00    +0.000 C 
ATOM     21  O   UNL     1       2.736   7.293  19.538  0.00  0.00    +0.000 OA
ENDBRANCH  14  16
BRANCH   1  22
ATOM     22  C   UNL     1       6.769   6.359  18.155  0.00  0.00    +0.000 C 
ATOM     23  O   UNL     1       7.607   6.188  19.026  0.00  0.00    +0.000 OA
BRANCH  22  25
ATOM     24  C   UNL     1       7.762   8.396  17.546  0.00  0.00    +0.000 C 
ATOM     25  O   UNL     1       6.747   7.420  17.308  0.00  0.00    +0.000 OA
ENDBRANCH  22  25
ENDBRANCH   1  22
TORSDOF 3
ENDMDL
MODEL 7
REMARK VINA RESULT:      -6.1      3.718      8.255
REMARK  Name = 
REMARK  8 active torsions:
REMARK  status: ('A' for Active; 'I' for Inactive)
REMARK    1  A    between atoms: C_1  and  O_2
REMARK    2  A    between atoms: O_2  and  C_3
REMARK    3  A    between atoms: C_3  and  C_5
REMARK    4  A    between atoms: C_6  and  C_7
REMARK    5  A    between atoms: C_14  and  C_15
REMARK    6  A    between atoms: C_14  and  C_16
REMARK    7  A    between atoms: C_18  and  C_19
REMARK    8  A    between atoms: C_22  and  C_23
REMARK                            x       y       z     vdW  Elec       q    Type
REMARK                         _______ _______ _______ _____ _____    ______ ____
ROOT
ATOM      1  C   UNL     1       0.552  10.208  19.539  0.00  0.00    +0.000 C 
ATOM      2  C   UNL     1       0.493   9.594  20.750  0.00  0.00    +0.000 C 
ATOM      3  C   UNL     1       1.308   8.405  21.192  0.00  0.00    +0.000 C 
ATOM      4  N   UNL     1      -0.393  10.072  21.717  0.00  0.00    +0.000 N 
ATOM      5  C   UNL     1      -0.975  11.324  21.653  0.00  0.00    +0.000 C 
ATOM      6  C   UNL     1      -0.943  12.006  20.491  0.00  0.00    +0.000 C 
ATOM      7  C   UNL     1      -1.373  13.426  20.442  0.00  0.00    +0.000 C 
ATOM      8  O   UNL     1      -1.278  14.073  19.400  0.00  0.00    +0.000 OA
ATOM      9  C   UNL     1      -1.822  14.082  21.733  0.00  0.00    +0.000 C 
ATOM     10  C   UNL     1      -2.525  13.087  22.672  0.00  0.00    +0.000 C 
ATOM     11  C   UNL     1      -2.811  13.764  24.024  0.00  0.00    +0.000 C 
ATOM     12  C   UNL     1      -3.875  12.652  22.060  0.00  0.00    +0.000 C 
ATOM     13  C   UNL     1      -1.601  11.871  22.910  0.00  0.00    +0.000 C 
ATOM     14  C   UNL     1      -0.432  11.345  19.220  0.00  0.00    +0.000 C 
ATOM     15  H   UNL     1      -0.366   9.618  22.626  0.00  0.00    +0.000 HD
ENDROOT
BRANCH  14  16
ATOM     16  C   UNL     1      -1.595  10.877  18.368  0.00  0.00    +0.000 A 
ATOM     17  C   UNL     1      -1.693  10.079  17.246  0.00  0.00    +0.000 A 
ATOM     18  C   UNL     1      -3.066  10.042  16.896  0.00  0.00    +0.000 A 
ATOM     19  C   UNL     1      -3.725  10.822  17.822  0.00  0.00    +0.000 A 
ATOM     20  C   UNL     1      -5.138  11.193  18.031  0.00  0.00    +0.000 C 
ATOM     21  O   UNL     1      -2.838  11.336  18.714  0.00  0.00    +0.000 OA
ENDBRANCH  14  16
BRANCH   1  22
ATOM     22  C   UNL     1       1.537   9.861  18.478  0.00  0.00    +0.000 C 
ATOM     23  O   UNL     1       2.325  10.642  17.970  0.00  0.00    +0.000 OA
BRANCH  22  25
ATOM     24  C   UNL     1       2.624   7.881  17.843  0.00  0.00    +0.000 C 
ATOM     25  O   UNL     1       1.397   8.561  18.110  0.00  0.00    +0.000 OA
ENDBRANCH  22  25
ENDBRANCH   1  22
TORSDOF 3
ENDMDL
MODEL 8
REMARK VINA RESULT:      -6.1      2.199      4.812
REMARK  Name = 
REMARK  8 active torsions:
REMARK  status: ('A' for Active; 'I' for Inactive)
REMARK    1  A    between atoms: C_1  and  O_2
REMARK    2  A    between atoms: O_2  and  C_3
REMARK    3  A    between atoms: C_3  and  C_5
REMARK    4  A    between atoms: C_6  and  C_7
REMARK    5  A    between atoms: C_14  and  C_15
REMARK    6  A    between atoms: C_14  and  C_16
REMARK    7  A    between atoms: C_18  and  C_19
REMARK    8  A    between atoms: C_22  and  C_23
REMARK                            x       y       z     vdW  Elec       q    Type
REMARK                         _______ _______ _______ _____ _____    ______ ____
ROOT
ATOM      1  C   UNL     1       5.403   5.663  17.349  0.00  0.00    +0.000 C 
ATOM      2  C   UNL     1       5.202   4.776  16.340  0.00  0.00    +0.000 C 
ATOM      3  C   UNL     1       6.046   4.621  15.100  0.00  0.00    +0.000 C 
ATOM      4  N   UNL     1       4.118   3.899  16.407  0.00  0.00    +0.000 N 
ATOM      5  C   UNL     1       3.429   3.639  17.577  0.00  0.00    +0.000 C 
ATOM      6  C   UNL     1       3.590   4.463  18.631  0.00  0.00    +0.000 C 
ATOM      7  C   UNL     1       3.031   4.102  19.959  0.00  0.00    +0.000 C 
ATOM      8  O   UNL     1       3.236   4.815  20.940  0.00  0.00    +0.000 OA
ATOM      9  C   UNL     1       2.302   2.779  20.091  0.00  0.00    +0.000 C 
ATOM     10  C   UNL     1       1.554   2.401  18.801  0.00  0.00    +0.000 C 
ATOM     11  C   UNL     1       0.972   0.983  18.937  0.00  0.00    +0.000 C 
ATOM     12  C   UNL     1       0.382   3.379  18.568  0.00  0.00    +0.000 C 
ATOM     13  C   UNL     1       2.544   2.420  17.614  0.00  0.00    +0.000 C 
ATOM     14  C   UNL     1       4.377   5.756  18.490  0.00  0.00    +0.000 C 
ATOM     15  H   UNL     1       4.035   3.216  15.658  0.00  0.00    +0.000 HD
ENDROOT
BRANCH  14  16
ATOM     16  C   UNL     1       3.432   6.930  18.318  0.00  0.00    +0.000 A 
ATOM     17  C   UNL     1       3.128   7.760  17.259  0.00  0.00    +0.000 A 
ATOM     18  C   UNL     1       2.179   8.696  17.741  0.00  0.00    +0.000 A 
ATOM     19  C   UNL     1       1.961   8.384  19.065  0.00  0.00    +0.000 A 
ATOM     20  C   UNL     1       1.105   8.950  20.126  0.00  0.00    +0.000 C 
ATOM     21  O   UNL     1       2.723   7.317  19.423  0.00  0.00    +0.000 OA
ENDBRANCH  14  16
BRANCH   1  22
ATOM     22  C   UNL     1       6.587   6.562  17.440  0.00  0.00    +0.000 C 
ATOM     23  O   UNL     1       6.601   7.738  17.114  0.00  0.00    +0.000 OA
BRANCH  22  25
ATOM     24  C   UNL     1       7.816   5.842  19.305  0.00  0.00    +0.000 C 
ATOM     25  O   UNL     1       7.670   5.874  17.884  0.00  0.00    +0.000 OA
ENDBRANCH  22  25
ENDBRANCH   1  22
TORSDOF 3
ENDMDL
MODEL 9
REMARK VINA RESULT:      -6.0      6.287      8.887
REMARK  Name = 
REMARK  8 active torsions:
REMARK  status: ('A' for Active; 'I' for Inactive)
REMARK    1  A    between atoms: C_1  and  O_2
REMARK    2  A    between atoms: O_2  and  C_3
REMARK    3  A    between atoms: C_3  and  C_5
REMARK    4  A    between atoms: C_6  and  C_7
REMARK    5  A    between atoms: C_14  and  C_15
REMARK    6  A    between atoms: C_14  and  C_16
REMARK    7  A    between atoms: C_18  and  C_19
REMARK    8  A    between atoms: C_22  and  C_23
REMARK                            x       y       z     vdW  Elec       q    Type
REMARK                         _______ _______ _______ _____ _____    ______ ____
ROOT
ATOM      1  C   UNL     1       0.331  13.705  20.590  0.00  0.00    +0.000 C 
ATOM      2  C   UNL     1      -0.020  14.432  19.497  0.00  0.00    +0.000 C 
ATOM      3  C   UNL     1       0.407  15.843  19.185  0.00  0.00    +0.000 C 
ATOM      4  N   UNL     1      -0.859  13.861  18.538  0.00  0.00    +0.000 N 
ATOM      5  C   UNL     1      -1.090  12.501  18.451  0.00  0.00    +0.000 C 
ATOM      6  C   UNL     1      -0.752  11.710  19.487  0.00  0.00    +0.000 C 
ATOM      7  C   UNL     1      -0.796  10.231  19.347  0.00  0.00    +0.000 C 
ATOM      8  O   UNL     1      -0.420   9.505  20.267  0.00  0.00    +0.000 OA
ATOM      9  C   UNL     1      -1.205   9.652  18.008  0.00  0.00    +0.000 C 
ATOM     10  C   UNL     1      -2.242  10.533  17.291  0.00  0.00    +0.000 C 
ATOM     11  C   UNL     1      -2.498   9.985  15.876  0.00  0.00    +0.000 C 
ATOM     12  C   UNL     1      -3.580  10.504  18.063  0.00  0.00    +0.000 C 
ATOM     13  C   UNL     1      -1.694  11.973  17.175  0.00  0.00    +0.000 C 
ATOM     14  C   UNL     1      -0.286  12.313  20.802  0.00  0.00    +0.000 C 
ATOM     15  H   UNL     1      -1.053  14.420  17.710  0.00  0.00    +0.000 HD
ENDROOT
BRANCH  14  16
ATOM     16  C   UNL     1      -1.425  12.335  21.803  0.00  0.00    +0.000 A 
ATOM     17  C   UNL     1      -1.609  11.771  23.049  0.00  0.00    +0.000 A 
ATOM     18  C   UNL     1      -2.913  12.136  23.468  0.00  0.00    +0.000 A 
ATOM     19  C   UNL     1      -3.449  12.899  22.453  0.00  0.00    +0.000 A 
ATOM     20  C   UNL     1      -4.743  13.582  22.256  0.00  0.00    +0.000 C 
ATOM     21  O   UNL     1      -2.554  13.018  21.438  0.00  0.00    +0.000 OA
ENDBRANCH  14  16
BRANCH   1  22
ATOM     22  C   UNL     1       1.309  14.165  21.615  0.00  0.00    +0.000 C 
ATOM     23  O   UNL     1       1.086  15.008  22.469  0.00  0.00    +0.000 OA
BRANCH  22  25
ATOM     24  C   UNL     1       3.514  14.384  20.843  0.00  0.00    +0.000 C 
ATOM     25  O   UNL     1       2.508  13.557  21.430  0.00  0.00    +0.000 OA
ENDBRANCH  22  25
ENDBRANCH   1  22
TORSDOF 3
ENDMDL
