MODEL 1
REMARK VINA RESULT:      -6.4      0.000      0.000
REMARK  Name = 
REMARK  10 active torsions:
REMARK  status: ('A' for Active; 'I' for Inactive)
REMARK    1  A    between atoms: N_1  and  C_2
REMARK    2  A    between atoms: C_2  and  C_3
REMARK    3  A    between atoms: C_3  and  C_4
REMARK    4  A    between atoms: C_4  and  C_5
REMARK    5  A    between atoms: C_5  and  C_6
REMARK    6  A    between atoms: C_6  and  C_7
REMARK    7  A    between atoms: C_7  and  O_8
REMARK    8  A    between atoms: O_8  and  C_9
REMARK    9  A    between atoms: C_12  and  S_13
REMARK   10  A    between atoms: S_13  and  N_14
REMARK                            x       y       z     vdW  Elec       q    Type
REMARK                         _______ _______ _______ _____ _____    ______ ____
ROOT
ATOM      1  C   UNL     1       3.594   6.075  18.979  0.00  0.00    +0.000 A 
ATOM      2  C   UNL     1       4.514   5.158  19.481  0.00  0.00    +0.000 A 
ATOM      3  C   UNL     1       5.582   4.746  18.684  0.00  0.00    +0.000 A 
ATOM      4  C   UNL     1       5.703   5.246  17.383  0.00  0.00    +0.000 A 
ATOM      5  C   UNL     1       4.778   6.153  16.874  0.00  0.00    +0.000 A 
ATOM      6  C   UNL     1       3.713   6.563  17.673  0.00  0.00    +0.000 A 
ENDROOT
BRANCH   4   7
ATOM      7  S   UNL     1       7.043   4.719  16.366  0.00  0.00    +0.000 S 
ATOM      8  O   UNL     1       7.292   5.719  15.354  0.00  0.00    +0.000 OA
ATOM      9  O   UNL     1       8.087   4.181  17.205  0.00  0.00    +0.000 OA
BRANCH   7  10
ATOM     10  N   UNL     1       6.343   3.416  15.580  0.00  0.00    +0.000 NA
ATOM     11  H   UNL     1       6.615   3.406  14.599  0.00  0.00    +0.000 HD
ATOM     12  H   UNL     1       6.533   2.553  16.087  0.00  0.00    +0.000 HD
ENDBRANCH   7  10
ENDBRANCH   4   7
BRANCH   1  13
ATOM     13  O   UNL     1       2.590   6.436  19.846  0.00  0.00    +0.000 OA
BRANCH  13  14
ATOM     14  C   UNL     1       2.296   5.409  20.777  0.00  0.00    +0.000 C 
BRANCH  14  15
ATOM     15  C   UNL     1       1.011   4.698  20.397  0.00  0.00    +0.000 C 
BRANCH  15  16
ATOM     16  C   UNL     1       1.241   3.220  20.664  0.00  0.00    +0.000 C 
BRANCH  16  17
ATOM     17  C   UNL     1       1.073   2.363  19.428  0.00  0.00    +0.000 C 
BRANCH  17  18
ATOM     18  C   UNL     1       1.325   3.230  18.198  0.00  0.00    +0.000 C 
BRANCH  18  19
ATOM     19  C   UNL     1       2.599   2.806  17.491  0.00  0.00    +0.000 C 
BRANCH  19  20
ATOM     20  N   UNL     1       3.090   1.560  18.063  0.00  0.00    +0.000 NA
ATOM     21  H   UNL     1       2.310   1.052  18.473  0.00  0.00    +0.000 HD
ATOM     22  H   UNL     1       3.734   1.763  18.826  0.00  0.00    +0.000 HD
ENDBRANCH  19  20
ENDBRANCH  18  19
ENDBRANCH  17  18
ENDBRANCH  16  17
ENDBRANCH  15  16
ENDBRANCH  14  15
ENDBRANCH  13  14
ENDBRANCH   1  13
TORSDOF 10
ENDMDL
MODEL 2
REMARK VINA RESULT:      -6.3      1.111      1.705
REMARK  Name = 
REMARK  10 active torsions:
REMARK  status: ('A' for Active; 'I' for Inactive)
REMARK    1  A    between atoms: N_1  and  C_2
REMARK    2  A    between atoms: C_2  and  C_3
REMARK    3  A    between atoms: C_3  and  C_4
REMARK    4  A    between atoms: C_4  and  C_5
REMARK    5  A    between atoms: C_5  and  C_6
REMARK    6  A    between atoms: C_6  and  C_7
REMARK    7  A    between atoms: C_7  and  O_8
REMARK    8  A    between atoms: O_8  and  C_9
REMARK    9  A    between atoms: C_12  and  S_13
REMARK   10  A    between atoms: S_13  and  N_14
REMARK                            x       y       z     vdW  Elec       q    Type
REMARK                         _______ _______ _______ _____ _____    ______ ____
ROOT
ATOM      1  C   UNL     1       3.597   5.659  19.088  0.00  0.00    +0.000 A 
ATOM      2  C   UNL     1       3.478   5.858  17.714  0.00  0.00    +0.000 A 
ATOM      3  C   UNL     1       4.519   5.477  16.870  0.00  0.00    +0.000 A 
ATOM      4  C   UNL     1       5.680   4.917  17.417  0.00  0.00    +0.000 A 
ATOM      5  C   UNL     1       5.807   4.729  18.790  0.00  0.00    +0.000 A 
ATOM      6  C   UNL     1       4.763   5.110  19.631  0.00  0.00    +0.000 A 
ENDROOT
BRANCH   4   7
ATOM      7  S   UNL     1       7.005   4.445  16.356  0.00  0.00    +0.000 S 
ATOM      8  O   UNL     1       8.170   4.148  17.157  0.00  0.00    +0.000 OA
ATOM      9  O   UNL     1       6.503   3.546  15.345  0.00  0.00    +0.000 OA
BRANCH   7  10
ATOM     10  N   UNL     1       7.320   5.899  15.586  0.00  0.00    +0.000 NA
ATOM     11  H   UNL     1       7.291   5.779  14.575  0.00  0.00    +0.000 HD
ATOM     12  H   UNL     1       6.712   6.631  15.949  0.00  0.00    +0.000 HD
ENDBRANCH   7  10
ENDBRANCH   4   7
BRANCH   1  13
ATOM     13  O   UNL     1       2.509   6.047  19.835  0.00  0.00    +0.000 OA
BRANCH  13  14
ATOM     14  C   UNL     1       2.139   5.064  20.787  0.00  0.00    +0.000 C 
BRANCH  14  15
ATOM     15  C   UNL     1       0.829   4.409  20.395  0.00  0.00    +0.000 C 
BRANCH  15  16
ATOM     16  C   UNL     1       1.030   2.912  20.555  0.00  0.00    +0.000 C 
BRANCH  16  17
ATOM     17  C   UNL     1       2.357   2.431  20.008  0.00  0.00    +0.000 C 
BRANCH  17  18
ATOM     18  C   UNL     1       2.178   2.089  18.532  0.00  0.00    +0.000 C 
BRANCH  18  19
ATOM     19  C   UNL     1       3.524   1.921  17.851  0.00  0.00    +0.000 C 
BRANCH  19  20
ATOM     20  N   UNL     1       4.246   0.808  18.452  0.00  0.00    +0.000 NA
ATOM     21  H   UNL     1       3.718  -0.048  18.309  0.00  0.00    +0.000 HD
ATOM     22  H   UNL     1       4.307   0.944  19.461  0.00  0.00    +0.000 HD
ENDBRANCH  19  20
ENDBRANCH  18  19
ENDBRANCH  17  18
ENDBRANCH  16  17
ENDBRANCH  15  16
ENDBRANCH  14  15
ENDBRANCH  13  14
ENDBRANCH   1  13
TORSDOF 10
ENDMDL
MODEL 3
REMARK VINA RESULT:      -6.2      0.998      1.624
REMARK  Name = 
REMARK  10 active torsions:
REMARK  status: ('A' for Active; 'I' for Inactive)
REMARK    1  A    between atoms: N_1  and  C_2
REMARK    2  A    between atoms: C_2  and  C_3
REMARK    3  A    between atoms: C_3  and  C_4
REMARK    4  A    between atoms: C_4  and  C_5
REMARK    5  A    between atoms: C_5  and  C_6
REMARK    6  A    between atoms: C_6  and  C_7
REMARK    7  A    between atoms: C_7  and  O_8
REMARK    8  A    between atoms: O_8  and  C_9
REMARK    9  A    between atoms: C_12  and  S_13
REMARK   10  A    between atoms: S_13  and  N_14
REMARK                            x       y       z     vdW  Elec       q    Type
REMARK                         _______ _______ _______ _____ _____    ______ ____
ROOT
ATOM      1  C   UNL     1       3.660   5.914  19.165  0.00  0.00    +0.000 A 
ATOM      2  C   UNL     1       3.555   6.379  17.856  0.00  0.00    +0.000 A 
ATOM      3  C   UNL     1       4.517   6.015  16.916  0.00  0.00    +0.000 A 
ATOM      4  C   UNL     1       5.587   5.201  17.305  0.00  0.00    +0.000 A 
ATOM      5  C   UNL     1       5.702   4.746  18.616  0.00  0.00    +0.000 A 
ATOM      6  C   UNL     1       4.738   5.111  19.553  0.00  0.00    +0.000 A 
ENDROOT
BRANCH   4   7
ATOM      7  S   UNL     1       6.814   4.748  16.125  0.00  0.00    +0.000 S 
ATOM      8  O   UNL     1       6.335   3.628  15.349  0.00  0.00    +0.000 OA
ATOM      9  O   UNL     1       7.350   5.944  15.520  0.00  0.00    +0.000 OA
BRANCH   7  10
ATOM     10  N   UNL     1       8.010   4.147  17.133  0.00  0.00    +0.000 NA
ATOM     11  H   UNL     1       8.810   3.833  16.586  0.00  0.00    +0.000 HD
ATOM     12  H   UNL     1       8.228   4.821  17.865  0.00  0.00    +0.000 HD
ENDBRANCH   7  10
ENDBRANCH   4   7
BRANCH   1  13
ATOM     13  O   UNL     1       2.651   6.310  20.012  0.00  0.00    +0.000 OA
BRANCH  13  14
ATOM     14  C   UNL     1       1.662   5.306  20.168  0.00  0.00    +0.000 C 
BRANCH  14  15
ATOM     15  C   UNL     1       2.046   4.348  21.279  0.00  0.00    +0.000 C 
BRANCH  15  16
ATOM     16  C   UNL     1       1.520   2.982  20.872  0.00  0.00    +0.000 C 
BRANCH  16  17
ATOM     17  C   UNL     1       0.858   2.984  19.512  0.00  0.00    +0.000 C 
BRANCH  17  18
ATOM     18  C   UNL     1       1.505   1.901  18.655  0.00  0.00    +0.000 C 
BRANCH  18  19
ATOM     19  C   UNL     1       2.675   2.462  17.868  0.00  0.00    +0.000 C 
BRANCH  19  20
ATOM     20  N   UNL     1       3.860   1.645  18.096  0.00  0.00    +0.000 NA
ATOM     21  H   UNL     1       4.320   1.956  18.948  0.00  0.00    +0.000 HD
ATOM     22  H   UNL     1       4.527   1.789  17.339  0.00  0.00    +0.000 HD
ENDBRANCH  19  20
ENDBRANCH  18  19
ENDBRANCH  17  18
ENDBRANCH  16  17
ENDBRANCH  15  16
ENDBRANCH  14  15
ENDBRANCH  13  14
ENDBRANCH   1  13
TORSDOF 10
ENDMDL
MODEL 4
REMARK VINA RESULT:      -6.2      1.698      2.332
REMARK  Name = 
REMARK  10 active torsions:
REMARK  status: ('A' for Active; 'I' for Inactive)
REMARK    1  A    between atoms: N_1  and  C_2
REMARK    2  A    between atoms: C_2  and  C_3
REMARK    3  A    between atoms: C_3  and  C_4
REMARK    4  A    between atoms: C_4  and  C_5
REMARK    5  A    between atoms: C_5  and  C_6
REMARK    6  A    between atoms: C_6  and  C_7
REMARK    7  A    between atoms: C_7  and  O_8
REMARK    8  A    between atoms: O_8  and  C_9
REMARK    9  A    between atoms: C_12  and  S_13
REMARK   10  A    between atoms: S_13  and  N_14
REMARK                            x       y       z     vdW  Elec       q    Type
REMARK                         _______ _______ _______ _____ _____    ______ ____
ROOT
ATOM      1  C   UNL     1       2.830   4.753  17.690  0.00  0.00    +0.000 A 
ATOM      2  C   UNL     1       3.601   3.790  17.043  0.00  0.00    +0.000 A 
ATOM      3  C   UNL     1       4.952   4.035  16.804  0.00  0.00    +0.000 A 
ATOM      4  C   UNL     1       5.512   5.256  17.200  0.00  0.00    +0.000 A 
ATOM      5  C   UNL     1       4.741   6.226  17.834  0.00  0.00    +0.000 A 
ATOM      6  C   UNL     1       3.391   5.977  18.073  0.00  0.00    +0.000 A 
ENDROOT
BRANCH   4   7
ATOM      7  S   UNL     1       7.216   5.577  16.888  0.00  0.00    +0.000 S 
ATOM      8  O   UNL     1       7.450   5.550  15.462  0.00  0.00    +0.000 OA
ATOM      9  O   UNL     1       7.652   6.665  17.730  0.00  0.00    +0.000 OA
BRANCH   7  10
ATOM     10  N   UNL     1       7.914   4.186  17.507  0.00  0.00    +0.000 NA
ATOM     11  H   UNL     1       7.706   4.097  18.501  0.00  0.00    +0.000 HD
ATOM     12  H   UNL     1       7.657   3.378  16.941  0.00  0.00    +0.000 HD
ENDBRANCH   7  10
ENDBRANCH   4   7
BRANCH   1  13
ATOM     13  O   UNL     1       1.515   4.410  17.900  0.00  0.00    +0.000 OA
BRANCH  13  14
ATOM     14  C   UNL     1       1.358   3.021  18.132  0.00  0.00    +0.000 C 
BRANCH  14  15
ATOM     15  C   UNL     1       0.801   2.773  19.521  0.00  0.00    +0.000 C 
BRANCH  15  16
ATOM     16  C   UNL     1       1.133   4.005  20.345  0.00  0.00    +0.000 C 
BRANCH  16  17
ATOM     17  C   UNL     1       2.060   3.710  21.505  0.00  0.00    +0.000 C 
BRANCH  17  18
ATOM     18  C   UNL     1       2.926   2.508  21.140  0.00  0.00    +0.000 C 
BRANCH  18  19
ATOM     19  C   UNL     1       4.218   2.954  20.482  0.00  0.00    +0.000 C 
BRANCH  19  20
ATOM     20  N   UNL     1       4.866   1.815  19.845  0.00  0.00    +0.000 NA
ATOM     21  H   UNL     1       4.220   1.031  19.827  0.00  0.00    +0.000 HD
ATOM     22  H   UNL     1       5.665   1.518  20.404  0.00  0.00    +0.000 HD
ENDBRANCH  19  20
ENDBRANCH  18  19
ENDBRANCH  17  18
ENDBRANCH  16  17
ENDBRANCH  15  16
ENDBRANCH  14  15
ENDBRANCH  13  14
ENDBRANCH   1  13
TORSDOF 10
ENDMDL
MODEL 5
REMARK VINA RESULT:      -6.2      1.090      1.168
REMARK  Name = 
REMARK  10 active torsions:
REMARK  status: ('A' for Active; 'I' for Inactive)
REMARK    1  A    between atoms: N_1  and  C_2
REMARK    2  A    between atoms: C_2  and  C_3
REMARK    3  A    between atoms: C_3  and  C_4
REMARK    4  A    between atoms: C_4  and  C_5
REMARK    5  A    between atoms: C_5  and  C_6
REMARK    6  A    between atoms: C_6  and  C_7
REMARK    7  A    between atoms: C_7  and  O_8
REMARK    8  A    between atoms: O_8  and  C_9
REMARK    9  A    between atoms: C_12  and  S_13
REMARK   10  A    between atoms: S_13  and  N_14
REMARK                            x       y       z     vdW  Elec       q    Type
REMARK                         _______ _______ _______ _____ _____    ______ ____
ROOT
ATOM      1  C   UNL     1       3.273   5.798  19.125  0.00  0.00    +0.000 A 
ATOM      2  C   UNL     1       4.380   5.084  19.580  0.00  0.00    +0.000 A 
ATOM      3  C   UNL     1       5.555   5.084  18.832  0.00  0.00    +0.000 A 
ATOM      4  C   UNL     1       5.602   5.787  17.622  0.00  0.00    +0.000 A 
ATOM      5  C   UNL     1       4.495   6.490  17.158  0.00  0.00    +0.000 A 
ATOM      6  C   UNL     1       3.321   6.489  17.909  0.00  0.00    +0.000 A 
ENDROOT
BRANCH   4   7
ATOM      7  S   UNL     1       7.082   5.780  16.665  0.00  0.00    +0.000 S 
ATOM      8  O   UNL     1       7.679   7.095  16.705  0.00  0.00    +0.000 OA
ATOM      9  O   UNL     1       7.825   4.576  16.955  0.00  0.00    +0.000 OA
BRANCH   7  10
ATOM     10  N   UNL     1       6.454   5.593  15.123  0.00  0.00    +0.000 NA
ATOM     11  H   UNL     1       6.503   4.617  14.836  0.00  0.00    +0.000 HD
ATOM     12  H   UNL     1       5.528   6.012  15.065  0.00  0.00    +0.000 HD
ENDBRANCH   7  10
ENDBRANCH   4   7
BRANCH   1  13
ATOM     13  O   UNL     1       2.168   5.755  19.942  0.00  0.00    +0.000 OA
BRANCH  13  14
ATOM     14  C   UNL     1       2.277   4.746  20.933  0.00  0.00    +0.000 C 
BRANCH  14  15
ATOM     15  C   UNL     1       1.117   3.775  20.833  0.00  0.00    +0.000 C 
BRANCH  15  16
ATOM     16  C   UNL     1       0.903   3.508  19.352  0.00  0.00    +0.000 C 
BRANCH  16  17
ATOM     17  C   UNL     1       1.435   2.162  18.912  0.00  0.00    +0.000 C 
BRANCH  17  18
ATOM     18  C   UNL     1       2.487   2.386  17.829  0.00  0.00    +0.000 C 
BRANCH  18  19
ATOM     19  C   UNL     1       3.675   1.464  18.031  0.00  0.00    +0.000 C 
BRANCH  19  20
ATOM     20  N   UNL     1       4.273   1.709  19.336  0.00  0.00    +0.000 NA
ATOM     21  H   UNL     1       5.083   1.105  19.450  0.00  0.00    +0.000 HD
ATOM     22  H   UNL     1       3.615   1.450  20.070  0.00  0.00    +0.000 HD
ENDBRANCH  19  20
ENDBRANCH  18  19
ENDBRANCH  17  18
ENDBRANCH  16  17
ENDBRANCH  15  16
ENDBRANCH  14  15
ENDBRANCH  13  14
ENDBRANCH   1  13
TORSDOF 10
ENDMDL
MODEL 6
REMARK VINA RESULT:      -6.2      1.064      1.221
REMARK  Name = 
REMARK  10 active torsions:
REMARK  status: ('A' for Active; 'I' for Inactive)
REMARK    1  A    between atoms: N_1  and  C_2
REMARK    2  A    between atoms: C_2  and  C_3
REMARK    3  A    between atoms: C_3  and  C_4
REMARK    4  A    between atoms: C_4  and  C_5
REMARK    5  A    between atoms: C_5  and  C_6
REMARK    6  A    between atoms: C_6  and  C_7
REMARK    7  A    between atoms: C_7  and  O_8
REMARK    8  A    between atoms: O_8  and  C_9
REMARK    9  A    between atoms: C_12  and  S_13
REMARK   10  A    between atoms: S_13  and  N_14
REMARK                            x       y       z     vdW  Elec       q    Type
REMARK                         _______ _______ _______ _____ _____    ______ ____
ROOT
ATOM      1  C   UNL     1       3.597   5.853  19.167  0.00  0.00    +0.000 A 
ATOM      2  C   UNL     1       4.689   5.102  19.596  0.00  0.00    +0.000 A 
ATOM      3  C   UNL     1       5.694   4.769  18.690  0.00  0.00    +0.000 A 
ATOM      4  C   UNL     1       5.583   5.178  17.356  0.00  0.00    +0.000 A 
ATOM      5  C   UNL     1       4.487   5.917  16.921  0.00  0.00    +0.000 A 
ATOM      6  C   UNL     1       3.484   6.249  17.830  0.00  0.00    +0.000 A 
ENDROOT
BRANCH   4   7
ATOM      7  S   UNL     1       6.844   4.748  16.203  0.00  0.00    +0.000 S 
ATOM      8  O   UNL     1       6.398   3.627  15.407  0.00  0.00    +0.000 OA
ATOM      9  O   UNL     1       7.381   5.954  15.620  0.00  0.00    +0.000 OA
BRANCH   7  10
ATOM     10  N   UNL     1       8.021   4.153  17.236  0.00  0.00    +0.000 NA
ATOM     11  H   UNL     1       8.444   3.313  16.846  0.00  0.00    +0.000 HD
ATOM     12  H   UNL     1       8.680   4.890  17.484  0.00  0.00    +0.000 HD
ENDBRANCH   7  10
ENDBRANCH   4   7
BRANCH   1  13
ATOM     13  O   UNL     1       2.669   6.150  20.138  0.00  0.00    +0.000 OA
BRANCH  13  14
ATOM     14  C   UNL     1       1.638   5.179  20.204  0.00  0.00    +0.000 C 
BRANCH  14  15
ATOM     15  C   UNL     1       1.966   4.125  21.244  0.00  0.00    +0.000 C 
BRANCH  15  16
ATOM     16  C   UNL     1       1.765   2.778  20.571  0.00  0.00    +0.000 C 
BRANCH  16  17
ATOM     17  C   UNL     1       0.999   2.876  19.269  0.00  0.00    +0.000 C 
BRANCH  17  18
ATOM     18  C   UNL     1       1.940   2.511  18.125  0.00  0.00    +0.000 C 
BRANCH  18  19
ATOM     19  C   UNL     1       3.138   1.733  18.638  0.00  0.00    +0.000 C 
BRANCH  19  20
ATOM     20  N   UNL     1       4.206   1.763  17.647  0.00  0.00    +0.000 NA
ATOM     21  H   UNL     1       4.250   0.862  17.178  0.00  0.00    +0.000 HD
ATOM     22  H   UNL     1       5.103   1.889  18.114  0.00  0.00    +0.000 HD
ENDBRANCH  19  20
ENDBRANCH  18  19
ENDBRANCH  17  18
ENDBRANCH  16  17
ENDBRANCH  15  16
ENDBRANCH  14  15
ENDBRANCH  13  14
ENDBRANCH   1  13
TORSDOF 10
ENDMDL
MODEL 7
REMARK VINA RESULT:      -6.1      1.095      1.385
REMARK  Name = 
REMARK  10 active torsions:
REMARK  status: ('A' for Active; 'I' for Inactive)
REMARK    1  A    between atoms: N_1  and  C_2
REMARK    2  A    between atoms: C_2  and  C_3
REMARK    3  A    between atoms: C_3  and  C_4
REMARK    4  A    between atoms: C_4  and  C_5
REMARK    5  A    between atoms: C_5  and  C_6
REMARK    6  A    between atoms: C_6  and  C_7
REMARK    7  A    between atoms: C_7  and  O_8
REMARK    8  A    between atoms: O_8  and  C_9
REMARK    9  A    between atoms: C_12  and  S_13
REMARK   10  A    between atoms: S_13  and  N_14
REMARK                            x       y       z     vdW  Elec       q    Type
REMARK                         _______ _______ _______ _____ _____    ______ ____
ROOT
ATOM      1  C   UNL     1       3.365   5.454  19.019  0.00  0.00    +0.000 A 
ATOM      2  C   UNL     1       4.445   4.776  19.579  0.00  0.00    +0.000 A 
ATOM      3  C   UNL     1       5.586   4.544  18.812  0.00  0.00    +0.000 A 
ATOM      4  C   UNL     1       5.623   4.979  17.483  0.00  0.00    +0.000 A 
ATOM      5  C   UNL     1       4.540   5.646  16.916  0.00  0.00    +0.000 A 
ATOM      6  C   UNL     1       3.402   5.877  17.685  0.00  0.00    +0.000 A 
ENDROOT
BRANCH   4   7
ATOM      7  S   UNL     1       7.057   4.677  16.505  0.00  0.00    +0.000 S 
ATOM      8  O   UNL     1       8.125   4.214  17.360  0.00  0.00    +0.000 OA
ATOM      9  O   UNL     1       6.668   3.987  15.299  0.00  0.00    +0.000 OA
BRANCH   7  10
ATOM     10  N   UNL     1       7.459   6.239  16.051  0.00  0.00    +0.000 NA
ATOM     11  H   UNL     1       7.463   6.854  16.863  0.00  0.00    +0.000 HD
ATOM     12  H   UNL     1       8.321   6.239  15.508  0.00  0.00    +0.000 HD
ENDBRANCH   7  10
ENDBRANCH   4   7
BRANCH   1  13
ATOM     13  O   UNL     1       2.295   5.654  19.860  0.00  0.00    +0.000 OA
BRANCH  13  14
ATOM     14  C   UNL     1       2.435   4.940  21.077  0.00  0.00    +0.000 C 
BRANCH  14  15
ATOM     15  C   UNL     1       1.761   3.585  20.980  0.00  0.00    +0.000 C 
BRANCH  15  16
ATOM     16  C   UNL     1       0.637   3.734  19.967  0.00  0.00    +0.000 C 
BRANCH  16  17
ATOM     17  C   UNL     1       0.849   2.900  18.722  0.00  0.00    +0.000 C 
BRANCH  17  18
ATOM     18  C   UNL     1       1.900   1.836  19.024  0.00  0.00    +0.000 C 
BRANCH  18  19
ATOM     19  C   UNL     1       3.015   1.872  17.994  0.00  0.00    +0.000 C 
BRANCH  19  20
ATOM     20  N   UNL     1       4.027   0.880  18.327  0.00  0.00    +0.000 NA
ATOM     21  H   UNL     1       3.838   0.024  17.811  0.00  0.00    +0.000 HD
ATOM     22  H   UNL     1       3.960   0.640  19.316  0.00  0.00    +0.000 HD
ENDBRANCH  19  20
ENDBRANCH  18  19
ENDBRANCH  17  18
ENDBRANCH  16  17
ENDBRANCH  15  16
ENDBRANCH  14  15
ENDBRANCH  13  14
ENDBRANCH   1  13
TORSDOF 10
ENDMDL
MODEL 8
REMARK VINA RESULT:      -6.0      1.072      1.165
REMARK  Name = 
REMARK  10 active torsions:
REMARK  status: ('A' for Active; 'I' for Inactive)
REMARK    1  A    between atoms: N_1  and  C_2
REMARK    2  A    between atoms: C_2  and  C_3
REMARK    3  A    between atoms: C_3  and  C_4
REMARK    4  A    between atoms: C_4  and  C_5
REMARK    5  A    between atoms: C_5  and  C_6
REMARK    6  A    between atoms: C_6  and  C_7
REMARK    7  A    between atoms: C_7  and  O_8
REMARK    8  A    between atoms: O_8  and  C_9
REMARK    9  A    between atoms: C_12  and  S_13
REMARK   10  A    between atoms: S_13  and  N_14
REMARK                            x       y       z     vdW  Elec       q    Type
REMARK                         _______ _______ _______ _____ _____    ______ ____
ROOT
ATOM      1  C   UNL     1       3.667   6.257  18.805  0.00  0.00    +0.000 A 
ATOM      2  C   UNL     1       4.667   5.485  19.394  0.00  0.00    +0.000 A 
ATOM      3  C   UNL     1       5.727   5.022  18.617  0.00  0.00    +0.000 A 
ATOM      4  C   UNL     1       5.764   5.324  17.250  0.00  0.00    +0.000 A 
ATOM      5  C   UNL     1       4.760   6.085  16.657  0.00  0.00    +0.000 A 
ATOM      6  C   UNL     1       3.702   6.546  17.437  0.00  0.00    +0.000 A 
ENDROOT
BRANCH   4   7
ATOM      7  S   UNL     1       7.095   4.731  16.260  0.00  0.00    +0.000 S 
ATOM      8  O   UNL     1       7.355   5.677  15.199  0.00  0.00    +0.000 OA
ATOM      9  O   UNL     1       8.134   4.223  17.124  0.00  0.00    +0.000 OA
BRANCH   7  10
ATOM     10  N   UNL     1       6.379   3.399  15.541  0.00  0.00    +0.000 NA
ATOM     11  H   UNL     1       7.064   2.657  15.406  0.00  0.00    +0.000 HD
ATOM     12  H   UNL     1       5.544   3.123  16.057  0.00  0.00    +0.000 HD
ENDBRANCH   7  10
ENDBRANCH   4   7
BRANCH   1  13
ATOM     13  O   UNL     1       2.676   6.685  19.657  0.00  0.00    +0.000 OA
BRANCH  13  14
ATOM     14  C   UNL     1       2.167   5.628  20.454  0.00  0.00    +0.000 C 
BRANCH  14  15
ATOM     15  C   UNL     1       1.288   4.712  19.624  0.00  0.00    +0.000 C 
BRANCH  15  16
ATOM     16  C   UNL     1       1.189   3.402  20.387  0.00  0.00    +0.000 C 
BRANCH  16  17
ATOM     17  C   UNL     1       1.439   2.190  19.516  0.00  0.00    +0.000 C 
BRANCH  17  18
ATOM     18  C   UNL     1       2.915   2.164  19.131  0.00  0.00    +0.000 C 
BRANCH  18  19
ATOM     19  C   UNL     1       3.795   2.235  20.366  0.00  0.00    +0.000 C 
BRANCH  19  20
ATOM     20  N   UNL     1       5.136   1.765  20.043  0.00  0.00    +0.000 NA
ATOM     21  H   UNL     1       5.270   1.807  19.036  0.00  0.00    +0.000 HD
ATOM     22  H   UNL     1       5.229   0.785  20.306  0.00  0.00    +0.000 HD
ENDBRANCH  19  20
ENDBRANCH  18  19
ENDBRANCH  17  18
ENDBRANCH  16  17
ENDBRANCH  15  16
ENDBRANCH  14  15
ENDBRANCH  13  14
ENDBRANCH   1  13
TORSDOF 10
ENDMDL
MODEL 9
REMARK VINA RESULT:      -6.0      2.445      3.220
REMARK  Name = 
REMARK  10 active torsions:
REMARK  status: ('A' for Active; 'I' for Inactive)
REMARK    1  A    between atoms: N_1  and  C_2
REMARK    2  A    between atoms: C_2  and  C_3
REMARK    3  A    between atoms: C_3  and  C_4
REMARK    4  A    between atoms: C_4  and  C_5
REMARK    5  A    between atoms: C_5  and  C_6
REMARK    6  A    between atoms: C_6  and  C_7
REMARK    7  A    between atoms: C_7  and  O_8
REMARK    8  A    between atoms: O_8  and  C_9
REMARK    9  A    between atoms: C_12  and  S_13
REMARK   10  A    between atoms: S_13  and  N_14
REMARK                            x       y       z     vdW  Elec       q    Type
REMARK                         _______ _______ _______ _____ _____    ______ ____
ROOT
ATOM      1  C   UNL     1       3.765   2.941  18.763  0.00  0.00    +0.000 A 
ATOM      2  C   UNL     1       4.875   3.580  19.312  0.00  0.00    +0.000 A 
ATOM      3  C   UNL     1       5.614   4.468  18.533  0.00  0.00    +0.000 A 
ATOM      4  C   UNL     1       5.243   4.691  17.202  0.00  0.00    +0.000 A 
ATOM      5  C   UNL     1       4.143   4.044  16.646  0.00  0.00    +0.000 A 
ATOM      6  C   UNL     1       3.405   3.158  17.428  0.00  0.00    +0.000 A 
ENDROOT
BRANCH   4   7
ATOM      7  S   UNL     1       6.183   5.802  16.208  0.00  0.00    +0.000 S 
ATOM      8  O   UNL     1       5.544   5.941  14.919  0.00  0.00    +0.000 OA
ATOM      9  O   UNL     1       6.575   6.935  17.010  0.00  0.00    +0.000 OA
BRANCH   7  10
ATOM     10  N   UNL     1       7.568   4.896  15.952  0.00  0.00    +0.000 NA
ATOM     11  H   UNL     1       7.973   5.114  15.043  0.00  0.00    +0.000 HD
ATOM     12  H   UNL     1       8.206   4.993  16.741  0.00  0.00    +0.000 HD
ENDBRANCH   7  10
ENDBRANCH   4   7
BRANCH   1  13
ATOM     13  O   UNL     1       3.088   2.102  19.616  0.00  0.00    +0.000 OA
BRANCH  13  14
ATOM     14  C   UNL     1       2.806   2.721  20.860  0.00  0.00    +0.000 C 
BRANCH  14  15
ATOM     15  C   UNL     1       1.316   2.959  21.010  0.00  0.00    +0.000 C 
BRANCH  15  16
ATOM     16  C   UNL     1       1.026   4.303  20.363  0.00  0.00    +0.000 C 
BRANCH  16  17
ATOM     17  C   UNL     1       1.990   5.387  20.793  0.00  0.00    +0.000 C 
BRANCH  17  18
ATOM     18  C   UNL     1       2.309   6.261  19.584  0.00  0.00    +0.000 C 
BRANCH  18  19
ATOM     19  C   UNL     1       1.999   7.718  19.874  0.00  0.00    +0.000 C 
BRANCH  19  20
ATOM     20  N   UNL     1       1.726   7.891  21.294  0.00  0.00    +0.000 NA
ATOM     21  H   UNL     1       2.039   7.064  21.797  0.00  0.00    +0.000 HD
ATOM     22  H   UNL     1       0.720   7.955  21.445  0.00  0.00    +0.000 HD
ENDBRANCH  19  20
ENDBRANCH  18  19
ENDBRANCH  17  18
ENDBRANCH  16  17
ENDBRANCH  15  16
ENDBRANCH  14  15
ENDBRANCH  13  14
ENDBRANCH   1  13
TORSDOF 10
ENDMDL
