MODEL 1
REMARK VINA RESULT:      -7.3      0.000      0.000
REMARK  Name = 
REMARK  9 active torsions:
REMARK  status: ('A' for Active; 'I' for Inactive)
REMARK    1  A    between atoms: C_1  and  C_2
REMARK    2  A    between atoms: C_2  and  N_3
REMARK    3  A    between atoms: N_3  and  C_4
REMARK    4  A    between atoms: C_4  and  C_5
REMARK    5  A    between atoms: N_7  and  C_8
REMARK    6  A    between atoms: C_16  and  C_18
REMARK    7  A    between atoms: C_18  and  N_19
REMARK    8  A    between atoms: C_20  and  C_22
REMARK    9  A    between atoms: C_25  and  C_26
REMARK                            x       y       z     vdW  Elec       q    Type
REMARK                         _______ _______ _______ _____ _____    ______ ____
ROOT
ATOM      1  N   UNL     1       5.962   5.216  16.703  0.00  0.00    +0.000 N 
ATOM      2  C   UNL     1       5.720   6.564  16.957  0.00  0.00    +0.000 C 
ATOM      3  O   UNL     1       6.619   7.319  17.347  0.00  0.00    +0.000 OA
ENDROOT
BRANCH   1   5
ATOM      4  C   UNL     1       7.753   4.643  18.331  0.00  0.00    +0.000 C 
ATOM      5  C   UNL     1       7.332   4.734  16.874  0.00  0.00    +0.000 C 
ENDBRANCH   1   5
BRANCH   1   6
ATOM      6  C   UNL     1       4.974   4.310  16.096  0.00  0.00    +0.000 C 
BRANCH   6   7
ATOM      7  C   UNL     1       4.154   3.507  17.110  0.00  0.00    +0.000 C 
ATOM      8  O   UNL     1       4.038   2.286  17.040  0.00  0.00    +0.000 OA
ATOM      9  N   UNL     1       3.542   4.298  18.081  0.00  0.00    +0.000 N 
ATOM     10  H   UNL     1       3.259   5.228  17.797  0.00  0.00    +0.000 HD
BRANCH   9  11
ATOM     11  C   UNL     1       2.805   3.708  19.134  0.00  0.00    +0.000 A 
ATOM     12  C   UNL     1       1.409   3.657  19.148  0.00  0.00    +0.000 A 
ATOM     13  F   UNL     1       0.698   4.018  18.067  0.00  0.00    +0.000 F 
ATOM     14  C   UNL     1       0.720   3.172  20.259  0.00  0.00    +0.000 A 
ATOM     15  C   UNL     1       1.428   2.734  21.378  0.00  0.00    +0.000 A 
ATOM     16  C   UNL     1       2.823   2.727  21.354  0.00  0.00    +0.000 A 
ATOM     17  C   UNL     1       3.499   3.185  20.225  0.00  0.00    +0.000 A 
ATOM     18  F   UNL     1       4.842   3.189  20.223  0.00  0.00    +0.000 F 
ENDBRANCH   9  11
ENDBRANCH   6   7
ENDBRANCH   1   6
BRANCH   2  19
ATOM     19  C   UNL     1       4.356   7.166  16.611  0.00  0.00    +0.000 C 
BRANCH  19  20
ATOM     20  N   UNL     1       3.609   7.349  17.839  0.00  0.00    +0.000 N 
ATOM     21  C   UNL     1       2.610   8.283  17.981  0.00  0.00    +0.000 C 
ATOM     22  O   UNL     1       2.348   9.086  17.088  0.00  0.00    +0.000 OA
ATOM     23  H   UNL     1       3.857   6.769  18.632  0.00  0.00    +0.000 HD
BRANCH  21  24
ATOM     24  C   UNL     1       1.900   8.263  19.255  0.00  0.00    +0.000 A 
ATOM     25  C   UNL     1       1.920   7.249  20.193  0.00  0.00    +0.000 A 
ATOM     26  C   UNL     1       1.138   7.549  21.344  0.00  0.00    +0.000 A 
ATOM     27  C   UNL     1       0.551   8.792  21.264  0.00  0.00    +0.000 A 
ATOM     28  C   UNL     1      -0.309   9.481  22.268  0.00  0.00    +0.000 C 
ATOM     29  S   UNL     1       0.922   9.567  19.785  0.00  0.00    +0.000 S 
ENDBRANCH  21  24
ENDBRANCH  19  20
ENDBRANCH   2  19
TORSDOF 7
ENDMDL
MODEL 2
REMARK VINA RESULT:      -7.3      0.707      1.657
REMARK  Name = 
REMARK  9 active torsions:
REMARK  status: ('A' for Active; 'I' for Inactive)
REMARK    1  A    between atoms: C_1  and  C_2
REMARK    2  A    between atoms: C_2  and  N_3
REMARK    3  A    between atoms: N_3  and  C_4
REMARK    4  A    between atoms: C_4  and  C_5
REMARK    5  A    between atoms: N_7  and  C_8
REMARK    6  A    between atoms: C_16  and  C_18
REMARK    7  A    between atoms: C_18  and  N_19
REMARK    8  A    between atoms: C_20  and  C_22
REMARK    9  A    between atoms: C_25  and  C_26
REMARK                            x       y       z     vdW  Elec       q    Type
REMARK                         _______ _______ _______ _____ _____    ______ ____
ROOT
ATOM      1  N   UNL     1       5.792   5.375  16.872  0.00  0.00    +0.000 N 
ATOM      2  C   UNL     1       5.402   6.691  17.107  0.00  0.00    +0.000 C 
ATOM      3  O   UNL     1       6.214   7.550  17.473  0.00  0.00    +0.000 OA
ENDROOT
BRANCH   1   5
ATOM      4  C   UNL     1       7.622   4.892  18.487  0.00  0.00    +0.000 C 
ATOM      5  C   UNL     1       7.210   5.054  17.033  0.00  0.00    +0.000 C 
ENDBRANCH   1   5
BRANCH   1   6
ATOM      6  C   UNL     1       4.907   4.352  16.291  0.00  0.00    +0.000 C 
BRANCH   6   7
ATOM      7  C   UNL     1       3.835   3.833  17.254  0.00  0.00    +0.000 C 
ATOM      8  O   UNL     1       2.851   3.209  16.865  0.00  0.00    +0.000 OA
ATOM      9  N   UNL     1       4.076   4.165  18.586  0.00  0.00    +0.000 N 
ATOM     10  H   UNL     1       4.553   5.042  18.757  0.00  0.00    +0.000 HD
BRANCH   9  11
ATOM     11  C   UNL     1       3.220   3.702  19.612  0.00  0.00    +0.000 A 
ATOM     12  C   UNL     1       3.601   2.727  20.537  0.00  0.00    +0.000 A 
ATOM     13  F   UNL     1       4.873   2.300  20.600  0.00  0.00    +0.000 F 
ATOM     14  C   UNL     1       2.687   2.216  21.458  0.00  0.00    +0.000 A 
ATOM     15  C   UNL     1       1.371   2.677  21.459  0.00  0.00    +0.000 A 
ATOM     16  C   UNL     1       0.994   3.692  20.578  0.00  0.00    +0.000 A 
ATOM     17  C   UNL     1       1.926   4.216  19.685  0.00  0.00    +0.000 A 
ATOM     18  F   UNL     1       1.544   5.179  18.831  0.00  0.00    +0.000 F 
ENDBRANCH   9  11
ENDBRANCH   6   7
ENDBRANCH   1   6
BRANCH   2  19
ATOM     19  C   UNL     1       3.974   7.128  16.768  0.00  0.00    +0.000 C 
BRANCH  19  20
ATOM     20  N   UNL     1       3.311   7.522  17.995  0.00  0.00    +0.000 N 
ATOM     21  C   UNL     1       2.370   8.522  18.054  0.00  0.00    +0.000 C 
ATOM     22  O   UNL     1       2.096   9.208  17.072  0.00  0.00    +0.000 OA
ATOM     23  H   UNL     1       3.576   7.043  18.848  0.00  0.00    +0.000 HD
BRANCH  21  24
ATOM     24  C   UNL     1       1.736   8.719  19.353  0.00  0.00    +0.000 A 
ATOM     25  C   UNL     1       1.802   7.868  20.440  0.00  0.00    +0.000 A 
ATOM     26  C   UNL     1       1.091   8.364  21.569  0.00  0.00    +0.000 A 
ATOM     27  C   UNL     1       0.513   9.588  21.324  0.00  0.00    +0.000 A 
ATOM     28  C   UNL     1      -0.280  10.445  22.252  0.00  0.00    +0.000 C 
ATOM     29  S   UNL     1       0.803  10.109  19.721  0.00  0.00    +0.000 S 
ENDBRANCH  21  24
ENDBRANCH  19  20
ENDBRANCH   2  19
TORSDOF 7
ENDMDL
MODEL 3
REMARK VINA RESULT:      -7.2      1.039      1.043
REMARK  Name = 
REMARK  9 active torsions:
REMARK  status: ('A' for Active; 'I' for Inactive)
REMARK    1  A    between atoms: C_1  and  C_2
REMARK    2  A    between atoms: C_2  and  N_3
REMARK    3  A    between atoms: N_3  and  C_4
REMARK    4  A    between atoms: C_4  and  C_5
REMARK    5  A    between atoms: N_7  and  C_8
REMARK    6  A    between atoms: C_16  and  C_18
REMARK    7  A    between atoms: C_18  and  N_19
REMARK    8  A    between atoms: C_20  and  C_22
REMARK    9  A    between atoms: C_25  and  C_26
REMARK                            x       y       z     vdW  Elec       q    Type
REMARK                         _______ _______ _______ _____ _____    ______ ____
ROOT
ATOM      1  N   UNL     1       6.396   5.694  17.349  0.00  0.00    +0.000 N 
ATOM      2  C   UNL     1       5.971   6.983  17.034  0.00  0.00    +0.000 C 
ATOM      3  O   UNL     1       6.769   7.924  16.950  0.00  0.00    +0.000 OA
ENDROOT
BRANCH   1   5
ATOM      4  C   UNL     1       8.249   5.495  18.998  0.00  0.00    +0.000 C 
ATOM      5  C   UNL     1       7.832   5.486  17.536  0.00  0.00    +0.000 C 
ENDBRANCH   1   5
BRANCH   1   6
ATOM      6  C   UNL     1       5.519   4.513  17.313  0.00  0.00    +0.000 C 
BRANCH   6   7
ATOM      7  C   UNL     1       4.636   4.351  18.554  0.00  0.00    +0.000 C 
ATOM      8  O   UNL     1       4.737   5.089  19.532  0.00  0.00    +0.000 OA
ATOM      9  N   UNL     1       3.747   3.281  18.468  0.00  0.00    +0.000 N 
ATOM     10  H   UNL     1       4.055   2.476  17.936  0.00  0.00    +0.000 HD
BRANCH   9  11
ATOM     11  C   UNL     1       2.811   3.035  19.500  0.00  0.00    +0.000 A 
ATOM     12  C   UNL     1       1.468   3.406  19.410  0.00  0.00    +0.000 A 
ATOM     13  F   UNL     1       0.958   3.867  18.256  0.00  0.00    +0.000 F 
ATOM     14  C   UNL     1       0.606   3.250  20.496  0.00  0.00    +0.000 A 
ATOM     15  C   UNL     1       1.088   2.721  21.693  0.00  0.00    +0.000 A 
ATOM     16  C   UNL     1       2.414   2.294  21.776  0.00  0.00    +0.000 A 
ATOM     17  C   UNL     1       3.255   2.426  20.673  0.00  0.00    +0.000 A 
ATOM     18  F   UNL     1       4.533   2.028  20.774  0.00  0.00    +0.000 F 
ENDBRANCH   9  11
ENDBRANCH   6   7
ENDBRANCH   1   6
BRANCH   2  19
ATOM     19  C   UNL     1       4.512   7.222  16.638  0.00  0.00    +0.000 C 
BRANCH  19  20
ATOM     20  N   UNL     1       3.725   7.364  17.846  0.00  0.00    +0.000 N 
ATOM     21  C   UNL     1       2.686   8.256  17.968  0.00  0.00    +0.000 C 
ATOM     22  O   UNL     1       2.417   9.056  17.075  0.00  0.00    +0.000 OA
ATOM     23  H   UNL     1       3.974   6.786  18.641  0.00  0.00    +0.000 HD
BRANCH  21  24
ATOM     24  C   UNL     1       1.942   8.196  19.221  0.00  0.00    +0.000 A 
ATOM     25  C   UNL     1       1.934   7.151  20.125  0.00  0.00    +0.000 A 
ATOM     26  C   UNL     1       1.123   7.416  21.264  0.00  0.00    +0.000 A 
ATOM     27  C   UNL     1       0.543   8.663  21.211  0.00  0.00    +0.000 A 
ATOM     28  C   UNL     1      -0.341   9.321  22.215  0.00  0.00    +0.000 C 
ATOM     29  S   UNL     1       0.955   9.485  19.769  0.00  0.00    +0.000 S 
ENDBRANCH  21  24
ENDBRANCH  19  20
ENDBRANCH   2  19
TORSDOF 7
ENDMDL
MODEL 4
REMARK VINA RESULT:      -7.2      3.040      6.901
REMARK  Name = 
REMARK  9 active torsions:
REMARK  status: ('A' for Active; 'I' for Inactive)
REMARK    1  A    between atoms: C_1  and  C_2
REMARK    2  A    between atoms: C_2  and  N_3
REMARK    3  A    between atoms: N_3  and  C_4
REMARK    4  A    between atoms: C_4  and  C_5
REMARK    5  A    between atoms: N_7  and  C_8
REMARK    6  A    between atoms: C_16  and  C_18
REMARK    7  A    between atoms: C_18  and  N_19
REMARK    8  A    between atoms: C_20  and  C_22
REMARK    9  A    between atoms: C_25  and  C_26
REMARK                            x       y       z     vdW  Elec       q    Type
REMARK                         _______ _______ _______ _____ _____    ______ ____
ROOT
ATOM      1  N   UNL     1       2.824   3.269  20.470  0.00  0.00    +0.000 N 
ATOM      2  C   UNL     1       3.955   3.060  19.684  0.00  0.00    +0.000 C 
ATOM      3  O   UNL     1       4.121   2.006  19.058  0.00  0.00    +0.000 OA
ENDROOT
BRANCH   1   5
ATOM      4  C   UNL     1       0.909   2.223  19.276  0.00  0.00    +0.000 C 
ATOM      5  C   UNL     1       1.817   2.209  20.495  0.00  0.00    +0.000 C 
ENDBRANCH   1   5
BRANCH   1   6
ATOM      6  C   UNL     1       2.501   4.554  21.112  0.00  0.00    +0.000 C 
BRANCH   6   7
ATOM      7  C   UNL     1       1.975   5.620  20.146  0.00  0.00    +0.000 C 
ATOM      8  O   UNL     1       1.322   5.333  19.145  0.00  0.00    +0.000 OA
ATOM      9  N   UNL     1       2.335   6.919  20.502  0.00  0.00    +0.000 N 
ATOM     10  H   UNL     1       3.226   7.031  20.971  0.00  0.00    +0.000 HD
BRANCH   9  11
ATOM     11  C   UNL     1       1.871   8.027  19.755  0.00  0.00    +0.000 A 
ATOM     12  C   UNL     1       2.344   8.331  18.476  0.00  0.00    +0.000 A 
ATOM     13  F   UNL     1       3.146   7.478  17.820  0.00  0.00    +0.000 F 
ATOM     14  C   UNL     1       1.946   9.498  17.824  0.00  0.00    +0.000 A 
ATOM     15  C   UNL     1       1.068  10.380  18.453  0.00  0.00    +0.000 A 
ATOM     16  C   UNL     1       0.545  10.059  19.707  0.00  0.00    +0.000 A 
ATOM     17  C   UNL     1       0.926   8.874  20.333  0.00  0.00    +0.000 A 
ATOM     18  F   UNL     1       0.429   8.586  21.546  0.00  0.00    +0.000 F 
ENDBRANCH   9  11
ENDBRANCH   6   7
ENDBRANCH   1   6
BRANCH   2  19
ATOM     19  C   UNL     1       4.946   4.207  19.466  0.00  0.00    +0.000 C 
BRANCH  19  20
ATOM     20  N   UNL     1       5.211   4.321  18.045  0.00  0.00    +0.000 N 
ATOM     21  C   UNL     1       6.478   4.405  17.520  0.00  0.00    +0.000 C 
ATOM     22  O   UNL     1       7.471   4.476  18.241  0.00  0.00    +0.000 OA
ATOM     23  H   UNL     1       4.414   4.359  17.420  0.00  0.00    +0.000 HD
BRANCH  21  24
ATOM     24  C   UNL     1       6.561   4.417  16.064  0.00  0.00    +0.000 A 
ATOM     25  C   UNL     1       7.422   5.176  15.294  0.00  0.00    +0.000 A 
ATOM     26  C   UNL     1       7.267   4.937  13.899  0.00  0.00    +0.000 A 
ATOM     27  C   UNL     1       6.303   3.990  13.638  0.00  0.00    +0.000 A 
ATOM     28  C   UNL     1       5.869   3.444  12.319  0.00  0.00    +0.000 C 
ATOM     29  S   UNL     1       5.570   3.427  15.076  0.00  0.00    +0.000 S 
ENDBRANCH  21  24
ENDBRANCH  19  20
ENDBRANCH   2  19
TORSDOF 7
ENDMDL
MODEL 5
REMARK VINA RESULT:      -7.1      3.192      6.547
REMARK  Name = 
REMARK  9 active torsions:
REMARK  status: ('A' for Active; 'I' for Inactive)
REMARK    1  A    between atoms: C_1  and  C_2
REMARK    2  A    between atoms: C_2  and  N_3
REMARK    3  A    between atoms: N_3  and  C_4
REMARK    4  A    between atoms: C_4  and  C_5
REMARK    5  A    between atoms: N_7  and  C_8
REMARK    6  A    between atoms: C_16  and  C_18
REMARK    7  A    between atoms: C_18  and  N_19
REMARK    8  A    between atoms: C_20  and  C_22
REMARK    9  A    between atoms: C_25  and  C_26
REMARK                            x       y       z     vdW  Elec       q    Type
REMARK                         _______ _______ _______ _____ _____    ______ ____
ROOT
ATOM      1  N   UNL     1       4.891   5.321  18.585  0.00  0.00    +0.000 N 
ATOM      2  C   UNL     1       6.232   5.679  18.702  0.00  0.00    +0.000 C 
ATOM      3  O   UNL     1       6.985   5.113  19.504  0.00  0.00    +0.000 OA
ENDROOT
BRANCH   1   5
ATOM      4  C   UNL     1       4.103   2.962  18.620  0.00  0.00    +0.000 C 
ATOM      5  C   UNL     1       4.414   4.217  19.418  0.00  0.00    +0.000 C 
ENDBRANCH   1   5
BRANCH   1   6
ATOM      6  C   UNL     1       3.991   5.852  17.549  0.00  0.00    +0.000 C 
BRANCH   6   7
ATOM      7  C   UNL     1       2.689   6.445  18.095  0.00  0.00    +0.000 C 
ATOM      8  O   UNL     1       1.604   5.887  17.951  0.00  0.00    +0.000 OA
ATOM      9  N   UNL     1       2.860   7.674  18.729  0.00  0.00    +0.000 N 
ATOM     10  H   UNL     1       3.599   8.270  18.374  0.00  0.00    +0.000 HD
BRANCH   9  11
ATOM     11  C   UNL     1       1.769   8.324  19.351  0.00  0.00    +0.000 A 
ATOM     12  C   UNL     1       1.093   9.398  18.767  0.00  0.00    +0.000 A 
ATOM     13  F   UNL     1       1.342   9.758  17.497  0.00  0.00    +0.000 F 
ATOM     14  C   UNL     1       0.100  10.085  19.464  0.00  0.00    +0.000 A 
ATOM     15  C   UNL     1      -0.225   9.703  20.766  0.00  0.00    +0.000 A 
ATOM     16  C   UNL     1       0.403   8.596  21.338  0.00  0.00    +0.000 A 
ATOM     17  C   UNL     1       1.371   7.899  20.618  0.00  0.00    +0.000 A 
ATOM     18  F   UNL     1       1.980   6.847  21.188  0.00  0.00    +0.000 F 
ENDBRANCH   9  11
ENDBRANCH   6   7
ENDBRANCH   1   6
BRANCH   2  19
ATOM     19  C   UNL     1       6.833   6.691  17.723  0.00  0.00    +0.000 C 
BRANCH  19  20
ATOM     20  N   UNL     1       6.650   6.190  16.375  0.00  0.00    +0.000 N 
ATOM     21  C   UNL     1       7.246   5.042  15.911  0.00  0.00    +0.000 C 
ATOM     22  O   UNL     1       8.048   4.411  16.596  0.00  0.00    +0.000 OA
ATOM     23  H   UNL     1       6.068   6.732  15.747  0.00  0.00    +0.000 HD
BRANCH  21  24
ATOM     24  C   UNL     1       6.874   4.636  14.561  0.00  0.00    +0.000 A 
ATOM     25  C   UNL     1       7.607   4.841  13.407  0.00  0.00    +0.000 A 
ATOM     26  C   UNL     1       6.976   4.300  12.252  0.00  0.00    +0.000 A 
ATOM     27  C   UNL     1       5.785   3.680  12.552  0.00  0.00    +0.000 A 
ATOM     28  C   UNL     1       4.849   2.970  11.634  0.00  0.00    +0.000 C 
ATOM     29  S   UNL     1       5.423   3.790  14.220  0.00  0.00    +0.000 S 
ENDBRANCH  21  24
ENDBRANCH  19  20
ENDBRANCH   2  19
TORSDOF 7
ENDMDL
MODEL 6
REMARK VINA RESULT:      -7.1      4.497      5.873
REMARK  Name = 
REMARK  9 active torsions:
REMARK  status: ('A' for Active; 'I' for Inactive)
REMARK    1  A    between atoms: C_1  and  C_2
REMARK    2  A    between atoms: C_2  and  N_3
REMARK    3  A    between atoms: N_3  and  C_4
REMARK    4  A    between atoms: C_4  and  C_5
REMARK    5  A    between atoms: N_7  and  C_8
REMARK    6  A    between atoms: C_16  and  C_18
REMARK    7  A    between atoms: C_18  and  N_19
REMARK    8  A    between atoms: C_20  and  C_22
REMARK    9  A    between atoms: C_25  and  C_26
REMARK                            x       y       z     vdW  Elec       q    Type
REMARK                         _______ _______ _______ _____ _____    ______ ____
ROOT
ATOM      1  N   UNL     1       6.992   5.998  17.824  0.00  0.00    +0.000 N 
ATOM      2  C   UNL     1       7.772   7.137  17.632  0.00  0.00    +0.000 C 
ATOM      3  O   UNL     1       7.974   7.598  16.502  0.00  0.00    +0.000 OA
ENDROOT
BRANCH   1   5
ATOM      4  C   UNL     1       5.263   6.233  16.050  0.00  0.00    +0.000 C 
ATOM      5  C   UNL     1       6.383   5.392  16.640  0.00  0.00    +0.000 C 
ENDBRANCH   1   5
BRANCH   1   6
ATOM      6  C   UNL     1       6.594   5.495  19.148  0.00  0.00    +0.000 C 
BRANCH   6   7
ATOM      7  C   UNL     1       5.101   5.178  19.275  0.00  0.00    +0.000 C 
ATOM      8  O   UNL     1       4.264   6.045  19.512  0.00  0.00    +0.000 OA
ATOM      9  N   UNL     1       4.806   3.824  19.126  0.00  0.00    +0.000 N 
ATOM     10  H   UNL     1       5.509   3.168  19.443  0.00  0.00    +0.000 HD
BRANCH   9  11
ATOM     11  C   UNL     1       3.466   3.370  19.145  0.00  0.00    +0.000 A 
ATOM     12  C   UNL     1       2.594   3.538  18.067  0.00  0.00    +0.000 A 
ATOM     13  F   UNL     1       3.041   3.991  16.884  0.00  0.00    +0.000 F 
ATOM     14  C   UNL     1       1.249   3.181  18.170  0.00  0.00    +0.000 A 
ATOM     15  C   UNL     1       0.761   2.654  19.366  0.00  0.00    +0.000 A 
ATOM     16  C   UNL     1       1.636   2.429  20.430  0.00  0.00    +0.000 A 
ATOM     17  C   UNL     1       2.983   2.760  20.301  0.00  0.00    +0.000 A 
ATOM     18  F   UNL     1       3.809   2.555  21.340  0.00  0.00    +0.000 F 
ENDBRANCH   9  11
ENDBRANCH   6   7
ENDBRANCH   1   6
BRANCH   2  19
ATOM     19  C   UNL     1       8.272   7.924  18.846  0.00  0.00    +0.000 C 
BRANCH  19  20
ATOM     20  N   UNL     1       8.724   9.225  18.395  0.00  0.00    +0.000 N 
ATOM     21  C   UNL     1       9.163  10.208  19.250  0.00  0.00    +0.000 C 
ATOM     22  O   UNL     1       9.116  10.067  20.470  0.00  0.00    +0.000 OA
ATOM     23  H   UNL     1       8.692   9.416  17.400  0.00  0.00    +0.000 HD
BRANCH  21  24
ATOM     24  C   UNL     1       9.671  11.419  18.616  0.00  0.00    +0.000 A 
ATOM     25  C   UNL     1      10.654  11.492  17.648  0.00  0.00    +0.000 A 
ATOM     26  C   UNL     1      10.904  12.826  17.217  0.00  0.00    +0.000 A 
ATOM     27  C   UNL     1      10.094  13.737  17.855  0.00  0.00    +0.000 A 
ATOM     28  C   UNL     1      10.026  15.215  17.663  0.00  0.00    +0.000 C 
ATOM     29  S   UNL     1       9.068  12.978  18.994  0.00  0.00    +0.000 S 
ENDBRANCH  21  24
ENDBRANCH  19  20
ENDBRANCH   2  19
TORSDOF 7
ENDMDL
MODEL 7
REMARK VINA RESULT:      -7.1      3.068      6.864
REMARK  Name = 
REMARK  9 active torsions:
REMARK  status: ('A' for Active; 'I' for Inactive)
REMARK    1  A    between atoms: C_1  and  C_2
REMARK    2  A    between atoms: C_2  and  N_3
REMARK    3  A    between atoms: N_3  and  C_4
REMARK    4  A    between atoms: C_4  and  C_5
REMARK    5  A    between atoms: N_7  and  C_8
REMARK    6  A    between atoms: C_16  and  C_18
REMARK    7  A    between atoms: C_18  and  N_19
REMARK    8  A    between atoms: C_20  and  C_22
REMARK    9  A    between atoms: C_25  and  C_26
REMARK                            x       y       z     vdW  Elec       q    Type
REMARK                         _______ _______ _______ _____ _____    ______ ____
ROOT
ATOM      1  N   UNL     1       2.806   3.312  20.489  0.00  0.00    +0.000 N 
ATOM      2  C   UNL     1       3.918   3.132  19.670  0.00  0.00    +0.000 C 
ATOM      3  O   UNL     1       4.079   2.092  19.019  0.00  0.00    +0.000 OA
ENDROOT
BRANCH   1   5
ATOM      4  C   UNL     1       0.881   2.260  19.317  0.00  0.00    +0.000 C 
ATOM      5  C   UNL     1       1.811   2.241  20.519  0.00  0.00    +0.000 C 
ENDBRANCH   1   5
BRANCH   1   6
ATOM      6  C   UNL     1       2.486   4.581  21.164  0.00  0.00    +0.000 C 
BRANCH   6   7
ATOM      7  C   UNL     1       1.939   5.665  20.232  0.00  0.00    +0.000 C 
ATOM      8  O   UNL     1       1.302   5.396  19.216  0.00  0.00    +0.000 OA
ATOM      9  N   UNL     1       2.262   6.960  20.635  0.00  0.00    +0.000 N 
ATOM     10  H   UNL     1       3.146   7.079  21.115  0.00  0.00    +0.000 HD
BRANCH   9  11
ATOM     11  C   UNL     1       1.774   8.081  19.923  0.00  0.00    +0.000 A 
ATOM     12  C   UNL     1       0.790   8.932  20.430  0.00  0.00    +0.000 A 
ATOM     13  F   UNL     1       0.377   8.823  21.704  0.00  0.00    +0.000 F 
ATOM     14  C   UNL     1       0.255   9.956  19.649  0.00  0.00    +0.000 A 
ATOM     15  C   UNL     1       0.701  10.134  18.339  0.00  0.00    +0.000 A 
ATOM     16  C   UNL     1       1.724   9.327  17.841  0.00  0.00    +0.000 A 
ATOM     17  C   UNL     1       2.272   8.328  18.644  0.00  0.00    +0.000 A 
ATOM     18  F   UNL     1       3.243   7.547  18.146  0.00  0.00    +0.000 F 
ENDBRANCH   9  11
ENDBRANCH   6   7
ENDBRANCH   1   6
BRANCH   2  19
ATOM     19  C   UNL     1       4.891   4.294  19.449  0.00  0.00    +0.000 C 
BRANCH  19  20
ATOM     20  N   UNL     1       5.174   4.392  18.031  0.00  0.00    +0.000 N 
ATOM     21  C   UNL     1       6.449   4.419  17.518  0.00  0.00    +0.000 C 
ATOM     22  O   UNL     1       7.436   4.448  18.249  0.00  0.00    +0.000 OA
ATOM     23  H   UNL     1       4.386   4.464  17.397  0.00  0.00    +0.000 HD
BRANCH  21  24
ATOM     24  C   UNL     1       6.547   4.423  16.063  0.00  0.00    +0.000 A 
ATOM     25  C   UNL     1       7.419   5.174  15.298  0.00  0.00    +0.000 A 
ATOM     26  C   UNL     1       7.277   4.929  13.903  0.00  0.00    +0.000 A 
ATOM     27  C   UNL     1       6.312   3.985  13.637  0.00  0.00    +0.000 A 
ATOM     28  C   UNL     1       5.890   3.433  12.317  0.00  0.00    +0.000 C 
ATOM     29  S   UNL     1       5.562   3.432  15.071  0.00  0.00    +0.000 S 
ENDBRANCH  21  24
ENDBRANCH  19  20
ENDBRANCH   2  19
TORSDOF 7
ENDMDL
MODEL 8
REMARK VINA RESULT:      -7.0      1.549      1.732
REMARK  Name = 
REMARK  9 active torsions:
REMARK  status: ('A' for Active; 'I' for Inactive)
REMARK    1  A    between atoms: C_1  and  C_2
REMARK    2  A    between atoms: C_2  and  N_3
REMARK    3  A    between atoms: N_3  and  C_4
REMARK    4  A    between atoms: C_4  and  C_5
REMARK    5  A    between atoms: N_7  and  C_8
REMARK    6  A    between atoms: C_16  and  C_18
REMARK    7  A    between atoms: C_18  and  N_19
REMARK    8  A    between atoms: C_20  and  C_22
REMARK    9  A    between atoms: C_25  and  C_26
REMARK                            x       y       z     vdW  Elec       q    Type
REMARK                         _______ _______ _______ _____ _____    ______ ____
ROOT
ATOM      1  N   UNL     1       6.664   5.838  17.787  0.00  0.00    +0.000 N 
ATOM      2  C   UNL     1       6.148   6.997  17.212  0.00  0.00    +0.000 C 
ATOM      3  O   UNL     1       6.818   8.035  17.136  0.00  0.00    +0.000 OA
ENDROOT
BRANCH   1   5
ATOM      4  C   UNL     1       8.173   5.600  19.750  0.00  0.00    +0.000 C 
ATOM      5  C   UNL     1       8.047   5.880  18.262  0.00  0.00    +0.000 C 
ENDBRANCH   1   5
BRANCH   1   6
ATOM      6  C   UNL     1       5.973   4.539  17.767  0.00  0.00    +0.000 C 
BRANCH   6   7
ATOM      7  C   UNL     1       4.904   4.382  18.852  0.00  0.00    +0.000 C 
ATOM      8  O   UNL     1       4.788   5.181  19.779  0.00  0.00    +0.000 OA
ATOM      9  N   UNL     1       4.116   3.243  18.696  0.00  0.00    +0.000 N 
ATOM     10  H   UNL     1       4.563   2.435  18.280  0.00  0.00    +0.000 HD
BRANCH   9  11
ATOM     11  C   UNL     1       3.037   2.986  19.573  0.00  0.00    +0.000 A 
ATOM     12  C   UNL     1       1.708   3.267  19.244  0.00  0.00    +0.000 A 
ATOM     13  F   UNL     1       1.373   3.642  17.999  0.00  0.00    +0.000 F 
ATOM     14  C   UNL     1       0.688   3.107  20.182  0.00  0.00    +0.000 A 
ATOM     15  C   UNL     1       0.992   2.665  21.469  0.00  0.00    +0.000 A 
ATOM     16  C   UNL     1       2.307   2.326  21.792  0.00  0.00    +0.000 A 
ATOM     17  C   UNL     1       3.311   2.461  20.835  0.00  0.00    +0.000 A 
ATOM     18  F   UNL     1       4.575   2.149  21.165  0.00  0.00    +0.000 F 
ENDBRANCH   9  11
ENDBRANCH   6   7
ENDBRANCH   1   6
BRANCH   2  19
ATOM     19  C   UNL     1       4.781   6.956  16.524  0.00  0.00    +0.000 C 
BRANCH  19  20
ATOM     20  N   UNL     1       3.881   7.841  17.237  0.00  0.00    +0.000 N 
ATOM     21  C   UNL     1       2.746   7.403  17.878  0.00  0.00    +0.000 C 
ATOM     22  O   UNL     1       2.378   6.233  17.808  0.00  0.00    +0.000 OA
ATOM     23  H   UNL     1       4.099   8.830  17.241  0.00  0.00    +0.000 HD
BRANCH  21  24
ATOM     24  C   UNL     1       2.011   8.417  18.626  0.00  0.00    +0.000 A 
ATOM     25  C   UNL     1       1.580   9.641  18.151  0.00  0.00    +0.000 A 
ATOM     26  C   UNL     1       0.866  10.389  19.130  0.00  0.00    +0.000 A 
ATOM     27  C   UNL     1       0.754   9.712  20.322  0.00  0.00    +0.000 A 
ATOM     28  C   UNL     1       0.059  10.137  21.571  0.00  0.00    +0.000 C 
ATOM     29  S   UNL     1       1.544   8.196  20.260  0.00  0.00    +0.000 S 
ENDBRANCH  21  24
ENDBRANCH  19  20
ENDBRANCH   2  19
TORSDOF 7
ENDMDL
MODEL 9
REMARK VINA RESULT:      -7.0      3.029      6.617
REMARK  Name = 
REMARK  9 active torsions:
REMARK  status: ('A' for Active; 'I' for Inactive)
REMARK    1  A    between atoms: C_1  and  C_2
REMARK    2  A    between atoms: C_2  and  N_3
REMARK    3  A    between atoms: N_3  and  C_4
REMARK    4  A    between atoms: C_4  and  C_5
REMARK    5  A    between atoms: N_7  and  C_8
REMARK    6  A    between atoms: C_16  and  C_18
REMARK    7  A    between atoms: C_18  and  N_19
REMARK    8  A    between atoms: C_20  and  C_22
REMARK    9  A    between atoms: C_25  and  C_26
REMARK                            x       y       z     vdW  Elec       q    Type
REMARK                         _______ _______ _______ _____ _____    ______ ____
ROOT
ATOM      1  N   UNL     1       3.560   3.199  18.730  0.00  0.00    +0.000 N 
ATOM      2  C   UNL     1       4.814   3.276  19.332  0.00  0.00    +0.000 C 
ATOM      3  O   UNL     1       5.158   2.476  20.211  0.00  0.00    +0.000 OA
ENDROOT
BRANCH   1   5
ATOM      4  C   UNL     1       1.639   2.538  20.166  0.00  0.00    +0.000 C 
ATOM      5  C   UNL     1       2.679   2.108  19.145  0.00  0.00    +0.000 C 
ENDBRANCH   1   5
BRANCH   1   6
ATOM      6  C   UNL     1       3.155   4.023  17.580  0.00  0.00    +0.000 C 
BRANCH   6   7
ATOM      7  C   UNL     1       2.275   5.222  17.947  0.00  0.00    +0.000 C 
ATOM      8  O   UNL     1       1.086   5.280  17.644  0.00  0.00    +0.000 OA
ATOM      9  N   UNL     1       2.962   6.230  18.621  0.00  0.00    +0.000 N 
ATOM     10  H   UNL     1       3.939   6.351  18.382  0.00  0.00    +0.000 HD
BRANCH   9  11
ATOM     11  C   UNL     1       2.282   7.376  19.094  0.00  0.00    +0.000 A 
ATOM     12  C   UNL     1       1.682   7.435  20.355  0.00  0.00    +0.000 A 
ATOM     13  F   UNL     1       1.874   6.456  21.253  0.00  0.00    +0.000 F 
ATOM     14  C   UNL     1       0.922   8.541  20.736  0.00  0.00    +0.000 A 
ATOM     15  C   UNL     1       0.749   9.603  19.849  0.00  0.00    +0.000 A 
ATOM     16  C   UNL     1       1.390   9.580  18.609  0.00  0.00    +0.000 A 
ATOM     17  C   UNL     1       2.173   8.484  18.254  0.00  0.00    +0.000 A 
ATOM     18  F   UNL     1       2.768   8.467  17.051  0.00  0.00    +0.000 F 
ENDBRANCH   9  11
ENDBRANCH   6   7
ENDBRANCH   1   6
BRANCH   2  19
ATOM     19  C   UNL     1       5.847   4.274  18.803  0.00  0.00    +0.000 C 
BRANCH  19  20
ATOM     20  N   UNL     1       5.874   4.184  17.357  0.00  0.00    +0.000 N 
ATOM     21  C   UNL     1       6.761   4.885  16.575  0.00  0.00    +0.000 C 
ATOM     22  O   UNL     1       7.537   5.705  17.059  0.00  0.00    +0.000 OA
ATOM     23  H   UNL     1       5.187   3.587  16.910  0.00  0.00    +0.000 HD
BRANCH  21  24
ATOM     24  C   UNL     1       6.708   4.599  15.145  0.00  0.00    +0.000 A 
ATOM     25  C   UNL     1       7.575   5.073  14.179  0.00  0.00    +0.000 A 
ATOM     26  C   UNL     1       7.264   4.586  12.877  0.00  0.00    +0.000 A 
ATOM     27  C   UNL     1       6.178   3.741  12.883  0.00  0.00    +0.000 A 
ATOM     28  C   UNL     1       5.565   3.007  11.739  0.00  0.00    +0.000 C 
ATOM     29  S   UNL     1       5.523   3.572  14.454  0.00  0.00    +0.000 S 
ENDBRANCH  21  24
ENDBRANCH  19  20
ENDBRANCH   2  19
TORSDOF 7
ENDMDL
