MODEL 1
REMARK VINA RESULT:      -6.6      0.000      0.000
REMARK  Name = 
REMARK  8 active torsions:
REMARK  status: ('A' for Active; 'I' for Inactive)
REMARK    1  A    between atoms: C_1  and  C_2
REMARK    2  A    between atoms: C_2  and  O_3
REMARK    3  A    between atoms: O_3  and  C_4
REMARK    4  A    between atoms: C_6  and  C_7
REMARK    5  A    between atoms: C_7  and  C_8
REMARK    6  A    between atoms: C_12  and  O_13
REMARK    7  A    between atoms: O_13  and  C_14
REMARK    8  A    between atoms: C_14  and  C_15
REMARK                            x       y       z     vdW  Elec       q    Type
REMARK                         _______ _______ _______ _____ _____    ______ ____
ROOT
ATOM      1  C   UNL     1       3.157   5.494  17.854  0.00  0.00    +0.000 A 
ATOM      2  C   UNL     1       2.049   4.926  18.523  0.00  0.00    +0.000 A 
ATOM      3  C   UNL     1       1.847   3.545  18.571  0.00  0.00    +0.000 A 
ATOM      4  C   UNL     1       2.691   2.724  17.834  0.00  0.00    +0.000 A 
ATOM      5  C   UNL     1       3.751   3.271  17.128  0.00  0.00    +0.000 A 
ATOM      6  C   UNL     1       4.015   4.651  17.113  0.00  0.00    +0.000 A 
ENDROOT
BRANCH   1   7
ATOM      7  O   UNL     1       3.421   6.837  17.951  0.00  0.00    +0.000 OA
BRANCH   7   9
ATOM      8  C   UNL     1       1.973   8.811  17.820  0.00  0.00    +0.000 C 
ATOM      9  C   UNL     1       2.407   7.611  18.650  0.00  0.00    +0.000 C 
ENDBRANCH   7   9
ENDBRANCH   1   7
BRANCH   3  10
ATOM     10  C   UNL     1       0.851   2.930  19.517  0.00  0.00    +0.000 C 
BRANCH  10  11
ATOM     11  C   UNL     1       1.425   2.863  20.922  0.00  0.00    +0.000 C 
ATOM     12  N   UNL     1       1.902   2.807  22.088  0.00  0.00    +0.000 NA
ENDBRANCH  10  11
ENDBRANCH   3  10
BRANCH   6  13
ATOM     13  O   UNL     1       5.098   5.155  16.409  0.00  0.00    +0.000 OA
BRANCH  13  14
ATOM     14  C   UNL     1       6.323   4.410  16.628  0.00  0.00    +0.000 C 
BRANCH  14  15
ATOM     15  C   UNL     1       7.262   4.935  17.695  0.00  0.00    +0.000 C 
ATOM     16  F   UNL     1       7.698   6.193  17.458  0.00  0.00    +0.000 F 
ATOM     17  F   UNL     1       6.671   4.930  18.899  0.00  0.00    +0.000 F 
ATOM     18  F   UNL     1       8.362   4.133  17.793  0.00  0.00    +0.000 F 
ENDBRANCH  14  15
ENDBRANCH  13  14
ENDBRANCH   6  13
TORSDOF 7
ENDMDL
MODEL 2
REMARK VINA RESULT:      -6.4      1.593      1.907
REMARK  Name = 
REMARK  8 active torsions:
REMARK  status: ('A' for Active; 'I' for Inactive)
REMARK    1  A    between atoms: C_1  and  C_2
REMARK    2  A    between atoms: C_2  and  O_3
REMARK    3  A    between atoms: O_3  and  C_4
REMARK    4  A    between atoms: C_6  and  C_7
REMARK    5  A    between atoms: C_7  and  C_8
REMARK    6  A    between atoms: C_12  and  O_13
REMARK    7  A    between atoms: O_13  and  C_14
REMARK    8  A    between atoms: C_14  and  C_15
REMARK                            x       y       z     vdW  Elec       q    Type
REMARK                         _______ _______ _______ _____ _____    ______ ____
ROOT
ATOM      1  C   UNL     1       3.249   5.848  17.817  0.00  0.00    +0.000 A 
ATOM      2  C   UNL     1       2.112   5.195  18.342  0.00  0.00    +0.000 A 
ATOM      3  C   UNL     1       2.079   3.813  18.537  0.00  0.00    +0.000 A 
ATOM      4  C   UNL     1       3.150   3.053  18.081  0.00  0.00    +0.000 A 
ATOM      5  C   UNL     1       4.252   3.674  17.513  0.00  0.00    +0.000 A 
ATOM      6  C   UNL     1       4.337   5.069  17.363  0.00  0.00    +0.000 A 
ENDROOT
BRANCH   1   7
ATOM      7  O   UNL     1       3.316   7.218  17.780  0.00  0.00    +0.000 OA
BRANCH   7   9
ATOM      8  C   UNL     1       1.843   9.176  17.864  0.00  0.00    +0.000 C 
ATOM      9  C   UNL     1       2.299   7.903  18.562  0.00  0.00    +0.000 C 
ENDBRANCH   7   9
ENDBRANCH   1   7
BRANCH   3  10
ATOM     10  C   UNL     1       1.002   3.160  19.359  0.00  0.00    +0.000 C 
BRANCH  10  11
ATOM     11  C   UNL     1       1.477   2.952  20.788  0.00  0.00    +0.000 C 
ATOM     12  N   UNL     1       1.870   2.781  21.974  0.00  0.00    +0.000 NA
ENDBRANCH  10  11
ENDBRANCH   3  10
BRANCH   6  13
ATOM     13  O   UNL     1       5.464   5.652  16.807  0.00  0.00    +0.000 OA
BRANCH  13  14
ATOM     14  C   UNL     1       5.538   5.501  15.366  0.00  0.00    +0.000 C 
BRANCH  14  15
ATOM     15  C   UNL     1       6.626   4.592  14.828  0.00  0.00    +0.000 C 
ATOM     16  F   UNL     1       6.162   3.404  14.377  0.00  0.00    +0.000 F 
ATOM     17  F   UNL     1       7.287   5.180  13.819  0.00  0.00    +0.000 F 
ATOM     18  F   UNL     1       7.547   4.330  15.801  0.00  0.00    +0.000 F 
ENDBRANCH  14  15
ENDBRANCH  13  14
ENDBRANCH   6  13
TORSDOF 7
ENDMDL
MODEL 3
REMARK VINA RESULT:      -6.3      1.908      2.171
REMARK  Name = 
REMARK  8 active torsions:
REMARK  status: ('A' for Active; 'I' for Inactive)
REMARK    1  A    between atoms: C_1  and  C_2
REMARK    2  A    between atoms: C_2  and  O_3
REMARK    3  A    between atoms: O_3  and  C_4
REMARK    4  A    between atoms: C_6  and  C_7
REMARK    5  A    between atoms: C_7  and  C_8
REMARK    6  A    between atoms: C_12  and  O_13
REMARK    7  A    between atoms: O_13  and  C_14
REMARK    8  A    between atoms: C_14  and  C_15
REMARK                            x       y       z     vdW  Elec       q    Type
REMARK                         _______ _______ _______ _____ _____    ______ ____
ROOT
ATOM      1  C   UNL     1       3.367   5.152  17.867  0.00  0.00    +0.000 A 
ATOM      2  C   UNL     1       2.145   4.692  18.409  0.00  0.00    +0.000 A 
ATOM      3  C   UNL     1       1.929   3.344  18.700  0.00  0.00    +0.000 A 
ATOM      4  C   UNL     1       2.897   2.420  18.327  0.00  0.00    +0.000 A 
ATOM      5  C   UNL     1       4.080   2.849  17.744  0.00  0.00    +0.000 A 
ATOM      6  C   UNL     1       4.350   4.207  17.497  0.00  0.00    +0.000 A 
ENDROOT
BRANCH   1   7
ATOM      7  O   UNL     1       3.614   6.495  17.736  0.00  0.00    +0.000 OA
BRANCH   7   9
ATOM      8  C   UNL     1       2.283   8.554  17.725  0.00  0.00    +0.000 C 
ATOM      9  C   UNL     1       2.759   7.357  18.536  0.00  0.00    +0.000 C 
ENDBRANCH   7   9
ENDBRANCH   1   7
BRANCH   3  10
ATOM     10  C   UNL     1       0.762   2.899  19.540  0.00  0.00    +0.000 C 
BRANCH  10  11
ATOM     11  C   UNL     1       1.187   2.720  20.988  0.00  0.00    +0.000 C 
ATOM     12  N   UNL     1       1.540   2.572  22.189  0.00  0.00    +0.000 NA
ENDBRANCH  10  11
ENDBRANCH   3  10
BRANCH   6  13
ATOM     13  O   UNL     1       5.553   4.595  16.930  0.00  0.00    +0.000 OA
BRANCH  13  14
ATOM     14  C   UNL     1       5.883   3.861  15.723  0.00  0.00    +0.000 C 
BRANCH  14  15
ATOM     15  C   UNL     1       5.894   4.647  14.426  0.00  0.00    +0.000 C 
ATOM     16  F   UNL     1       5.324   5.869  14.531  0.00  0.00    +0.000 F 
ATOM     17  F   UNL     1       7.148   4.820  13.982  0.00  0.00    +0.000 F 
ATOM     18  F   UNL     1       5.223   3.964  13.454  0.00  0.00    +0.000 F 
ENDBRANCH  14  15
ENDBRANCH  13  14
ENDBRANCH   6  13
TORSDOF 7
ENDMDL
MODEL 4
REMARK VINA RESULT:      -6.3      3.589      5.221
REMARK  Name = 
REMARK  8 active torsions:
REMARK  status: ('A' for Active; 'I' for Inactive)
REMARK    1  A    between atoms: C_1  and  C_2
REMARK    2  A    between atoms: C_2  and  O_3
REMARK    3  A    between atoms: O_3  and  C_4
REMARK    4  A    between atoms: C_6  and  C_7
REMARK    5  A    between atoms: C_7  and  C_8
REMARK    6  A    between atoms: C_12  and  O_13
REMARK    7  A    between atoms: O_13  and  C_14
REMARK    8  A    between atoms: C_14  and  C_15
REMARK                            x       y       z     vdW  Elec       q    Type
REMARK                         _______ _______ _______ _____ _____    ______ ____
ROOT
ATOM      1  C   UNL     1       2.901   5.582  18.164  0.00  0.00    +0.000 A 
ATOM      2  C   UNL     1       4.072   5.598  17.374  0.00  0.00    +0.000 A 
ATOM      3  C   UNL     1       4.581   4.439  16.784  0.00  0.00    +0.000 A 
ATOM      4  C   UNL     1       3.985   3.222  17.093  0.00  0.00    +0.000 A 
ATOM      5  C   UNL     1       2.867   3.182  17.912  0.00  0.00    +0.000 A 
ATOM      6  C   UNL     1       2.298   4.341  18.467  0.00  0.00    +0.000 A 
ENDROOT
BRANCH   1   7
ATOM      7  O   UNL     1       2.335   6.752  18.602  0.00  0.00    +0.000 OA
BRANCH   7   9
ATOM      8  C   UNL     1       1.686   9.010  17.901  0.00  0.00    +0.000 C 
ATOM      9  C   UNL     1       2.775   7.947  17.900  0.00  0.00    +0.000 C 
ENDBRANCH   7   9
ENDBRANCH   1   7
BRANCH   3  10
ATOM     10  C   UNL     1       5.638   4.499  15.716  0.00  0.00    +0.000 C 
BRANCH  10  11
ATOM     11  C   UNL     1       6.683   5.547  16.062  0.00  0.00    +0.000 C 
ATOM     12  N   UNL     1       7.550   6.417  16.349  0.00  0.00    +0.000 NA
ENDBRANCH  10  11
ENDBRANCH   3  10
BRANCH   6  13
ATOM     13  O   UNL     1       1.168   4.259  19.266  0.00  0.00    +0.000 OA
BRANCH  13  14
ATOM     14  C   UNL     1       1.470   4.165  20.681  0.00  0.00    +0.000 C 
BRANCH  14  15
ATOM     15  C   UNL     1       1.687   2.774  21.244  0.00  0.00    +0.000 C 
ATOM     16  F   UNL     1       1.412   1.787  20.361  0.00  0.00    +0.000 F 
ATOM     17  F   UNL     1       2.955   2.614  21.651  0.00  0.00    +0.000 F 
ATOM     18  F   UNL     1       0.895   2.578  22.338  0.00  0.00    +0.000 F 
ENDBRANCH  14  15
ENDBRANCH  13  14
ENDBRANCH   6  13
TORSDOF 7
ENDMDL
MODEL 5
REMARK VINA RESULT:      -6.3      2.366      3.612
REMARK  Name = 
REMARK  8 active torsions:
REMARK  status: ('A' for Active; 'I' for Inactive)
REMARK    1  A    between atoms: C_1  and  C_2
REMARK    2  A    between atoms: C_2  and  O_3
REMARK    3  A    between atoms: O_3  and  C_4
REMARK    4  A    between atoms: C_6  and  C_7
REMARK    5  A    between atoms: C_7  and  C_8
REMARK    6  A    between atoms: C_12  and  O_13
REMARK    7  A    between atoms: O_13  and  C_14
REMARK    8  A    between atoms: C_14  and  C_15
REMARK                            x       y       z     vdW  Elec       q    Type
REMARK                         _______ _______ _______ _____ _____    ______ ____
ROOT
ATOM      1  C   UNL     1       5.569   4.255  16.900  0.00  0.00    +0.000 A 
ATOM      2  C   UNL     1       4.196   3.925  16.856  0.00  0.00    +0.000 A 
ATOM      3  C   UNL     1       3.375   4.034  17.981  0.00  0.00    +0.000 A 
ATOM      4  C   UNL     1       3.960   4.355  19.200  0.00  0.00    +0.000 A 
ATOM      5  C   UNL     1       5.317   4.628  19.271  0.00  0.00    +0.000 A 
ATOM      6  C   UNL     1       6.154   4.588  18.142  0.00  0.00    +0.000 A 
ENDROOT
BRANCH   1   7
ATOM      7  O   UNL     1       6.318   4.291  15.751  0.00  0.00    +0.000 OA
BRANCH   7   9
ATOM      8  C   UNL     1       6.322   3.790  13.350  0.00  0.00    +0.000 C 
ATOM      9  C   UNL     1       5.548   4.383  14.520  0.00  0.00    +0.000 C 
ENDBRANCH   7   9
ENDBRANCH   1   7
BRANCH   3  10
ATOM     10  C   UNL     1       1.877   3.971  17.869  0.00  0.00    +0.000 C 
BRANCH  10  11
ATOM     11  C   UNL     1       1.243   3.912  19.250  0.00  0.00    +0.000 C 
ATOM     12  N   UNL     1       0.717   3.864  20.394  0.00  0.00    +0.000 NA
ENDBRANCH  10  11
ENDBRANCH   3  10
BRANCH   6  13
ATOM     13  O   UNL     1       7.503   4.887  18.252  0.00  0.00    +0.000 OA
BRANCH  13  14
ATOM     14  C   UNL     1       7.756   6.249  18.684  0.00  0.00    +0.000 C 
BRANCH  14  15
ATOM     15  C   UNL     1       7.584   7.339  17.646  0.00  0.00    +0.000 C 
ATOM     16  F   UNL     1       8.364   8.422  17.866  0.00  0.00    +0.000 F 
ATOM     17  F   UNL     1       7.864   6.879  16.417  0.00  0.00    +0.000 F 
ATOM     18  F   UNL     1       6.288   7.767  17.619  0.00  0.00    +0.000 F 
ENDBRANCH  14  15
ENDBRANCH  13  14
ENDBRANCH   6  13
TORSDOF 7
ENDMDL
MODEL 6
REMARK VINA RESULT:      -6.3      3.440      5.143
REMARK  Name = 
REMARK  8 active torsions:
REMARK  status: ('A' for Active; 'I' for Inactive)
REMARK    1  A    between atoms: C_1  and  C_2
REMARK    2  A    between atoms: C_2  and  O_3
REMARK    3  A    between atoms: O_3  and  C_4
REMARK    4  A    between atoms: C_6  and  C_7
REMARK    5  A    between atoms: C_7  and  C_8
REMARK    6  A    between atoms: C_12  and  O_13
REMARK    7  A    between atoms: O_13  and  C_14
REMARK    8  A    between atoms: C_14  and  C_15
REMARK                            x       y       z     vdW  Elec       q    Type
REMARK                         _______ _______ _______ _____ _____    ______ ____
ROOT
ATOM      1  C   UNL     1       3.302   5.962  17.964  0.00  0.00    +0.000 A 
ATOM      2  C   UNL     1       4.670   6.175  17.683  0.00  0.00    +0.000 A 
ATOM      3  C   UNL     1       5.457   5.200  17.065  0.00  0.00    +0.000 A 
ATOM      4  C   UNL     1       4.903   3.946  16.838  0.00  0.00    +0.000 A 
ATOM      5  C   UNL     1       3.576   3.704  17.157  0.00  0.00    +0.000 A 
ATOM      6  C   UNL     1       2.744   4.686  17.723  0.00  0.00    +0.000 A 
ENDROOT
BRANCH   1   7
ATOM      7  O   UNL     1       2.514   6.985  18.427  0.00  0.00    +0.000 OA
BRANCH   7   9
ATOM      8  C   UNL     1       1.449   9.156  18.021  0.00  0.00    +0.000 C 
ATOM      9  C   UNL     1       2.586   8.213  17.652  0.00  0.00    +0.000 C 
ENDBRANCH   7   9
ENDBRANCH   1   7
BRANCH   3  10
ATOM     10  C   UNL     1       6.814   5.525  16.504  0.00  0.00    +0.000 C 
BRANCH  10  11
ATOM     11  C   UNL     1       7.277   6.889  16.990  0.00  0.00    +0.000 C 
ATOM     12  N   UNL     1       7.660   8.020  17.394  0.00  0.00    +0.000 NA
ENDBRANCH  10  11
ENDBRANCH   3  10
BRANCH   6  13
ATOM     13  O   UNL     1       1.417   4.408  18.010  0.00  0.00    +0.000 OA
BRANCH  13  14
ATOM     14  C   UNL     1       1.251   3.391  19.031  0.00  0.00    +0.000 C 
BRANCH  14  15
ATOM     15  C   UNL     1       1.391   3.839  20.472  0.00  0.00    +0.000 C 
ATOM     16  F   UNL     1       0.840   5.050  20.717  0.00  0.00    +0.000 F 
ATOM     17  F   UNL     1       0.822   2.956  21.306  0.00  0.00    +0.000 F 
ATOM     18  F   UNL     1       2.710   3.913  20.818  0.00  0.00    +0.000 F 
ENDBRANCH  14  15
ENDBRANCH  13  14
ENDBRANCH   6  13
TORSDOF 7
ENDMDL
MODEL 7
REMARK VINA RESULT:      -6.2      2.573      3.156
REMARK  Name = 
REMARK  8 active torsions:
REMARK  status: ('A' for Active; 'I' for Inactive)
REMARK    1  A    between atoms: C_1  and  C_2
REMARK    2  A    between atoms: C_2  and  O_3
REMARK    3  A    between atoms: O_3  and  C_4
REMARK    4  A    between atoms: C_6  and  C_7
REMARK    5  A    between atoms: C_7  and  C_8
REMARK    6  A    between atoms: C_12  and  O_13
REMARK    7  A    between atoms: O_13  and  C_14
REMARK    8  A    between atoms: C_14  and  C_15
REMARK                            x       y       z     vdW  Elec       q    Type
REMARK                         _______ _______ _______ _____ _____    ______ ____
ROOT
ATOM      1  C   UNL     1       4.877   4.188  18.495  0.00  0.00    +0.000 A 
ATOM      2  C   UNL     1       3.886   4.634  19.399  0.00  0.00    +0.000 A 
ATOM      3  C   UNL     1       2.525   4.431  19.159  0.00  0.00    +0.000 A 
ATOM      4  C   UNL     1       2.140   3.889  17.939  0.00  0.00    +0.000 A 
ATOM      5  C   UNL     1       3.099   3.496  17.018  0.00  0.00    +0.000 A 
ATOM      6  C   UNL     1       4.477   3.632  17.260  0.00  0.00    +0.000 A 
ENDROOT
BRANCH   1   7
ATOM      7  O   UNL     1       6.207   4.259  18.824  0.00  0.00    +0.000 OA
BRANCH   7   9
ATOM      8  C   UNL     1       7.802   6.116  18.693  0.00  0.00    +0.000 C 
ATOM      9  C   UNL     1       6.621   5.510  19.438  0.00  0.00    +0.000 C 
ENDBRANCH   7   9
ENDBRANCH   1   7
BRANCH   3  10
ATOM     10  C   UNL     1       1.498   4.633  20.240  0.00  0.00    +0.000 C 
BRANCH  10  11
ATOM     11  C   UNL     1       1.555   3.496  21.246  0.00  0.00    +0.000 C 
ATOM     12  N   UNL     1       1.603   2.553  22.082  0.00  0.00    +0.000 NA
ENDBRANCH  10  11
ENDBRANCH   3  10
BRANCH   6  13
ATOM     13  O   UNL     1       5.403   3.209  16.321  0.00  0.00    +0.000 OA
BRANCH  13  14
ATOM     14  C   UNL     1       6.267   4.273  15.845  0.00  0.00    +0.000 C 
BRANCH  14  15
ATOM     15  C   UNL     1       5.877   4.938  14.540  0.00  0.00    +0.000 C 
ATOM     16  F   UNL     1       5.055   4.184  13.774  0.00  0.00    +0.000 F 
ATOM     17  F   UNL     1       5.263   6.110  14.763  0.00  0.00    +0.000 F 
ATOM     18  F   UNL     1       6.990   5.213  13.798  0.00  0.00    +0.000 F 
ENDBRANCH  14  15
ENDBRANCH  13  14
ENDBRANCH   6  13
TORSDOF 7
ENDMDL
MODEL 8
REMARK VINA RESULT:      -6.2      0.938      1.073
REMARK  Name = 
REMARK  8 active torsions:
REMARK  status: ('A' for Active; 'I' for Inactive)
REMARK    1  A    between atoms: C_1  and  C_2
REMARK    2  A    between atoms: C_2  and  O_3
REMARK    3  A    between atoms: O_3  and  C_4
REMARK    4  A    between atoms: C_6  and  C_7
REMARK    5  A    between atoms: C_7  and  C_8
REMARK    6  A    between atoms: C_12  and  O_13
REMARK    7  A    between atoms: O_13  and  C_14
REMARK    8  A    between atoms: C_14  and  C_15
REMARK                            x       y       z     vdW  Elec       q    Type
REMARK                         _______ _______ _______ _____ _____    ______ ____
ROOT
ATOM      1  C   UNL     1       3.186   5.327  17.774  0.00  0.00    +0.000 A 
ATOM      2  C   UNL     1       2.019   4.792  18.367  0.00  0.00    +0.000 A 
ATOM      3  C   UNL     1       1.881   3.426  18.620  0.00  0.00    +0.000 A 
ATOM      4  C   UNL     1       2.866   2.562  18.158  0.00  0.00    +0.000 A 
ATOM      5  C   UNL     1       3.992   3.066  17.526  0.00  0.00    +0.000 A 
ATOM      6  C   UNL     1       4.186   4.442  17.315  0.00  0.00    +0.000 A 
ENDROOT
BRANCH   1   7
ATOM      7  O   UNL     1       3.364   6.684  17.679  0.00  0.00    +0.000 OA
BRANCH   7   9
ATOM      8  C   UNL     1       2.020   8.732  17.790  0.00  0.00    +0.000 C 
ATOM      9  C   UNL     1       2.483   7.479  18.520  0.00  0.00    +0.000 C 
ENDBRANCH   7   9
ENDBRANCH   1   7
BRANCH   3  10
ATOM     10  C   UNL     1       0.786   2.898  19.506  0.00  0.00    +0.000 C 
BRANCH  10  11
ATOM     11  C   UNL     1       1.288   2.737  20.932  0.00  0.00    +0.000 C 
ATOM     12  N   UNL     1       1.704   2.602  22.114  0.00  0.00    +0.000 NA
ENDBRANCH  10  11
ENDBRANCH   3  10
BRANCH   6  13
ATOM     13  O   UNL     1       5.336   4.906  16.695  0.00  0.00    +0.000 OA
BRANCH  13  14
ATOM     14  C   UNL     1       6.442   5.108  17.612  0.00  0.00    +0.000 C 
BRANCH  14  15
ATOM     15  C   UNL     1       7.165   6.437  17.529  0.00  0.00    +0.000 C 
ATOM     16  F   UNL     1       7.822   6.622  16.361  0.00  0.00    +0.000 F 
ATOM     17  F   UNL     1       6.310   7.459  17.681  0.00  0.00    +0.000 F 
ATOM     18  F   UNL     1       8.083   6.540  18.535  0.00  0.00    +0.000 F 
ENDBRANCH  14  15
ENDBRANCH  13  14
ENDBRANCH   6  13
TORSDOF 7
ENDMDL
MODEL 9
REMARK VINA RESULT:      -6.2      3.487      5.036
REMARK  Name = 
REMARK  8 active torsions:
REMARK  status: ('A' for Active; 'I' for Inactive)
REMARK    1  A    between atoms: C_1  and  C_2
REMARK    2  A    between atoms: C_2  and  O_3
REMARK    3  A    between atoms: O_3  and  C_4
REMARK    4  A    between atoms: C_6  and  C_7
REMARK    5  A    between atoms: C_7  and  C_8
REMARK    6  A    between atoms: C_12  and  O_13
REMARK    7  A    between atoms: O_13  and  C_14
REMARK    8  A    between atoms: C_14  and  C_15
REMARK                            x       y       z     vdW  Elec       q    Type
REMARK                         _______ _______ _______ _____ _____    ______ ____
ROOT
ATOM      1  C   UNL     1       2.836   6.253  18.483  0.00  0.00    +0.000 A 
ATOM      2  C   UNL     1       3.968   6.352  17.643  0.00  0.00    +0.000 A 
ATOM      3  C   UNL     1       4.446   5.258  16.918  0.00  0.00    +0.000 A 
ATOM      4  C   UNL     1       3.864   4.014  17.133  0.00  0.00    +0.000 A 
ATOM      5  C   UNL     1       2.787   3.890  17.996  0.00  0.00    +0.000 A 
ATOM      6  C   UNL     1       2.246   4.986  18.690  0.00  0.00    +0.000 A 
ENDROOT
BRANCH   1   7
ATOM      7  O   UNL     1       2.293   7.372  19.061  0.00  0.00    +0.000 OA
BRANCH   7   9
ATOM      8  C   UNL     1       1.153   9.523  18.767  0.00  0.00    +0.000 C 
ATOM      9  C   UNL     1       2.096   8.495  18.158  0.00  0.00    +0.000 C 
ENDBRANCH   7   9
ENDBRANCH   1   7
BRANCH   3  10
ATOM     10  C   UNL     1       5.451   5.427  15.812  0.00  0.00    +0.000 C 
BRANCH  10  11
ATOM     11  C   UNL     1       6.805   4.882  16.236  0.00  0.00    +0.000 C 
ATOM     12  N   UNL     1       7.928   4.429  16.587  0.00  0.00    +0.000 NA
ENDBRANCH  10  11
ENDBRANCH   3  10
BRANCH   6  13
ATOM     13  O   UNL     1       1.156   4.822  19.529  0.00  0.00    +0.000 OA
BRANCH  13  14
ATOM     14  C   UNL     1       1.041   3.479  20.067  0.00  0.00    +0.000 C 
BRANCH  14  15
ATOM     15  C   UNL     1       1.861   3.165  21.302  0.00  0.00    +0.000 C 
ATOM     16  F   UNL     1       2.335   4.265  21.930  0.00  0.00    +0.000 F 
ATOM     17  F   UNL     1       1.139   2.468  22.192  0.00  0.00    +0.000 F 
ATOM     18  F   UNL     1       2.934   2.388  20.972  0.00  0.00    +0.000 F 
ENDBRANCH  14  15
ENDBRANCH  13  14
ENDBRANCH   6  13
TORSDOF 7
ENDMDL
