MODEL 1
REMARK VINA RESULT:      -6.9      0.000      0.000
REMARK  Name = 
REMARK  6 active torsions:
REMARK  status: ('A' for Active; 'I' for Inactive)
REMARK    1  A    between atoms: C_2  and  C_3
REMARK    2  A    between atoms: C_3  and  O_4
REMARK    3  A    between atoms: O_4  and  C_5
REMARK    4  A    between atoms: C_10  and  C_11
REMARK    5  A    between atoms: C_11  and  N_12
REMARK    6  A    between atoms: N_12  and  C_13
REMARK                            x       y       z     vdW  Elec       q    Type
REMARK                         _______ _______ _______ _____ _____    ______ ____
ROOT
ATOM      1  N   UNL     1       2.940   6.275  17.987  0.00  0.00    +0.000 N 
ATOM      2  H   UNL     1       2.495   5.358  18.152  0.00  0.00    +0.000 HD
ENDROOT
BRANCH   1   3
ATOM      3  C   UNL     1       2.332   7.438  18.555  0.00  0.00    +0.000 A 
ATOM      4  C   UNL     1       1.963   8.559  17.774  0.00  0.00    +0.000 A 
ATOM      5  C   UNL     1       1.312   9.649  18.360  0.00  0.00    +0.000 A 
ATOM      6  C   UNL     1       1.000   9.618  19.721  0.00  0.00    +0.000 A 
ATOM      7  C   UNL     1       1.388   8.520  20.502  0.00  0.00    +0.000 A 
ATOM      8  C   UNL     1       2.062   7.445  19.930  0.00  0.00    +0.000 A 
ATOM      9  O   UNL     1       1.049   8.506  21.808  0.00  0.00    +0.000 OA
ATOM     10  C   UNL     1      -0.110   9.152  22.180  0.00  0.00    +0.000 C 
ATOM     11  C   UNL     1      -0.125  10.592  21.627  0.00  0.00    +0.000 C 
ATOM     12  O   UNL     1       0.321  10.638  20.308  0.00  0.00    +0.000 OA
ENDBRANCH   1   3
BRANCH   1  13
ATOM     13  C   UNL     1       4.058   6.323  17.066  0.00  0.00    +0.000 C 
BRANCH  13  19
ATOM     14  C   UNL     1       5.651   5.412  18.892  0.00  0.00    +0.000 A 
ATOM     15  C   UNL     1       6.916   5.417  19.493  0.00  0.00    +0.000 A 
ATOM     16  C   UNL     1       7.959   6.179  18.978  0.00  0.00    +0.000 A 
ATOM     17  C   UNL     1       7.752   6.973  17.857  0.00  0.00    +0.000 A 
ATOM     18  C   UNL     1       6.501   7.010  17.256  0.00  0.00    +0.000 A 
ATOM     19  C   UNL     1       5.418   6.235  17.743  0.00  0.00    +0.000 A 
BRANCH  14  20
ATOM     20  O   UNL     1       4.757   4.567  19.477  0.00  0.00    +0.000 OA
BRANCH  20  21
ATOM     21  C   UNL     1       4.497   3.235  19.240  0.00  0.00    +0.000 C 
BRANCH  21  23
ATOM     22  C   UNL     1       2.544   3.776  20.640  0.00  0.00    +0.000 C 
ATOM     23  C   UNL     1       3.303   2.840  20.056  0.00  0.00    +0.000 C 
ENDBRANCH  21  23
ENDBRANCH  20  21
ENDBRANCH  14  20
ENDBRANCH  13  19
ENDBRANCH   1  13
TORSDOF 6
ENDMDL
MODEL 2
REMARK VINA RESULT:      -6.9      1.539      3.857
REMARK  Name = 
REMARK  6 active torsions:
REMARK  status: ('A' for Active; 'I' for Inactive)
REMARK    1  A    between atoms: C_2  and  C_3
REMARK    2  A    between atoms: C_3  and  O_4
REMARK    3  A    between atoms: O_4  and  C_5
REMARK    4  A    between atoms: C_10  and  C_11
REMARK    5  A    between atoms: C_11  and  N_12
REMARK    6  A    between atoms: N_12  and  C_13
REMARK                            x       y       z     vdW  Elec       q    Type
REMARK                         _______ _______ _______ _____ _____    ______ ____
ROOT
ATOM      1  N   UNL     1       2.516   6.684  20.346  0.00  0.00    +0.000 N 
ATOM      2  H   UNL     1       3.511   6.665  20.619  0.00  0.00    +0.000 HD
ENDROOT
BRANCH   1   3
ATOM      3  C   UNL     1       1.978   7.899  19.819  0.00  0.00    +0.000 A 
ATOM      4  C   UNL     1       2.115   8.262  18.457  0.00  0.00    +0.000 A 
ATOM      5  C   UNL     1       1.518   9.429  17.970  0.00  0.00    +0.000 A 
ATOM      6  C   UNL     1       0.757  10.226  18.827  0.00  0.00    +0.000 A 
ATOM      7  C   UNL     1       0.641   9.883  20.182  0.00  0.00    +0.000 A 
ATOM      8  C   UNL     1       1.258   8.738  20.679  0.00  0.00    +0.000 A 
ATOM      9  O   UNL     1      -0.122  10.657  20.981  0.00  0.00    +0.000 OA
ATOM     10  C   UNL     1      -1.197  11.307  20.412  0.00  0.00    +0.000 C 
ATOM     11  C   UNL     1      -0.752  12.086  19.157  0.00  0.00    +0.000 C 
ATOM     12  O   UNL     1       0.120  11.336  18.371  0.00  0.00    +0.000 OA
ENDBRANCH   1   3
BRANCH   1  13
ATOM     13  C   UNL     1       1.711   5.521  20.663  0.00  0.00    +0.000 C 
BRANCH  13  19
ATOM     14  C   UNL     1       3.257   4.105  19.145  0.00  0.00    +0.000 A 
ATOM     15  C   UNL     1       3.426   3.002  18.299  0.00  0.00    +0.000 A 
ATOM     16  C   UNL     1       2.396   2.093  18.081  0.00  0.00    +0.000 A 
ATOM     17  C   UNL     1       1.164   2.280  18.692  0.00  0.00    +0.000 A 
ATOM     18  C   UNL     1       0.957   3.379  19.515  0.00  0.00    +0.000 A 
ATOM     19  C   UNL     1       1.987   4.319  19.773  0.00  0.00    +0.000 A 
BRANCH  14  20
ATOM     20  O   UNL     1       4.376   4.865  19.304  0.00  0.00    +0.000 OA
BRANCH  20  21
ATOM     21  C   UNL     1       5.513   4.958  18.532  0.00  0.00    +0.000 C 
BRANCH  21  23
ATOM     22  C   UNL     1       4.823   6.203  16.523  0.00  0.00    +0.000 C 
ATOM     23  C   UNL     1       5.425   6.214  17.719  0.00  0.00    +0.000 C 
ENDBRANCH  21  23
ENDBRANCH  20  21
ENDBRANCH  14  20
ENDBRANCH  13  19
ENDBRANCH   1  13
TORSDOF 6
ENDMDL
MODEL 3
REMARK VINA RESULT:      -6.9      0.992      3.499
REMARK  Name = 
REMARK  6 active torsions:
REMARK  status: ('A' for Active; 'I' for Inactive)
REMARK    1  A    between atoms: C_2  and  C_3
REMARK    2  A    between atoms: C_3  and  O_4
REMARK    3  A    between atoms: O_4  and  C_5
REMARK    4  A    between atoms: C_10  and  C_11
REMARK    5  A    between atoms: C_11  and  N_12
REMARK    6  A    between atoms: N_12  and  C_13
REMARK                            x       y       z     vdW  Elec       q    Type
REMARK                         _______ _______ _______ _____ _____    ______ ____
ROOT
ATOM      1  N   UNL     1       2.872   6.384  18.075  0.00  0.00    +0.000 N 
ATOM      2  H   UNL     1       3.883   6.408  17.873  0.00  0.00    +0.000 HD
ENDROOT
BRANCH   1   3
ATOM      3  C   UNL     1       2.260   7.552  18.627  0.00  0.00    +0.000 A 
ATOM      4  C   UNL     1       1.872   8.655  17.829  0.00  0.00    +0.000 A 
ATOM      5  C   UNL     1       1.219   9.751  18.401  0.00  0.00    +0.000 A 
ATOM      6  C   UNL     1       0.922   9.743  19.766  0.00  0.00    +0.000 A 
ATOM      7  C   UNL     1       1.328   8.664  20.563  0.00  0.00    +0.000 A 
ATOM      8  C   UNL     1       2.005   7.583  20.004  0.00  0.00    +0.000 A 
ATOM      9  O   UNL     1       1.003   8.672  21.873  0.00  0.00    +0.000 OA
ATOM     10  C   UNL     1      -0.158   9.315  22.246  0.00  0.00    +0.000 C 
ATOM     11  C   UNL     1      -0.191  10.744  21.665  0.00  0.00    +0.000 C 
ATOM     12  O   UNL     1       0.240  10.769  20.341  0.00  0.00    +0.000 OA
ENDBRANCH   1   3
BRANCH   1  13
ATOM     13  C   UNL     1       2.187   5.115  17.924  0.00  0.00    +0.000 C 
BRANCH  13  19
ATOM     14  C   UNL     1       3.522   3.602  19.545  0.00  0.00    +0.000 A 
ATOM     15  C   UNL     1       3.533   2.741  20.649  0.00  0.00    +0.000 A 
ATOM     16  C   UNL     1       2.379   2.492  21.384  0.00  0.00    +0.000 A 
ATOM     17  C   UNL     1       1.179   3.084  21.014  0.00  0.00    +0.000 A 
ATOM     18  C   UNL     1       1.130   3.920  19.907  0.00  0.00    +0.000 A 
ATOM     19  C   UNL     1       2.290   4.211  19.143  0.00  0.00    +0.000 A 
BRANCH  14  20
ATOM     20  O   UNL     1       4.743   3.792  18.971  0.00  0.00    +0.000 OA
BRANCH  20  21
ATOM     21  C   UNL     1       5.697   4.761  19.195  0.00  0.00    +0.000 C 
BRANCH  21  23
ATOM     22  C   UNL     1       6.353   6.359  17.441  0.00  0.00    +0.000 C 
ATOM     23  C   UNL     1       6.340   5.096  17.883  0.00  0.00    +0.000 C 
ENDBRANCH  21  23
ENDBRANCH  20  21
ENDBRANCH  14  20
ENDBRANCH  13  19
ENDBRANCH   1  13
TORSDOF 6
ENDMDL
MODEL 4
REMARK VINA RESULT:      -6.8      1.582      3.865
REMARK  Name = 
REMARK  6 active torsions:
REMARK  status: ('A' for Active; 'I' for Inactive)
REMARK    1  A    between atoms: C_2  and  C_3
REMARK    2  A    between atoms: C_3  and  O_4
REMARK    3  A    between atoms: O_4  and  C_5
REMARK    4  A    between atoms: C_10  and  C_11
REMARK    5  A    between atoms: C_11  and  N_12
REMARK    6  A    between atoms: N_12  and  C_13
REMARK                            x       y       z     vdW  Elec       q    Type
REMARK                         _______ _______ _______ _____ _____    ______ ____
ROOT
ATOM      1  N   UNL     1       2.260   7.007  20.027  0.00  0.00    +0.000 N 
ATOM      2  H   UNL     1       3.132   7.003  19.475  0.00  0.00    +0.000 HD
ENDROOT
BRANCH   1   3
ATOM      3  C   UNL     1       1.611   8.259  20.265  0.00  0.00    +0.000 A 
ATOM      4  C   UNL     1       1.269   9.148  19.216  0.00  0.00    +0.000 A 
ATOM      5  C   UNL     1       0.577  10.332  19.487  0.00  0.00    +0.000 A 
ATOM      6  C   UNL     1       0.197  10.626  20.798  0.00  0.00    +0.000 A 
ATOM      7  C   UNL     1       0.557   9.761  21.841  0.00  0.00    +0.000 A 
ATOM      8  C   UNL     1       1.271   8.595  21.582  0.00  0.00    +0.000 A 
ATOM      9  O   UNL     1       0.152  10.057  23.094  0.00  0.00    +0.000 OA
ATOM     10  C   UNL     1      -1.033  10.747  23.242  0.00  0.00    +0.000 C 
ATOM     11  C   UNL     1      -1.035  12.009  22.353  0.00  0.00    +0.000 C 
ATOM     12  O   UNL     1      -0.523  11.742  21.086  0.00  0.00    +0.000 OA
ENDBRANCH   1   3
BRANCH   1  13
ATOM     13  C   UNL     1       1.850   5.762  20.645  0.00  0.00    +0.000 C 
BRANCH  13  19
ATOM     14  C   UNL     1       3.092   4.372  18.848  0.00  0.00    +0.000 A 
ATOM     15  C   UNL     1       3.122   3.256  18.002  0.00  0.00    +0.000 A 
ATOM     16  C   UNL     1       2.111   2.302  18.027  0.00  0.00    +0.000 A 
ATOM     17  C   UNL     1       1.032   2.455  18.888  0.00  0.00    +0.000 A 
ATOM     18  C   UNL     1       0.960   3.565  19.719  0.00  0.00    +0.000 A 
ATOM     19  C   UNL     1       1.980   4.551  19.734  0.00  0.00    +0.000 A 
BRANCH  14  20
ATOM     20  O   UNL     1       4.185   5.179  18.750  0.00  0.00    +0.000 OA
BRANCH  20  21
ATOM     21  C   UNL     1       5.426   5.082  19.340  0.00  0.00    +0.000 C 
BRANCH  21  23
ATOM     22  C   UNL     1       6.646   6.234  17.538  0.00  0.00    +0.000 C 
ATOM     23  C   UNL     1       6.462   5.120  18.258  0.00  0.00    +0.000 C 
ENDBRANCH  21  23
ENDBRANCH  20  21
ENDBRANCH  14  20
ENDBRANCH  13  19
ENDBRANCH   1  13
TORSDOF 6
ENDMDL
MODEL 5
REMARK VINA RESULT:      -6.8      1.892      4.106
REMARK  Name = 
REMARK  6 active torsions:
REMARK  status: ('A' for Active; 'I' for Inactive)
REMARK    1  A    between atoms: C_2  and  C_3
REMARK    2  A    between atoms: C_3  and  O_4
REMARK    3  A    between atoms: O_4  and  C_5
REMARK    4  A    between atoms: C_10  and  C_11
REMARK    5  A    between atoms: C_11  and  N_12
REMARK    6  A    between atoms: N_12  and  C_13
REMARK                            x       y       z     vdW  Elec       q    Type
REMARK                         _______ _______ _______ _____ _____    ______ ____
ROOT
ATOM      1  N   UNL     1       2.085   7.003  20.723  0.00  0.00    +0.000 N 
ATOM      2  H   UNL     1       2.040   6.431  21.580  0.00  0.00    +0.000 HD
ENDROOT
BRANCH   1   3
ATOM      3  C   UNL     1       1.444   8.281  20.724  0.00  0.00    +0.000 A 
ATOM      4  C   UNL     1       1.181   8.998  19.531  0.00  0.00    +0.000 A 
ATOM      5  C   UNL     1       0.495  10.216  19.572  0.00  0.00    +0.000 A 
ATOM      6  C   UNL     1       0.041  10.713  20.796  0.00  0.00    +0.000 A 
ATOM      7  C   UNL     1       0.323  10.018  21.981  0.00  0.00    +0.000 A 
ATOM      8  C   UNL     1       1.032   8.820  21.949  0.00  0.00    +0.000 A 
ATOM      9  O   UNL     1      -0.151  10.508  23.145  0.00  0.00    +0.000 OA
ATOM     10  C   UNL     1      -1.330  11.222  23.111  0.00  0.00    +0.000 C 
ATOM     11  C   UNL     1      -1.258  12.330  22.039  0.00  0.00    +0.000 C 
ATOM     12  O   UNL     1      -0.675  11.866  20.862  0.00  0.00    +0.000 OA
ENDBRANCH   1   3
BRANCH   1  13
ATOM     13  C   UNL     1       2.663   6.396  19.541  0.00  0.00    +0.000 C 
BRANCH  13  19
ATOM     14  C   UNL     1       2.615   4.217  18.143  0.00  0.00    +0.000 A 
ATOM     15  C   UNL     1       2.091   2.935  17.938  0.00  0.00    +0.000 A 
ATOM     16  C   UNL     1       1.184   2.372  18.829  0.00  0.00    +0.000 A 
ATOM     17  C   UNL     1       0.763   3.091  19.939  0.00  0.00    +0.000 A 
ATOM     18  C   UNL     1       1.243   4.377  20.155  0.00  0.00    +0.000 A 
ATOM     19  C   UNL     1       2.181   4.978  19.277  0.00  0.00    +0.000 A 
BRANCH  14  20
ATOM     20  O   UNL     1       3.538   4.601  17.218  0.00  0.00    +0.000 OA
BRANCH  20  21
ATOM     21  C   UNL     1       4.913   4.519  17.238  0.00  0.00    +0.000 C 
BRANCH  21  23
ATOM     22  C   UNL     1       6.774   6.009  16.623  0.00  0.00    +0.000 C 
ATOM     23  C   UNL     1       5.466   5.862  16.867  0.00  0.00    +0.000 C 
ENDBRANCH  21  23
ENDBRANCH  20  21
ENDBRANCH  14  20
ENDBRANCH  13  19
ENDBRANCH   1  13
TORSDOF 6
ENDMDL
MODEL 6
REMARK VINA RESULT:      -6.8      3.404      7.623
REMARK  Name = 
REMARK  6 active torsions:
REMARK  status: ('A' for Active; 'I' for Inactive)
REMARK    1  A    between atoms: C_2  and  C_3
REMARK    2  A    between atoms: C_3  and  O_4
REMARK    3  A    between atoms: O_4  and  C_5
REMARK    4  A    between atoms: C_10  and  C_11
REMARK    5  A    between atoms: C_11  and  N_12
REMARK    6  A    between atoms: N_12  and  C_13
REMARK                            x       y       z     vdW  Elec       q    Type
REMARK                         _______ _______ _______ _____ _____    ______ ____
ROOT
ATOM      1  N   UNL     1       4.706   2.902  17.551  0.00  0.00    +0.000 N 
ATOM      2  H   UNL     1       5.164   2.552  18.407  0.00  0.00    +0.000 HD
ENDROOT
BRANCH   1   3
ATOM      3  C   UNL     1       5.485   3.663  16.625  0.00  0.00    +0.000 A 
ATOM      4  C   UNL     1       6.465   4.596  17.044  0.00  0.00    +0.000 A 
ATOM      5  C   UNL     1       7.249   5.271  16.104  0.00  0.00    +0.000 A 
ATOM      6  C   UNL     1       7.084   5.002  14.744  0.00  0.00    +0.000 A 
ATOM      7  C   UNL     1       6.097   4.098  14.325  0.00  0.00    +0.000 A 
ATOM      8  C   UNL     1       5.293   3.444  15.255  0.00  0.00    +0.000 A 
ATOM      9  O   UNL     1       5.978   3.838  13.006  0.00  0.00    +0.000 OA
ATOM     10  C   UNL     1       7.114   3.919  12.229  0.00  0.00    +0.000 C 
ATOM     11  C   UNL     1       7.827   5.268  12.458  0.00  0.00    +0.000 C 
ATOM     12  O   UNL     1       7.867   5.602  13.810  0.00  0.00    +0.000 OA
ENDBRANCH   1   3
BRANCH   1  13
ATOM     13  C   UNL     1       3.272   2.724  17.436  0.00  0.00    +0.000 C 
BRANCH  13  19
ATOM     14  C   UNL     1       2.456   4.758  18.814  0.00  0.00    +0.000 A 
ATOM     15  C   UNL     1       1.745   5.257  19.912  0.00  0.00    +0.000 A 
ATOM     16  C   UNL     1       1.035   4.412  20.758  0.00  0.00    +0.000 A 
ATOM     17  C   UNL     1       1.039   3.041  20.535  0.00  0.00    +0.000 A 
ATOM     18  C   UNL     1       1.758   2.514  19.470  0.00  0.00    +0.000 A 
ATOM     19  C   UNL     1       2.481   3.345  18.576  0.00  0.00    +0.000 A 
BRANCH  14  20
ATOM     20  O   UNL     1       3.045   5.717  18.046  0.00  0.00    +0.000 OA
BRANCH  20  21
ATOM     21  C   UNL     1       3.424   7.005  18.356  0.00  0.00    +0.000 C 
BRANCH  21  23
ATOM     22  C   UNL     1       1.825   8.873  18.220  0.00  0.00    +0.000 C 
ATOM     23  C   UNL     1       2.552   7.947  17.582  0.00  0.00    +0.000 C 
ENDBRANCH  21  23
ENDBRANCH  20  21
ENDBRANCH  14  20
ENDBRANCH  13  19
ENDBRANCH   1  13
TORSDOF 6
ENDMDL
MODEL 7
REMARK VINA RESULT:      -6.7      1.997      2.365
REMARK  Name = 
REMARK  6 active torsions:
REMARK  status: ('A' for Active; 'I' for Inactive)
REMARK    1  A    between atoms: C_2  and  C_3
REMARK    2  A    between atoms: C_3  and  O_4
REMARK    3  A    between atoms: O_4  and  C_5
REMARK    4  A    between atoms: C_10  and  C_11
REMARK    5  A    between atoms: C_11  and  N_12
REMARK    6  A    between atoms: N_12  and  C_13
REMARK                            x       y       z     vdW  Elec       q    Type
REMARK                         _______ _______ _______ _____ _____    ______ ____
ROOT
ATOM      1  N   UNL     1       2.526   6.876  20.067  0.00  0.00    +0.000 N 
ATOM      2  H   UNL     1       3.252   6.629  20.757  0.00  0.00    +0.000 HD
ENDROOT
BRANCH   1   3
ATOM      3  C   UNL     1       1.800   8.094  20.250  0.00  0.00    +0.000 A 
ATOM      4  C   UNL     1       1.370   8.893  19.163  0.00  0.00    +0.000 A 
ATOM      5  C   UNL     1       0.607  10.043  19.385  0.00  0.00    +0.000 A 
ATOM      6  C   UNL     1       0.242  10.390  20.688  0.00  0.00    +0.000 A 
ATOM      7  C   UNL     1       0.689   9.616  21.768  0.00  0.00    +0.000 A 
ATOM      8  C   UNL     1       1.474   8.486  21.555  0.00  0.00    +0.000 A 
ATOM      9  O   UNL     1       0.298   9.960  23.013  0.00  0.00    +0.000 OA
ATOM     10  C   UNL     1      -0.926  10.578  23.157  0.00  0.00    +0.000 C 
ATOM     11  C   UNL     1      -1.038  11.780  22.197  0.00  0.00    +0.000 C 
ATOM     12  O   UNL     1      -0.544  11.472  20.931  0.00  0.00    +0.000 OA
ENDBRANCH   1   3
BRANCH   1  13
ATOM     13  C   UNL     1       2.198   5.893  19.054  0.00  0.00    +0.000 C 
BRANCH  13  19
ATOM     14  C   UNL     1       3.592   4.438  17.429  0.00  0.00    +0.000 A 
ATOM     15  C   UNL     1       4.631   4.341  16.495  0.00  0.00    +0.000 A 
ATOM     16  C   UNL     1       5.341   5.463  16.083  0.00  0.00    +0.000 A 
ATOM     17  C   UNL     1       5.039   6.710  16.614  0.00  0.00    +0.000 A 
ATOM     18  C   UNL     1       4.033   6.834  17.563  0.00  0.00    +0.000 A 
ATOM     19  C   UNL     1       3.277   5.715  17.996  0.00  0.00    +0.000 A 
BRANCH  14  20
ATOM     20  O   UNL     1       2.954   3.261  17.680  0.00  0.00    +0.000 OA
BRANCH  20  21
ATOM     21  C   UNL     1       3.194   2.298  18.636  0.00  0.00    +0.000 C 
BRANCH  21  23
ATOM     22  C   UNL     1       0.747   2.483  18.835  0.00  0.00    +0.000 C 
ATOM     23  C   UNL     1       1.888   1.941  19.279  0.00  0.00    +0.000 C 
ENDBRANCH  21  23
ENDBRANCH  20  21
ENDBRANCH  14  20
ENDBRANCH  13  19
ENDBRANCH   1  13
TORSDOF 6
ENDMDL
MODEL 8
REMARK VINA RESULT:      -6.7      1.650      2.143
REMARK  Name = 
REMARK  6 active torsions:
REMARK  status: ('A' for Active; 'I' for Inactive)
REMARK    1  A    between atoms: C_2  and  C_3
REMARK    2  A    between atoms: C_3  and  O_4
REMARK    3  A    between atoms: O_4  and  C_5
REMARK    4  A    between atoms: C_10  and  C_11
REMARK    5  A    between atoms: C_11  and  N_12
REMARK    6  A    between atoms: N_12  and  C_13
REMARK                            x       y       z     vdW  Elec       q    Type
REMARK                         _______ _______ _______ _____ _____    ______ ____
ROOT
ATOM      1  N   UNL     1       3.023   5.735  19.686  0.00  0.00    +0.000 N 
ATOM      2  H   UNL     1       2.359   4.974  19.898  0.00  0.00    +0.000 HD
ENDROOT
BRANCH   1   3
ATOM      3  C   UNL     1       2.498   7.026  19.368  0.00  0.00    +0.000 A 
ATOM      4  C   UNL     1       2.593   7.585  18.071  0.00  0.00    +0.000 A 
ATOM      5  C   UNL     1       2.009   8.824  17.787  0.00  0.00    +0.000 A 
ATOM      6  C   UNL     1       1.302   9.499  18.784  0.00  0.00    +0.000 A 
ATOM      7  C   UNL     1       1.229   8.961  20.077  0.00  0.00    +0.000 A 
ATOM      8  C   UNL     1       1.833   7.742  20.373  0.00  0.00    +0.000 A 
ATOM      9  O   UNL     1       0.517   9.623  21.012  0.00  0.00    +0.000 OA
ATOM     10  C   UNL     1      -0.561  10.372  20.591  0.00  0.00    +0.000 C 
ATOM     11  C   UNL     1      -0.143  11.321  19.449  0.00  0.00    +0.000 C 
ATOM     12  O   UNL     1       0.678  10.679  18.525  0.00  0.00    +0.000 OA
ENDBRANCH   1   3
BRANCH   1  13
ATOM     13  C   UNL     1       4.427   5.392  19.580  0.00  0.00    +0.000 C 
BRANCH  13  19
ATOM     14  C   UNL     1       4.366   4.260  17.253  0.00  0.00    +0.000 A 
ATOM     15  C   UNL     1       4.898   4.137  15.963  0.00  0.00    +0.000 A 
ATOM     16  C   UNL     1       5.927   4.963  15.524  0.00  0.00    +0.000 A 
ATOM     17  C   UNL     1       6.462   5.919  16.376  0.00  0.00    +0.000 A 
ATOM     18  C   UNL     1       5.975   6.047  17.670  0.00  0.00    +0.000 A 
ATOM     19  C   UNL     1       4.916   5.234  18.149  0.00  0.00    +0.000 A 
BRANCH  14  20
ATOM     20  O   UNL     1       3.322   3.423  17.510  0.00  0.00    +0.000 OA
BRANCH  20  21
ATOM     21  C   UNL     1       3.296   2.181  18.106  0.00  0.00    +0.000 C 
BRANCH  21  23
ATOM     22  C   UNL     1       1.052   2.961  18.753  0.00  0.00    +0.000 C 
ATOM     23  C   UNL     1       2.049   2.085  18.932  0.00  0.00    +0.000 C 
ENDBRANCH  21  23
ENDBRANCH  20  21
ENDBRANCH  14  20
ENDBRANCH  13  19
ENDBRANCH   1  13
TORSDOF 6
ENDMDL
MODEL 9
REMARK VINA RESULT:      -6.7      1.815      3.617
REMARK  Name = 
REMARK  6 active torsions:
REMARK  status: ('A' for Active; 'I' for Inactive)
REMARK    1  A    between atoms: C_2  and  C_3
REMARK    2  A    between atoms: C_3  and  O_4
REMARK    3  A    between atoms: O_4  and  C_5
REMARK    4  A    between atoms: C_10  and  C_11
REMARK    5  A    between atoms: C_11  and  N_12
REMARK    6  A    between atoms: N_12  and  C_13
REMARK                            x       y       z     vdW  Elec       q    Type
REMARK                         _______ _______ _______ _____ _____    ______ ____
ROOT
ATOM      1  N   UNL     1       2.473   6.829  19.812  0.00  0.00    +0.000 N 
ATOM      2  H   UNL     1       2.792   6.250  20.603  0.00  0.00    +0.000 HD
ENDROOT
BRANCH   1   3
ATOM      3  C   UNL     1       1.809   8.063  20.097  0.00  0.00    +0.000 A 
ATOM      4  C   UNL     1       1.458   8.988  19.083  0.00  0.00    +0.000 A 
ATOM      5  C   UNL     1       0.751  10.152  19.398  0.00  0.00    +0.000 A 
ATOM      6  C   UNL     1       0.364  10.390  20.719  0.00  0.00    +0.000 A 
ATOM      7  C   UNL     1       0.733   9.489  21.728  0.00  0.00    +0.000 A 
ATOM      8  C   UNL     1       1.462   8.343  21.425  0.00  0.00    +0.000 A 
ATOM      9  O   UNL     1       0.322   9.731  22.990  0.00  0.00    +0.000 OA
ATOM     10  C   UNL     1      -0.871  10.401  23.162  0.00  0.00    +0.000 C 
ATOM     11  C   UNL     1      -0.887  11.696  22.324  0.00  0.00    +0.000 C 
ATOM     12  O   UNL     1      -0.369  11.485  21.048  0.00  0.00    +0.000 OA
ENDBRANCH   1   3
BRANCH   1  13
ATOM     13  C   UNL     1       2.590   6.270  18.480  0.00  0.00    +0.000 C 
BRANCH  13  19
ATOM     14  C   UNL     1       3.811   3.998  18.265  0.00  0.00    +0.000 A 
ATOM     15  C   UNL     1       3.745   2.601  18.198  0.00  0.00    +0.000 A 
ATOM     16  C   UNL     1       2.537   1.927  18.340  0.00  0.00    +0.000 A 
ATOM     17  C   UNL     1       1.361   2.640  18.531  0.00  0.00    +0.000 A 
ATOM     18  C   UNL     1       1.391   4.028  18.574  0.00  0.00    +0.000 A 
ATOM     19  C   UNL     1       2.606   4.750  18.449  0.00  0.00    +0.000 A 
BRANCH  14  20
ATOM     20  O   UNL     1       5.073   4.504  18.172  0.00  0.00    +0.000 OA
BRANCH  20  21
ATOM     21  C   UNL     1       5.962   4.504  17.120  0.00  0.00    +0.000 C 
BRANCH  21  23
ATOM     22  C   UNL     1       5.173   6.445  15.826  0.00  0.00    +0.000 C 
ATOM     23  C   UNL     1       5.280   5.115  15.933  0.00  0.00    +0.000 C 
ENDBRANCH  21  23
ENDBRANCH  20  21
ENDBRANCH  14  20
ENDBRANCH  13  19
ENDBRANCH   1  13
TORSDOF 6
ENDMDL
