MODEL 1
REMARK VINA RESULT:      -7.8      0.000      0.000
REMARK  Name = 
REMARK  5 active torsions:
REMARK  status: ('A' for Active; 'I' for Inactive)
REMARK    1  A    between atoms: C_1  and  S_2
REMARK    2  A    between atoms: S_2  and  C_5
REMARK    3  A    between atoms: C_8  and  N_9
REMARK    4  A    between atoms: N_9  and  N_10
REMARK    5  A    between atoms: N_10  and  C_11
REMARK                            x       y       z     vdW  Elec       q    Type
REMARK                         _______ _______ _______ _____ _____    ______ ____
ROOT
ATOM      1  N   UNL     1       5.483   3.621  16.008  0.00  0.00    +0.000 N 
ATOM      2  H   UNL     1       5.420   2.782  15.428  0.00  0.00    +0.000 HD
ENDROOT
BRANCH   1   6
ATOM      3  C   UNL     1       2.500   3.694  18.998  0.00  0.00    +0.000 A 
ATOM      4  C   UNL     1       2.810   4.862  18.303  0.00  0.00    +0.000 A 
ATOM      5  C   UNL     1       3.776   4.824  17.295  0.00  0.00    +0.000 A 
ATOM      6  C   UNL     1       4.469   3.642  16.998  0.00  0.00    +0.000 A 
ATOM      7  C   UNL     1       4.106   2.467  17.674  0.00  0.00    +0.000 A 
ATOM      8  C   UNL     1       3.139   2.491  18.689  0.00  0.00    +0.000 A 
BRANCH   3  10
ATOM      9  C   UNL     1       2.165   2.952  21.666  0.00  0.00    +0.000 C 
ATOM     10  S   UNL     1       1.324   3.760  20.330  0.00  0.00    +0.000 S 
ATOM     11  O   UNL     1       0.192   2.937  19.950  0.00  0.00    +0.000 OA
ATOM     12  O   UNL     1       1.144   5.154  20.683  0.00  0.00    +0.000 OA
ENDBRANCH   3  10
ENDBRANCH   1   6
BRANCH   1  13
ATOM     13  N   UNL     1       6.776   3.979  16.317  0.00  0.00    +0.000 N 
ATOM     14  H   UNL     1       7.509   3.298  16.109  0.00  0.00    +0.000 HD
BRANCH  13  15
ATOM     15  C   UNL     1       7.171   4.987  17.175  0.00  0.00    +0.000 A 
ATOM     16  C   UNL     1       7.279   6.267  16.791  0.00  0.00    +0.000 A 
ATOM     17  C   UNL     1       7.758   7.288  17.747  0.00  0.00    +0.000 A 
ATOM     18  O   UNL     1       7.866   8.460  17.414  0.00  0.00    +0.000 OA
ATOM     19  N   UNL     1       8.073   6.828  18.991  0.00  0.00    +0.000 N 
ATOM     20  C   UNL     1       7.960   5.533  19.392  0.00  0.00    +0.000 A 
ATOM     21  O   UNL     1       8.273   5.177  20.526  0.00  0.00    +0.000 OA
ATOM     22  N   UNL     1       7.487   4.666  18.462  0.00  0.00    +0.000 N 
ATOM     23  H   UNL     1       8.433   7.495  19.663  0.00  0.00    +0.000 HD
ATOM     24  H   UNL     1       7.429   3.689  18.718  0.00  0.00    +0.000 HD
ENDBRANCH  13  15
ENDBRANCH   1  13
TORSDOF 4
ENDMDL
MODEL 2
REMARK VINA RESULT:      -7.7      1.069      2.275
REMARK  Name = 
REMARK  5 active torsions:
REMARK  status: ('A' for Active; 'I' for Inactive)
REMARK    1  A    between atoms: C_1  and  S_2
REMARK    2  A    between atoms: S_2  and  C_5
REMARK    3  A    between atoms: C_8  and  N_9
REMARK    4  A    between atoms: N_9  and  N_10
REMARK    5  A    between atoms: N_10  and  C_11
REMARK                            x       y       z     vdW  Elec       q    Type
REMARK                         _______ _______ _______ _____ _____    ______ ____
ROOT
ATOM      1  N   UNL     1       5.186   5.451  15.577  0.00  0.00    +0.000 N 
ATOM      2  H   UNL     1       4.936   4.978  14.706  0.00  0.00    +0.000 HD
ENDROOT
BRANCH   1   6
ATOM      3  C   UNL     1       2.688   4.191  18.741  0.00  0.00    +0.000 A 
ATOM      4  C   UNL     1       3.403   3.246  18.009  0.00  0.00    +0.000 A 
ATOM      5  C   UNL     1       4.250   3.672  16.983  0.00  0.00    +0.000 A 
ATOM      6  C   UNL     1       4.362   5.029  16.650  0.00  0.00    +0.000 A 
ATOM      7  C   UNL     1       3.673   5.968  17.433  0.00  0.00    +0.000 A 
ATOM      8  C   UNL     1       2.818   5.554  18.465  0.00  0.00    +0.000 A 
BRANCH   3  10
ATOM      9  C   UNL     1       2.591   2.763  21.135  0.00  0.00    +0.000 C 
ATOM     10  S   UNL     1       1.554   3.644  19.998  0.00  0.00    +0.000 S 
ATOM     11  O   UNL     1       0.651   2.690  19.382  0.00  0.00    +0.000 OA
ATOM     12  O   UNL     1       1.045   4.824  20.668  0.00  0.00    +0.000 OA
ENDBRANCH   3  10
ENDBRANCH   1   6
BRANCH   1  13
ATOM     13  N   UNL     1       6.544   5.599  15.749  0.00  0.00    +0.000 N 
ATOM     14  H   UNL     1       7.153   5.094  15.102  0.00  0.00    +0.000 HD
BRANCH  13  15
ATOM     15  C   UNL     1       7.187   6.065  16.880  0.00  0.00    +0.000 A 
ATOM     16  C   UNL     1       7.474   5.279  17.928  0.00  0.00    +0.000 A 
ATOM     17  C   UNL     1       8.117   5.855  19.129  0.00  0.00    +0.000 A 
ATOM     18  O   UNL     1       8.384   5.156  20.096  0.00  0.00    +0.000 OA
ATOM     19  N   UNL     1       8.371   7.194  19.077  0.00  0.00    +0.000 N 
ATOM     20  C   UNL     1       8.089   7.997  18.016  0.00  0.00    +0.000 A 
ATOM     21  O   UNL     1       8.331   9.201  18.035  0.00  0.00    +0.000 OA
ATOM     22  N   UNL     1       7.525   7.384  16.944  0.00  0.00    +0.000 N 
ATOM     23  H   UNL     1       8.784   7.627  19.894  0.00  0.00    +0.000 HD
ATOM     24  H   UNL     1       7.269   7.963  16.155  0.00  0.00    +0.000 HD
ENDBRANCH  13  15
ENDBRANCH   1  13
TORSDOF 4
ENDMDL
MODEL 3
REMARK VINA RESULT:      -7.7      0.720      1.829
REMARK  Name = 
REMARK  5 active torsions:
REMARK  status: ('A' for Active; 'I' for Inactive)
REMARK    1  A    between atoms: C_1  and  S_2
REMARK    2  A    between atoms: S_2  and  C_5
REMARK    3  A    between atoms: C_8  and  N_9
REMARK    4  A    between atoms: N_9  and  N_10
REMARK    5  A    between atoms: N_10  and  C_11
REMARK                            x       y       z     vdW  Elec       q    Type
REMARK                         _______ _______ _______ _____ _____    ______ ____
ROOT
ATOM      1  N   UNL     1       5.409   3.889  15.775  0.00  0.00    +0.000 N 
ATOM      2  H   UNL     1       5.333   3.000  15.276  0.00  0.00    +0.000 HD
ENDROOT
BRANCH   1   6
ATOM      3  C   UNL     1       2.675   4.122  18.987  0.00  0.00    +0.000 A 
ATOM      4  C   UNL     1       3.014   5.276  18.283  0.00  0.00    +0.000 A 
ATOM      5  C   UNL     1       3.895   5.187  17.203  0.00  0.00    +0.000 A 
ATOM      6  C   UNL     1       4.478   3.965  16.841  0.00  0.00    +0.000 A 
ATOM      7  C   UNL     1       4.084   2.807  17.529  0.00  0.00    +0.000 A 
ATOM      8  C   UNL     1       3.202   2.882  18.616  0.00  0.00    +0.000 A 
BRANCH   3  10
ATOM      9  C   UNL     1       2.377   3.178  21.594  0.00  0.00    +0.000 C 
ATOM     10  S   UNL     1       1.611   4.248  20.406  0.00  0.00    +0.000 S 
ATOM     11  O   UNL     1       0.331   3.671  20.041  0.00  0.00    +0.000 OA
ATOM     12  O   UNL     1       1.700   5.609  20.897  0.00  0.00    +0.000 OA
ENDBRANCH   3  10
ENDBRANCH   1   6
BRANCH   1  13
ATOM     13  N   UNL     1       6.708   4.314  15.944  0.00  0.00    +0.000 N 
ATOM     14  H   UNL     1       7.435   3.792  15.452  0.00  0.00    +0.000 HD
BRANCH  13  15
ATOM     15  C   UNL     1       7.184   5.133  16.950  0.00  0.00    +0.000 A 
ATOM     16  C   UNL     1       7.433   4.691  18.191  0.00  0.00    +0.000 A 
ATOM     17  C   UNL     1       7.892   5.633  19.233  0.00  0.00    +0.000 A 
ATOM     18  O   UNL     1       8.121   5.249  20.371  0.00  0.00    +0.000 OA
ATOM     19  N   UNL     1       8.024   6.931  18.838  0.00  0.00    +0.000 N 
ATOM     20  C   UNL     1       7.780   7.388  17.580  0.00  0.00    +0.000 A 
ATOM     21  O   UNL     1       7.905   8.575  17.287  0.00  0.00    +0.000 OA
ATOM     22  N   UNL     1       7.389   6.453  16.677  0.00  0.00    +0.000 N 
ATOM     23  H   UNL     1       8.308   7.610  19.534  0.00  0.00    +0.000 HD
ATOM     24  H   UNL     1       7.163   6.770  15.743  0.00  0.00    +0.000 HD
ENDBRANCH  13  15
ENDBRANCH   1  13
TORSDOF 4
ENDMDL
MODEL 4
REMARK VINA RESULT:      -7.6      1.502      2.393
REMARK  Name = 
REMARK  5 active torsions:
REMARK  status: ('A' for Active; 'I' for Inactive)
REMARK    1  A    between atoms: C_1  and  S_2
REMARK    2  A    between atoms: S_2  and  C_5
REMARK    3  A    between atoms: C_8  and  N_9
REMARK    4  A    between atoms: N_9  and  N_10
REMARK    5  A    between atoms: N_10  and  C_11
REMARK                            x       y       z     vdW  Elec       q    Type
REMARK                         _______ _______ _______ _____ _____    ______ ____
ROOT
ATOM      1  N   UNL     1       5.185   5.773  15.588  0.00  0.00    +0.000 N 
ATOM      2  H   UNL     1       4.912   5.484  14.646  0.00  0.00    +0.000 HD
ENDROOT
BRANCH   1   6
ATOM      3  C   UNL     1       3.000   3.730  18.570  0.00  0.00    +0.000 A 
ATOM      4  C   UNL     1       2.968   5.122  18.522  0.00  0.00    +0.000 A 
ATOM      5  C   UNL     1       3.669   5.790  17.515  0.00  0.00    +0.000 A 
ATOM      6  C   UNL     1       4.437   5.087  16.577  0.00  0.00    +0.000 A 
ATOM      7  C   UNL     1       4.416   3.684  16.612  0.00  0.00    +0.000 A 
ATOM      8  C   UNL     1       3.718   3.002  17.618  0.00  0.00    +0.000 A 
BRANCH   3  10
ATOM      9  C   UNL     1       0.962   4.062  20.444  0.00  0.00    +0.000 C 
ATOM     10  S   UNL     1       2.168   2.884  19.895  0.00  0.00    +0.000 S 
ATOM     11  O   UNL     1       3.132   2.696  20.962  0.00  0.00    +0.000 OA
ATOM     12  O   UNL     1       1.469   1.754  19.317  0.00  0.00    +0.000 OA
ENDBRANCH   3  10
ENDBRANCH   1   6
BRANCH   1  13
ATOM     13  N   UNL     1       6.543   5.954  15.732  0.00  0.00    +0.000 N 
ATOM     14  H   UNL     1       7.146   5.540  15.019  0.00  0.00    +0.000 HD
BRANCH  13  15
ATOM     15  C   UNL     1       7.208   6.328  16.884  0.00  0.00    +0.000 A 
ATOM     16  C   UNL     1       7.445   5.480  17.895  0.00  0.00    +0.000 A 
ATOM     17  C   UNL     1       8.116   5.960  19.122  0.00  0.00    +0.000 A 
ATOM     18  O   UNL     1       8.338   5.203  20.055  0.00  0.00    +0.000 OA
ATOM     19  N   UNL     1       8.447   7.283  19.133  0.00  0.00    +0.000 N 
ATOM     20  C   UNL     1       8.217   8.150  18.110  0.00  0.00    +0.000 A 
ATOM     21  O   UNL     1       8.528   9.336  18.185  0.00  0.00    +0.000 OA
ATOM     22  N   UNL     1       7.622   7.622  17.010  0.00  0.00    +0.000 N 
ATOM     23  H   UNL     1       8.882   7.653  19.969  0.00  0.00    +0.000 HD
ATOM     24  H   UNL     1       7.402   8.250  16.248  0.00  0.00    +0.000 HD
ENDBRANCH  13  15
ENDBRANCH   1  13
TORSDOF 4
ENDMDL
MODEL 5
REMARK VINA RESULT:      -7.5      0.435      1.160
REMARK  Name = 
REMARK  5 active torsions:
REMARK  status: ('A' for Active; 'I' for Inactive)
REMARK    1  A    between atoms: C_1  and  S_2
REMARK    2  A    between atoms: S_2  and  C_5
REMARK    3  A    between atoms: C_8  and  N_9
REMARK    4  A    between atoms: N_9  and  N_10
REMARK    5  A    between atoms: N_10  and  C_11
REMARK                            x       y       z     vdW  Elec       q    Type
REMARK                         _______ _______ _______ _____ _____    ______ ____
ROOT
ATOM      1  N   UNL     1       5.311   4.332  15.811  0.00  0.00    +0.000 N 
ATOM      2  H   UNL     1       5.176   3.607  15.103  0.00  0.00    +0.000 HD
ENDROOT
BRANCH   1   6
ATOM      3  C   UNL     1       2.557   3.871  18.980  0.00  0.00    +0.000 A 
ATOM      4  C   UNL     1       3.297   2.774  18.544  0.00  0.00    +0.000 A 
ATOM      5  C   UNL     1       4.227   2.940  17.515  0.00  0.00    +0.000 A 
ATOM      6  C   UNL     1       4.400   4.181  16.886  0.00  0.00    +0.000 A 
ATOM      7  C   UNL     1       3.682   5.284  17.374  0.00  0.00    +0.000 A 
ATOM      8  C   UNL     1       2.744   5.131  18.405  0.00  0.00    +0.000 A 
BRANCH   3  10
ATOM      9  C   UNL     1       2.207   2.840  21.548  0.00  0.00    +0.000 C 
ATOM     10  S   UNL     1       1.321   3.643  20.239  0.00  0.00    +0.000 S 
ATOM     11  O   UNL     1       0.341   2.709  19.720  0.00  0.00    +0.000 OA
ATOM     12  O   UNL     1       0.923   4.959  20.700  0.00  0.00    +0.000 OA
ENDBRANCH   3  10
ENDBRANCH   1   6
BRANCH   1  13
ATOM     13  N   UNL     1       6.634   4.629  16.046  0.00  0.00    +0.000 N 
ATOM     14  H   UNL     1       7.331   3.991  15.656  0.00  0.00    +0.000 HD
BRANCH  13  15
ATOM     15  C   UNL     1       7.130   5.478  17.017  0.00  0.00    +0.000 A 
ATOM     16  C   UNL     1       7.248   6.801  16.835  0.00  0.00    +0.000 A 
ATOM     17  C   UNL     1       7.836   7.644  17.897  0.00  0.00    +0.000 A 
ATOM     18  O   UNL     1       7.955   8.852  17.749  0.00  0.00    +0.000 OA
ATOM     19  N   UNL     1       8.236   6.983  19.021  0.00  0.00    +0.000 N 
ATOM     20  C   UNL     1       8.113   5.642  19.218  0.00  0.00    +0.000 A 
ATOM     21  O   UNL     1       8.505   5.102  20.250  0.00  0.00    +0.000 OA
ATOM     22  N   UNL     1       7.539   4.946  18.205  0.00  0.00    +0.000 N 
ATOM     23  H   UNL     1       8.670   7.525  19.758  0.00  0.00    +0.000 HD
ATOM     24  H   UNL     1       7.470   3.941  18.306  0.00  0.00    +0.000 HD
ENDBRANCH  13  15
ENDBRANCH   1  13
TORSDOF 4
ENDMDL
MODEL 6
REMARK VINA RESULT:      -7.4      1.117      2.047
REMARK  Name = 
REMARK  5 active torsions:
REMARK  status: ('A' for Active; 'I' for Inactive)
REMARK    1  A    between atoms: C_1  and  S_2
REMARK    2  A    between atoms: S_2  and  C_5
REMARK    3  A    between atoms: C_8  and  N_9
REMARK    4  A    between atoms: N_9  and  N_10
REMARK    5  A    between atoms: N_10  and  C_11
REMARK                            x       y       z     vdW  Elec       q    Type
REMARK                         _______ _______ _______ _____ _____    ______ ____
ROOT
ATOM      1  N   UNL     1       5.276   5.168  15.803  0.00  0.00    +0.000 N 
ATOM      2  H   UNL     1       5.805   4.368  15.449  0.00  0.00    +0.000 HD
ENDROOT
BRANCH   1   6
ATOM      3  C   UNL     1       2.535   4.002  18.797  0.00  0.00    +0.000 A 
ATOM      4  C   UNL     1       2.600   5.337  18.404  0.00  0.00    +0.000 A 
ATOM      5  C   UNL     1       3.488   5.710  17.392  0.00  0.00    +0.000 A 
ATOM      6  C   UNL     1       4.343   4.774  16.794  0.00  0.00    +0.000 A 
ATOM      7  C   UNL     1       4.225   3.427  17.169  0.00  0.00    +0.000 A 
ATOM      8  C   UNL     1       3.339   3.038  18.184  0.00  0.00    +0.000 A 
BRANCH   3  10
ATOM      9  C   UNL     1       2.535   2.694  21.261  0.00  0.00    +0.000 C 
ATOM     10  S   UNL     1       1.457   3.540  20.135  0.00  0.00    +0.000 S 
ATOM     11  O   UNL     1       0.506   2.577  19.614  0.00  0.00    +0.000 OA
ATOM     12  O   UNL     1       1.005   4.762  20.770  0.00  0.00    +0.000 OA
ENDBRANCH   3  10
ENDBRANCH   1   6
BRANCH   1  13
ATOM     13  N   UNL     1       6.040   6.302  15.967  0.00  0.00    +0.000 N 
ATOM     14  H   UNL     1       6.202   6.877  15.138  0.00  0.00    +0.000 HD
BRANCH  13  15
ATOM     15  C   UNL     1       6.890   6.579  17.020  0.00  0.00    +0.000 A 
ATOM     16  C   UNL     1       7.191   5.680  17.968  0.00  0.00    +0.000 A 
ATOM     17  C   UNL     1       8.066   6.061  19.097  0.00  0.00    +0.000 A 
ATOM     18  O   UNL     1       8.349   5.257  19.973  0.00  0.00    +0.000 OA
ATOM     19  N   UNL     1       8.512   7.350  19.089  0.00  0.00    +0.000 N 
ATOM     20  C   UNL     1       8.218   8.267  18.127  0.00  0.00    +0.000 A 
ATOM     21  O   UNL     1       8.640   9.419  18.183  0.00  0.00    +0.000 OA
ATOM     22  N   UNL     1       7.430   7.828  17.113  0.00  0.00    +0.000 N 
ATOM     23  H   UNL     1       9.090   7.654  19.862  0.00  0.00    +0.000 HD
ATOM     24  H   UNL     1       7.163   8.498  16.404  0.00  0.00    +0.000 HD
ENDBRANCH  13  15
ENDBRANCH   1  13
TORSDOF 4
ENDMDL
MODEL 7
REMARK VINA RESULT:      -7.4      3.665      6.556
REMARK  Name = 
REMARK  5 active torsions:
REMARK  status: ('A' for Active; 'I' for Inactive)
REMARK    1  A    between atoms: C_1  and  S_2
REMARK    2  A    between atoms: S_2  and  C_5
REMARK    3  A    between atoms: C_8  and  N_9
REMARK    4  A    between atoms: N_9  and  N_10
REMARK    5  A    between atoms: N_10  and  C_11
REMARK                            x       y       z     vdW  Elec       q    Type
REMARK                         _______ _______ _______ _____ _____    ______ ____
ROOT
ATOM      1  N   UNL     1       2.900   6.990  19.888  0.00  0.00    +0.000 N 
ATOM      2  H   UNL     1       3.349   7.548  20.617  0.00  0.00    +0.000 HD
ENDROOT
BRANCH   1   6
ATOM      3  C   UNL     1       5.775   5.386  17.243  0.00  0.00    +0.000 A 
ATOM      4  C   UNL     1       5.817   5.050  18.595  0.00  0.00    +0.000 A 
ATOM      5  C   UNL     1       4.845   5.560  19.458  0.00  0.00    +0.000 A 
ATOM      6  C   UNL     1       3.854   6.437  18.998  0.00  0.00    +0.000 A 
ATOM      7  C   UNL     1       3.799   6.722  17.625  0.00  0.00    +0.000 A 
ATOM      8  C   UNL     1       4.769   6.218  16.747  0.00  0.00    +0.000 A 
BRANCH   3  10
ATOM      9  C   UNL     1       6.228   3.579  15.167  0.00  0.00    +0.000 C 
ATOM     10  S   UNL     1       7.055   4.794  16.158  0.00  0.00    +0.000 S 
ATOM     11  O   UNL     1       8.038   4.113  16.979  0.00  0.00    +0.000 OA
ATOM     12  O   UNL     1       7.440   5.896  15.299  0.00  0.00    +0.000 OA
ENDBRANCH   3  10
ENDBRANCH   1   6
BRANCH   1  13
ATOM     13  N   UNL     1       1.845   6.234  20.348  0.00  0.00    +0.000 N 
ATOM     14  H   UNL     1       1.209   6.678  21.013  0.00  0.00    +0.000 HD
BRANCH  13  15
ATOM     15  C   UNL     1       1.729   4.858  20.291  0.00  0.00    +0.000 A 
ATOM     16  C   UNL     1       1.056   4.225  19.319  0.00  0.00    +0.000 A 
ATOM     17  C   UNL     1       0.927   2.753  19.347  0.00  0.00    +0.000 A 
ATOM     18  O   UNL     1       0.314   2.158  18.472  0.00  0.00    +0.000 OA
ATOM     19  N   UNL     1       1.518   2.130  20.406  0.00  0.00    +0.000 N 
ATOM     20  C   UNL     1       2.209   2.762  21.393  0.00  0.00    +0.000 A 
ATOM     21  O   UNL     1       2.709   2.145  22.330  0.00  0.00    +0.000 OA
ATOM     22  N   UNL     1       2.303   4.111  21.277  0.00  0.00    +0.000 N 
ATOM     23  H   UNL     1       1.424   1.123  20.474  0.00  0.00    +0.000 HD
ATOM     24  H   UNL     1       2.777   4.614  22.016  0.00  0.00    +0.000 HD
ENDBRANCH  13  15
ENDBRANCH   1  13
TORSDOF 4
ENDMDL
MODEL 8
REMARK VINA RESULT:      -7.4      0.961      1.135
REMARK  Name = 
REMARK  5 active torsions:
REMARK  status: ('A' for Active; 'I' for Inactive)
REMARK    1  A    between atoms: C_1  and  S_2
REMARK    2  A    between atoms: S_2  and  C_5
REMARK    3  A    between atoms: C_8  and  N_9
REMARK    4  A    between atoms: N_9  and  N_10
REMARK    5  A    between atoms: N_10  and  C_11
REMARK                            x       y       z     vdW  Elec       q    Type
REMARK                         _______ _______ _______ _____ _____    ______ ____
ROOT
ATOM      1  N   UNL     1       5.612   3.249  16.310  0.00  0.00    +0.000 N 
ATOM      2  H   UNL     1       5.719   2.253  16.104  0.00  0.00    +0.000 HD
ENDROOT
BRANCH   1   6
ATOM      3  C   UNL     1       2.793   3.935  19.379  0.00  0.00    +0.000 A 
ATOM      4  C   UNL     1       2.742   4.695  18.212  0.00  0.00    +0.000 A 
ATOM      5  C   UNL     1       3.659   4.442  17.189  0.00  0.00    +0.000 A 
ATOM      6  C   UNL     1       4.655   3.467  17.332  0.00  0.00    +0.000 A 
ATOM      7  C   UNL     1       4.657   2.678  18.493  0.00  0.00    +0.000 A 
ATOM      8  C   UNL     1       3.743   2.922  19.528  0.00  0.00    +0.000 A 
BRANCH   3  10
ATOM      9  C   UNL     1       1.708   6.076  20.800  0.00  0.00    +0.000 C 
ATOM     10  S   UNL     1       1.672   4.305  20.710  0.00  0.00    +0.000 S 
ATOM     11  O   UNL     1       2.258   3.781  21.929  0.00  0.00    +0.000 OA
ATOM     12  O   UNL     1       0.347   3.899  20.288  0.00  0.00    +0.000 OA
ENDBRANCH   3  10
ENDBRANCH   1   6
BRANCH   1  13
ATOM     13  N   UNL     1       6.803   3.940  16.303  0.00  0.00    +0.000 N 
ATOM     14  H   UNL     1       7.588   3.510  15.809  0.00  0.00    +0.000 HD
BRANCH  13  15
ATOM     15  C   UNL     1       7.168   4.964  17.155  0.00  0.00    +0.000 A 
ATOM     16  C   UNL     1       7.219   6.248  16.770  0.00  0.00    +0.000 A 
ATOM     17  C   UNL     1       7.669   7.288  17.719  0.00  0.00    +0.000 A 
ATOM     18  O   UNL     1       7.725   8.463  17.385  0.00  0.00    +0.000 OA
ATOM     19  N   UNL     1       8.019   6.842  18.960  0.00  0.00    +0.000 N 
ATOM     20  C   UNL     1       7.964   5.544  19.362  0.00  0.00    +0.000 A 
ATOM     21  O   UNL     1       8.306   5.202  20.492  0.00  0.00    +0.000 OA
ATOM     22  N   UNL     1       7.514   4.657  18.438  0.00  0.00    +0.000 N 
ATOM     23  H   UNL     1       8.360   7.523  19.627  0.00  0.00    +0.000 HD
ATOM     24  H   UNL     1       7.499   3.678  18.696  0.00  0.00    +0.000 HD
ENDBRANCH  13  15
ENDBRANCH   1  13
TORSDOF 4
ENDMDL
MODEL 9
REMARK VINA RESULT:      -7.3      2.999      4.034
REMARK  Name = 
REMARK  5 active torsions:
REMARK  status: ('A' for Active; 'I' for Inactive)
REMARK    1  A    between atoms: C_1  and  S_2
REMARK    2  A    between atoms: S_2  and  C_5
REMARK    3  A    between atoms: C_8  and  N_9
REMARK    4  A    between atoms: N_9  and  N_10
REMARK    5  A    between atoms: N_10  and  C_11
REMARK                            x       y       z     vdW  Elec       q    Type
REMARK                         _______ _______ _______ _____ _____    ______ ____
ROOT
ATOM      1  N   UNL     1       6.300   4.060  17.313  0.00  0.00    +0.000 N 
ATOM      2  H   UNL     1       7.089   3.969  17.957  0.00  0.00    +0.000 HD
ENDROOT
BRANCH   1   6
ATOM      3  C   UNL     1       2.596   3.683  19.307  0.00  0.00    +0.000 A 
ATOM      4  C   UNL     1       3.732   3.078  19.841  0.00  0.00    +0.000 A 
ATOM      5  C   UNL     1       4.959   3.232  19.193  0.00  0.00    +0.000 A 
ATOM      6  C   UNL     1       5.062   3.948  17.993  0.00  0.00    +0.000 A 
ATOM      7  C   UNL     1       3.916   4.592  17.499  0.00  0.00    +0.000 A 
ATOM      8  C   UNL     1       2.678   4.445  18.140  0.00  0.00    +0.000 A 
BRANCH   3  10
ATOM      9  C   UNL     1       1.443   2.594  21.601  0.00  0.00    +0.000 C 
ATOM     10  S   UNL     1       1.021   3.426  20.094  0.00  0.00    +0.000 S 
ATOM     11  O   UNL     1       0.269   2.504  19.266  0.00  0.00    +0.000 OA
ATOM     12  O   UNL     1       0.485   4.731  20.429  0.00  0.00    +0.000 OA
ENDBRANCH   3  10
ENDBRANCH   1   6
BRANCH   1  13
ATOM     13  N   UNL     1       6.489   5.024  16.348  0.00  0.00    +0.000 N 
ATOM     14  H   UNL     1       6.219   5.980  16.587  0.00  0.00    +0.000 HD
BRANCH  13  15
ATOM     15  C   UNL     1       6.676   4.812  14.996  0.00  0.00    +0.000 A 
ATOM     16  C   UNL     1       5.995   3.889  14.303  0.00  0.00    +0.000 A 
ATOM     17  C   UNL     1       6.282   3.679  12.868  0.00  0.00    +0.000 A 
ATOM     18  O   UNL     1       5.674   2.839  12.221  0.00  0.00    +0.000 OA
ATOM     19  N   UNL     1       7.263   4.468  12.342  0.00  0.00    +0.000 N 
ATOM     20  C   UNL     1       7.954   5.412  13.035  0.00  0.00    +0.000 A 
ATOM     21  O   UNL     1       8.837   6.084  12.507  0.00  0.00    +0.000 OA
ATOM     22  N   UNL     1       7.610   5.559  14.339  0.00  0.00    +0.000 N 
ATOM     23  H   UNL     1       7.506   4.331  11.369  0.00  0.00    +0.000 HD
ATOM     24  H   UNL     1       8.134   6.227  14.890  0.00  0.00    +0.000 HD
ENDBRANCH  13  15
ENDBRANCH   1  13
TORSDOF 4
ENDMDL
