MODEL 1
REMARK VINA RESULT:      -8.9      0.000      0.000
REMARK  Name = 
REMARK  8 active torsions:
REMARK  status: ('A' for Active; 'I' for Inactive)
REMARK    1  A    between atoms: C_1  and  C_2
REMARK    2  A    between atoms: C_3  and  C_4
REMARK    3  A    between atoms: C_4  and  C_5
REMARK    4  A    between atoms: C_5  and  O_7
REMARK    5  A    between atoms: C_9  and  C_10
REMARK    6  A    between atoms: C_13  and  S_14
REMARK    7  A    between atoms: S_14  and  N_15
REMARK    8  A    between atoms: N_20  and  C_21
REMARK                            x       y       z     vdW  Elec       q    Type
REMARK                         _______ _______ _______ _____ _____    ______ ____
ROOT
ATOM      1  C   UNL     1       4.553   3.507  17.560  0.00  0.00    +0.000 C 
ATOM      2  C   UNL     1       4.142   4.948  17.611  0.00  0.00    +0.000 A 
ATOM      3  C   UNL     1       4.567   5.964  16.767  0.00  0.00    +0.000 A 
ATOM      4  C   UNL     1       3.863   7.129  17.140  0.00  0.00    +0.000 A 
ATOM      5  C   UNL     1       3.020   6.836  18.201  0.00  0.00    +0.000 A 
ATOM      6  N   UNL     1       3.170   5.462  18.482  0.00  0.00    +0.000 N 
ENDROOT
BRANCH   6   7
ATOM      7  C   UNL     1       2.458   4.713  19.481  0.00  0.00    +0.000 A 
ATOM      8  C   UNL     1       2.969   4.597  20.784  0.00  0.00    +0.000 A 
ATOM      9  C   UNL     1       2.397   3.697  21.689  0.00  0.00    +0.000 A 
ATOM     10  C   UNL     1       1.274   2.969  21.316  0.00  0.00    +0.000 A 
ATOM     11  F   UNL     1       0.745   2.086  22.171  0.00  0.00    +0.000 F 
ATOM     12  C   UNL     1       0.710   3.127  20.058  0.00  0.00    +0.000 A 
ATOM     13  C   UNL     1       1.309   3.987  19.133  0.00  0.00    +0.000 A 
ENDBRANCH   6   7
BRANCH   5  14
ATOM     14  C   UNL     1       2.185   7.815  18.932  0.00  0.00    +0.000 A 
ATOM     15  C   UNL     1       1.898   7.619  20.294  0.00  0.00    +0.000 A 
ATOM     16  C   UNL     1       1.196   8.580  21.028  0.00  0.00    +0.000 A 
ATOM     17  C   UNL     1       0.812   9.767  20.404  0.00  0.00    +0.000 A 
ATOM     18  C   UNL     1       1.024   9.955  19.041  0.00  0.00    +0.000 A 
ATOM     19  C   UNL     1       1.663   8.958  18.305  0.00  0.00    +0.000 A 
BRANCH  17  20
ATOM     20  S   UNL     1       0.082  11.064  21.351  0.00  0.00    +0.000 S 
ATOM     21  O   UNL     1      -1.115  11.532  20.694  0.00  0.00    +0.000 OA
ATOM     22  O   UNL     1       0.115  10.713  22.755  0.00  0.00    +0.000 OA
BRANCH  20  23
ATOM     23  N   UNL     1       1.226  12.277  21.145  0.00  0.00    +0.000 NA
ATOM     24  H   UNL     1       0.767  13.185  21.082  0.00  0.00    +0.000 HD
ATOM     25  H   UNL     1       1.940  12.212  21.868  0.00  0.00    +0.000 HD
ENDBRANCH  20  23
ENDBRANCH  17  20
ENDBRANCH   5  14
BRANCH   3  26
ATOM     26  C   UNL     1       5.560   5.875  15.643  0.00  0.00    +0.000 C 
BRANCH  26  27
ATOM     27  C   UNL     1       7.008   5.701  16.066  0.00  0.00    +0.000 C 
ATOM     28  O   UNL     1       7.610   4.644  15.908  0.00  0.00    +0.000 OA
BRANCH  27  29
ATOM     29  O   UNL     1       7.616   6.765  16.636  0.00  0.00    +0.000 OA
ATOM     30  H   UNL     1       8.541   6.905  16.355  0.00  0.00    +0.000 HD
ENDBRANCH  27  29
ENDBRANCH  26  27
ENDBRANCH   3  26
TORSDOF 7
ENDMDL
MODEL 2
REMARK VINA RESULT:      -8.8      0.909      1.618
REMARK  Name = 
REMARK  8 active torsions:
REMARK  status: ('A' for Active; 'I' for Inactive)
REMARK    1  A    between atoms: C_1  and  C_2
REMARK    2  A    between atoms: C_3  and  C_4
REMARK    3  A    between atoms: C_4  and  C_5
REMARK    4  A    between atoms: C_5  and  O_7
REMARK    5  A    between atoms: C_9  and  C_10
REMARK    6  A    between atoms: C_13  and  S_14
REMARK    7  A    between atoms: S_14  and  N_15
REMARK    8  A    between atoms: N_20  and  C_21
REMARK                            x       y       z     vdW  Elec       q    Type
REMARK                         _______ _______ _______ _____ _____    ______ ____
ROOT
ATOM      1  C   UNL     1       4.653   2.852  16.934  0.00  0.00    +0.000 C 
ATOM      2  C   UNL     1       4.335   4.310  17.070  0.00  0.00    +0.000 A 
ATOM      3  C   UNL     1       4.765   5.336  16.240  0.00  0.00    +0.000 A 
ATOM      4  C   UNL     1       4.158   6.523  16.707  0.00  0.00    +0.000 A 
ATOM      5  C   UNL     1       3.370   6.233  17.810  0.00  0.00    +0.000 A 
ATOM      6  N   UNL     1       3.454   4.841  18.025  0.00  0.00    +0.000 N 
ENDROOT
BRANCH   6   7
ATOM      7  C   UNL     1       2.766   4.092  19.039  0.00  0.00    +0.000 A 
ATOM      8  C   UNL     1       1.384   3.860  18.940  0.00  0.00    +0.000 A 
ATOM      9  C   UNL     1       0.678   3.325  20.022  0.00  0.00    +0.000 A 
ATOM     10  C   UNL     1       1.363   2.955  21.172  0.00  0.00    +0.000 A 
ATOM     11  F   UNL     1       0.684   2.471  22.220  0.00  0.00    +0.000 F 
ATOM     12  C   UNL     1       2.740   3.106  21.260  0.00  0.00    +0.000 A 
ATOM     13  C   UNL     1       3.442   3.688  20.200  0.00  0.00    +0.000 A 
ENDBRANCH   6   7
BRANCH   5  14
ATOM     14  C   UNL     1       2.646   7.226  18.634  0.00  0.00    +0.000 A 
ATOM     15  C   UNL     1       2.180   8.418  18.052  0.00  0.00    +0.000 A 
ATOM     16  C   UNL     1       1.409   9.324  18.788  0.00  0.00    +0.000 A 
ATOM     17  C   UNL     1       1.066   9.015  20.104  0.00  0.00    +0.000 A 
ATOM     18  C   UNL     1       1.572   7.876  20.723  0.00  0.00    +0.000 A 
ATOM     19  C   UNL     1       2.398   7.016  20.000  0.00  0.00    +0.000 A 
BRANCH  17  20
ATOM     20  S   UNL     1      -0.048  10.057  20.991  0.00  0.00    +0.000 S 
ATOM     21  O   UNL     1      -0.951  10.701  20.068  0.00  0.00    +0.000 OA
ATOM     22  O   UNL     1      -0.507   9.370  22.181  0.00  0.00    +0.000 OA
BRANCH  20  23
ATOM     23  N   UNL     1       1.005  11.255  21.519  0.00  0.00    +0.000 NA
ATOM     24  H   UNL     1       1.705  10.855  22.143  0.00  0.00    +0.000 HD
ATOM     25  H   UNL     1       1.386  11.762  20.722  0.00  0.00    +0.000 HD
ENDBRANCH  20  23
ENDBRANCH  17  20
ENDBRANCH   5  14
BRANCH   3  26
ATOM     26  C   UNL     1       5.675   5.239  15.049  0.00  0.00    +0.000 C 
BRANCH  26  27
ATOM     27  C   UNL     1       7.157   5.156  15.367  0.00  0.00    +0.000 C 
ATOM     28  O   UNL     1       7.569   4.755  16.450  0.00  0.00    +0.000 OA
BRANCH  27  29
ATOM     29  O   UNL     1       8.017   5.550  14.403  0.00  0.00    +0.000 OA
ATOM     30  H   UNL     1       8.694   6.190  14.696  0.00  0.00    +0.000 HD
ENDBRANCH  27  29
ENDBRANCH  26  27
ENDBRANCH   3  26
TORSDOF 7
ENDMDL
MODEL 3
REMARK VINA RESULT:      -8.7      1.154      1.644
REMARK  Name = 
REMARK  8 active torsions:
REMARK  status: ('A' for Active; 'I' for Inactive)
REMARK    1  A    between atoms: C_1  and  C_2
REMARK    2  A    between atoms: C_3  and  C_4
REMARK    3  A    between atoms: C_4  and  C_5
REMARK    4  A    between atoms: C_5  and  O_7
REMARK    5  A    between atoms: C_9  and  C_10
REMARK    6  A    between atoms: C_13  and  S_14
REMARK    7  A    between atoms: S_14  and  N_15
REMARK    8  A    between atoms: N_20  and  C_21
REMARK                            x       y       z     vdW  Elec       q    Type
REMARK                         _______ _______ _______ _____ _____    ______ ____
ROOT
ATOM      1  C   UNL     1       4.483   2.552  17.617  0.00  0.00    +0.000 C 
ATOM      2  C   UNL     1       4.258   4.028  17.483  0.00  0.00    +0.000 A 
ATOM      3  C   UNL     1       4.782   4.864  16.508  0.00  0.00    +0.000 A 
ATOM      4  C   UNL     1       4.240   6.149  16.734  0.00  0.00    +0.000 A 
ATOM      5  C   UNL     1       3.399   6.104  17.835  0.00  0.00    +0.000 A 
ATOM      6  N   UNL     1       3.384   4.770  18.292  0.00  0.00    +0.000 N 
ENDROOT
BRANCH   6   7
ATOM      7  C   UNL     1       2.614   4.253  19.390  0.00  0.00    +0.000 A 
ATOM      8  C   UNL     1       3.182   4.141  20.669  0.00  0.00    +0.000 A 
ATOM      9  C   UNL     1       2.514   3.442  21.680  0.00  0.00    +0.000 A 
ATOM     10  C   UNL     1       1.251   2.919  21.433  0.00  0.00    +0.000 A 
ATOM     11  F   UNL     1       0.624   2.224  22.390  0.00  0.00    +0.000 F 
ATOM     12  C   UNL     1       0.641   3.086  20.197  0.00  0.00    +0.000 A 
ATOM     13  C   UNL     1       1.327   3.739  19.169  0.00  0.00    +0.000 A 
ENDBRANCH   6   7
BRANCH   5  14
ATOM     14  C   UNL     1       2.716   7.268  18.442  0.00  0.00    +0.000 A 
ATOM     15  C   UNL     1       2.416   8.397  17.658  0.00  0.00    +0.000 A 
ATOM     16  C   UNL     1       1.684   9.465  18.185  0.00  0.00    +0.000 A 
ATOM     17  C   UNL     1       1.212   9.387  19.496  0.00  0.00    +0.000 A 
ATOM     18  C   UNL     1       1.554   8.313  20.312  0.00  0.00    +0.000 A 
ATOM     19  C   UNL     1       2.344   7.287  19.796  0.00  0.00    +0.000 A 
BRANCH  17  20
ATOM     20  S   UNL     1       0.142  10.642  20.123  0.00  0.00    +0.000 S 
ATOM     21  O   UNL     1       0.910  11.822  20.439  0.00  0.00    +0.000 OA
ATOM     22  O   UNL     1      -1.066  10.687  19.326  0.00  0.00    +0.000 OA
BRANCH  20  23
ATOM     23  N   UNL     1      -0.294   9.966  21.597  0.00  0.00    +0.000 NA
ATOM     24  H   UNL     1      -0.811  10.644  22.155  0.00  0.00    +0.000 HD
ATOM     25  H   UNL     1      -0.778   9.082  21.448  0.00  0.00    +0.000 HD
ENDBRANCH  20  23
ENDBRANCH  17  20
ENDBRANCH   5  14
BRANCH   3  26
ATOM     26  C   UNL     1       5.722   4.505  15.393  0.00  0.00    +0.000 C 
BRANCH  26  27
ATOM     27  C   UNL     1       7.172   4.899  15.611  0.00  0.00    +0.000 C 
ATOM     28  O   UNL     1       7.777   5.619  14.824  0.00  0.00    +0.000 OA
BRANCH  27  29
ATOM     29  O   UNL     1       7.780   4.419  16.718  0.00  0.00    +0.000 OA
ATOM     30  H   UNL     1       7.238   4.451  17.529  0.00  0.00    +0.000 HD
ENDBRANCH  27  29
ENDBRANCH  26  27
ENDBRANCH   3  26
TORSDOF 7
ENDMDL
MODEL 4
REMARK VINA RESULT:      -8.7      0.461      1.028
REMARK  Name = 
REMARK  8 active torsions:
REMARK  status: ('A' for Active; 'I' for Inactive)
REMARK    1  A    between atoms: C_1  and  C_2
REMARK    2  A    between atoms: C_3  and  C_4
REMARK    3  A    between atoms: C_4  and  C_5
REMARK    4  A    between atoms: C_5  and  O_7
REMARK    5  A    between atoms: C_9  and  C_10
REMARK    6  A    between atoms: C_13  and  S_14
REMARK    7  A    between atoms: S_14  and  N_15
REMARK    8  A    between atoms: N_20  and  C_21
REMARK                            x       y       z     vdW  Elec       q    Type
REMARK                         _______ _______ _______ _____ _____    ______ ____
ROOT
ATOM      1  C   UNL     1       4.695   3.344  17.150  0.00  0.00    +0.000 C 
ATOM      2  C   UNL     1       4.251   4.765  17.320  0.00  0.00    +0.000 A 
ATOM      3  C   UNL     1       4.610   5.848  16.530  0.00  0.00    +0.000 A 
ATOM      4  C   UNL     1       3.895   6.965  17.016  0.00  0.00    +0.000 A 
ATOM      5  C   UNL     1       3.111   6.576  18.090  0.00  0.00    +0.000 A 
ATOM      6  N   UNL     1       3.308   5.191  18.268  0.00  0.00    +0.000 N 
ENDROOT
BRANCH   6   7
ATOM      7  C   UNL     1       2.664   4.355  19.244  0.00  0.00    +0.000 A 
ATOM      8  C   UNL     1       1.356   3.891  19.032  0.00  0.00    +0.000 A 
ATOM      9  C   UNL     1       0.653   3.265  20.066  0.00  0.00    +0.000 A 
ATOM     10  C   UNL     1       1.281   3.039  21.285  0.00  0.00    +0.000 A 
ATOM     11  F   UNL     1       0.599   2.468  22.285  0.00  0.00    +0.000 F 
ATOM     12  C   UNL     1       2.600   3.423  21.487  0.00  0.00    +0.000 A 
ATOM     13  C   UNL     1       3.289   4.095  20.473  0.00  0.00    +0.000 A 
ENDBRANCH   6   7
BRANCH   5  14
ATOM     14  C   UNL     1       2.288   7.479  18.925  0.00  0.00    +0.000 A 
ATOM     15  C   UNL     1       2.068   7.180  20.282  0.00  0.00    +0.000 A 
ATOM     16  C   UNL     1       1.378   8.068  21.112  0.00  0.00    +0.000 A 
ATOM     17  C   UNL     1       0.938   9.285  20.591  0.00  0.00    +0.000 A 
ATOM     18  C   UNL     1       1.083   9.574  19.238  0.00  0.00    +0.000 A 
ATOM     19  C   UNL     1       1.711   8.648  18.405  0.00  0.00    +0.000 A 
BRANCH  17  20
ATOM     20  S   UNL     1       0.222  10.493  21.660  0.00  0.00    +0.000 S 
ATOM     21  O   UNL     1      -1.050  10.919  21.128  0.00  0.00    +0.000 OA
ATOM     22  O   UNL     1       0.394  10.080  23.037  0.00  0.00    +0.000 OA
BRANCH  20  23
ATOM     23  N   UNL     1       1.276  11.778  21.422  0.00  0.00    +0.000 NA
ATOM     24  H   UNL     1       1.907  11.867  22.218  0.00  0.00    +0.000 HD
ATOM     25  H   UNL     1       1.741  11.688  20.520  0.00  0.00    +0.000 HD
ENDBRANCH  20  23
ENDBRANCH  17  20
ENDBRANCH   5  14
BRANCH   3  26
ATOM     26  C   UNL     1       5.550   5.864  15.359  0.00  0.00    +0.000 C 
BRANCH  26  27
ATOM     27  C   UNL     1       7.020   5.702  15.702  0.00  0.00    +0.000 C 
ATOM     28  O   UNL     1       7.721   4.846  15.172  0.00  0.00    +0.000 OA
BRANCH  27  29
ATOM     29  O   UNL     1       7.533   6.542  16.627  0.00  0.00    +0.000 OA
ATOM     30  H   UNL     1       7.483   6.217  17.546  0.00  0.00    +0.000 HD
ENDBRANCH  27  29
ENDBRANCH  26  27
ENDBRANCH   3  26
TORSDOF 7
ENDMDL
MODEL 5
REMARK VINA RESULT:      -8.6      0.993      1.413
REMARK  Name = 
REMARK  8 active torsions:
REMARK  status: ('A' for Active; 'I' for Inactive)
REMARK    1  A    between atoms: C_1  and  C_2
REMARK    2  A    between atoms: C_3  and  C_4
REMARK    3  A    between atoms: C_4  and  C_5
REMARK    4  A    between atoms: C_5  and  O_7
REMARK    5  A    between atoms: C_9  and  C_10
REMARK    6  A    between atoms: C_13  and  S_14
REMARK    7  A    between atoms: S_14  and  N_15
REMARK    8  A    between atoms: N_20  and  C_21
REMARK                            x       y       z     vdW  Elec       q    Type
REMARK                         _______ _______ _______ _____ _____    ______ ____
ROOT
ATOM      1  C   UNL     1       4.412   2.663  17.463  0.00  0.00    +0.000 C 
ATOM      2  C   UNL     1       4.203   4.144  17.368  0.00  0.00    +0.000 A 
ATOM      3  C   UNL     1       4.726   4.997  16.406  0.00  0.00    +0.000 A 
ATOM      4  C   UNL     1       4.203   6.282  16.669  0.00  0.00    +0.000 A 
ATOM      5  C   UNL     1       3.375   6.222  17.779  0.00  0.00    +0.000 A 
ATOM      6  N   UNL     1       3.349   4.878  18.205  0.00  0.00    +0.000 N 
ENDROOT
BRANCH   6   7
ATOM      7  C   UNL     1       2.586   4.344  19.300  0.00  0.00    +0.000 A 
ATOM      8  C   UNL     1       3.158   4.230  20.578  0.00  0.00    +0.000 A 
ATOM      9  C   UNL     1       2.499   3.516  21.584  0.00  0.00    +0.000 A 
ATOM     10  C   UNL     1       1.241   2.982  21.335  0.00  0.00    +0.000 A 
ATOM     11  F   UNL     1       0.623   2.273  22.288  0.00  0.00    +0.000 F 
ATOM     12  C   UNL     1       0.628   3.151  20.102  0.00  0.00    +0.000 A 
ATOM     13  C   UNL     1       1.305   3.819  19.077  0.00  0.00    +0.000 A 
ENDBRANCH   6   7
BRANCH   5  14
ATOM     14  C   UNL     1       2.715   7.380  18.422  0.00  0.00    +0.000 A 
ATOM     15  C   UNL     1       2.464   8.549  17.681  0.00  0.00    +0.000 A 
ATOM     16  C   UNL     1       1.754   9.616  18.239  0.00  0.00    +0.000 A 
ATOM     17  C   UNL     1       1.254   9.498  19.536  0.00  0.00    +0.000 A 
ATOM     18  C   UNL     1       1.548   8.381  20.313  0.00  0.00    +0.000 A 
ATOM     19  C   UNL     1       2.317   7.353  19.768  0.00  0.00    +0.000 A 
BRANCH  17  20
ATOM     20  S   UNL     1       0.209  10.757  20.195  0.00  0.00    +0.000 S 
ATOM     21  O   UNL     1      -1.171  10.342  20.101  0.00  0.00    +0.000 OA
ATOM     22  O   UNL     1       0.787  11.273  21.418  0.00  0.00    +0.000 OA
BRANCH  20  23
ATOM     23  N   UNL     1       0.409  11.959  19.039  0.00  0.00    +0.000 NA
ATOM     24  H   UNL     1       1.290  12.448  19.192  0.00  0.00    +0.000 HD
ATOM     25  H   UNL     1       0.296  11.569  18.105  0.00  0.00    +0.000 HD
ENDBRANCH  20  23
ENDBRANCH  17  20
ENDBRANCH   5  14
BRANCH   3  26
ATOM     26  C   UNL     1       5.647   4.652  15.270  0.00  0.00    +0.000 C 
BRANCH  26  27
ATOM     27  C   UNL     1       7.122   4.898  15.532  0.00  0.00    +0.000 C 
ATOM     28  O   UNL     1       7.652   4.604  16.598  0.00  0.00    +0.000 OA
BRANCH  27  29
ATOM     29  O   UNL     1       7.839   5.463  14.536  0.00  0.00    +0.000 OA
ATOM     30  H   UNL     1       7.731   6.431  14.453  0.00  0.00    +0.000 HD
ENDBRANCH  27  29
ENDBRANCH  26  27
ENDBRANCH   3  26
TORSDOF 7
ENDMDL
MODEL 6
REMARK VINA RESULT:      -8.5      1.014      1.176
REMARK  Name = 
REMARK  8 active torsions:
REMARK  status: ('A' for Active; 'I' for Inactive)
REMARK    1  A    between atoms: C_1  and  C_2
REMARK    2  A    between atoms: C_3  and  C_4
REMARK    3  A    between atoms: C_4  and  C_5
REMARK    4  A    between atoms: C_5  and  O_7
REMARK    5  A    between atoms: C_9  and  C_10
REMARK    6  A    between atoms: C_13  and  S_14
REMARK    7  A    between atoms: S_14  and  N_15
REMARK    8  A    between atoms: N_20  and  C_21
REMARK                            x       y       z     vdW  Elec       q    Type
REMARK                         _______ _______ _______ _____ _____    ______ ____
ROOT
ATOM      1  C   UNL     1       4.536   2.665  17.673  0.00  0.00    +0.000 C 
ATOM      2  C   UNL     1       4.231   4.123  17.512  0.00  0.00    +0.000 A 
ATOM      3  C   UNL     1       4.717   4.970  16.525  0.00  0.00    +0.000 A 
ATOM      4  C   UNL     1       4.104   6.227  16.725  0.00  0.00    +0.000 A 
ATOM      5  C   UNL     1       3.258   6.156  17.821  0.00  0.00    +0.000 A 
ATOM      6  N   UNL     1       3.312   4.831  18.302  0.00  0.00    +0.000 N 
ENDROOT
BRANCH   6   7
ATOM      7  C   UNL     1       2.563   4.292  19.403  0.00  0.00    +0.000 A 
ATOM      8  C   UNL     1       3.130   4.225  20.686  0.00  0.00    +0.000 A 
ATOM      9  C   UNL     1       2.492   3.508  21.704  0.00  0.00    +0.000 A 
ATOM     10  C   UNL     1       1.257   2.922  21.459  0.00  0.00    +0.000 A 
ATOM     11  F   UNL     1       0.660   2.210  22.423  0.00  0.00    +0.000 F 
ATOM     12  C   UNL     1       0.646   3.042  20.218  0.00  0.00    +0.000 A 
ATOM     13  C   UNL     1       1.304   3.714  19.184  0.00  0.00    +0.000 A 
ENDBRANCH   6   7
BRANCH   5  14
ATOM     14  C   UNL     1       2.508   7.292  18.402  0.00  0.00    +0.000 A 
ATOM     15  C   UNL     1       2.166   7.285  19.766  0.00  0.00    +0.000 A 
ATOM     16  C   UNL     1       1.545   8.390  20.357  0.00  0.00    +0.000 A 
ATOM     17  C   UNL     1       1.302   9.528  19.587  0.00  0.00    +0.000 A 
ATOM     18  C   UNL     1       1.568   9.533  18.221  0.00  0.00    +0.000 A 
ATOM     19  C   UNL     1       2.123   8.398  17.629  0.00  0.00    +0.000 A 
BRANCH  17  20
ATOM     20  S   UNL     1       0.682  10.992  20.352  0.00  0.00    +0.000 S 
ATOM     21  O   UNL     1       1.544  12.106  20.038  0.00  0.00    +0.000 OA
ATOM     22  O   UNL     1      -0.756  11.048  20.191  0.00  0.00    +0.000 OA
BRANCH  20  23
ATOM     23  N   UNL     1       0.959  10.635  21.969  0.00  0.00    +0.000 NA
ATOM     24  H   UNL     1       1.491  11.386  22.408  0.00  0.00    +0.000 HD
ATOM     25  H   UNL     1       0.081  10.409  22.434  0.00  0.00    +0.000 HD
ENDBRANCH  20  23
ENDBRANCH  17  20
ENDBRANCH   5  14
BRANCH   3  26
ATOM     26  C   UNL     1       5.683   4.643  15.423  0.00  0.00    +0.000 C 
BRANCH  26  27
ATOM     27  C   UNL     1       7.144   4.908  15.739  0.00  0.00    +0.000 C 
ATOM     28  O   UNL     1       7.700   4.411  16.713  0.00  0.00    +0.000 OA
BRANCH  27  29
ATOM     29  O   UNL     1       7.818   5.725  14.901  0.00  0.00    +0.000 OA
ATOM     30  H   UNL     1       8.517   5.287  14.377  0.00  0.00    +0.000 HD
ENDBRANCH  27  29
ENDBRANCH  26  27
ENDBRANCH   3  26
TORSDOF 7
ENDMDL
MODEL 7
REMARK VINA RESULT:      -8.3      1.241      1.735
REMARK  Name = 
REMARK  8 active torsions:
REMARK  status: ('A' for Active; 'I' for Inactive)
REMARK    1  A    between atoms: C_1  and  C_2
REMARK    2  A    between atoms: C_3  and  C_4
REMARK    3  A    between atoms: C_4  and  C_5
REMARK    4  A    between atoms: C_5  and  O_7
REMARK    5  A    between atoms: C_9  and  C_10
REMARK    6  A    between atoms: C_13  and  S_14
REMARK    7  A    between atoms: S_14  and  N_15
REMARK    8  A    between atoms: N_20  and  C_21
REMARK                            x       y       z     vdW  Elec       q    Type
REMARK                         _______ _______ _______ _____ _____    ______ ____
ROOT
ATOM      1  C   UNL     1       4.692   2.277  17.325  0.00  0.00    +0.000 C 
ATOM      2  C   UNL     1       4.379   3.743  17.307  0.00  0.00    +0.000 A 
ATOM      3  C   UNL     1       4.845   4.681  16.396  0.00  0.00    +0.000 A 
ATOM      4  C   UNL     1       4.231   5.910  16.723  0.00  0.00    +0.000 A 
ATOM      5  C   UNL     1       3.402   5.732  17.820  0.00  0.00    +0.000 A 
ATOM      6  N   UNL     1       3.469   4.368  18.173  0.00  0.00    +0.000 N 
ENDROOT
BRANCH   6   7
ATOM      7  C   UNL     1       2.740   3.724  19.230  0.00  0.00    +0.000 A 
ATOM      8  C   UNL     1       1.344   3.588  19.153  0.00  0.00    +0.000 A 
ATOM      9  C   UNL     1       0.614   3.162  20.267  0.00  0.00    +0.000 A 
ATOM     10  C   UNL     1       1.283   2.804  21.430  0.00  0.00    +0.000 A 
ATOM     11  F   UNL     1       0.583   2.425  22.507  0.00  0.00    +0.000 F 
ATOM     12  C   UNL     1       2.669   2.859  21.499  0.00  0.00    +0.000 A 
ATOM     13  C   UNL     1       3.398   3.333  20.406  0.00  0.00    +0.000 A 
ENDBRANCH   6   7
BRANCH   5  14
ATOM     14  C   UNL     1       2.657   6.804  18.517  0.00  0.00    +0.000 A 
ATOM     15  C   UNL     1       2.381   6.691  19.891  0.00  0.00    +0.000 A 
ATOM     16  C   UNL     1       1.767   7.735  20.589  0.00  0.00    +0.000 A 
ATOM     17  C   UNL     1       1.461   8.918  19.917  0.00  0.00    +0.000 A 
ATOM     18  C   UNL     1       1.661   9.028  18.544  0.00  0.00    +0.000 A 
ATOM     19  C   UNL     1       2.210   7.953  17.845  0.00  0.00    +0.000 A 
BRANCH  17  20
ATOM     20  S   UNL     1       0.848  10.308  20.814  0.00  0.00    +0.000 S 
ATOM     21  O   UNL     1       1.032  10.093  22.229  0.00  0.00    +0.000 OA
ATOM     22  O   UNL     1       1.255  11.529  20.150  0.00  0.00    +0.000 OA
BRANCH  20  23
ATOM     23  N   UNL     1      -0.801  10.150  20.534  0.00  0.00    +0.000 NA
ATOM     24  H   UNL     1      -1.278   9.879  21.394  0.00  0.00    +0.000 HD
ATOM     25  H   UNL     1      -1.165  10.995  20.096  0.00  0.00    +0.000 HD
ENDBRANCH  20  23
ENDBRANCH  17  20
ENDBRANCH   5  14
BRANCH   3  26
ATOM     26  C   UNL     1       5.795   4.465  15.254  0.00  0.00    +0.000 C 
BRANCH  26  27
ATOM     27  C   UNL     1       7.240   4.844  15.528  0.00  0.00    +0.000 C 
ATOM     28  O   UNL     1       7.823   4.493  16.547  0.00  0.00    +0.000 OA
BRANCH  27  29
ATOM     29  O   UNL     1       7.866   5.597  14.597  0.00  0.00    +0.000 OA
ATOM     30  H   UNL     1       7.378   5.698  13.757  0.00  0.00    +0.000 HD
ENDBRANCH  27  29
ENDBRANCH  26  27
ENDBRANCH   3  26
TORSDOF 7
ENDMDL
MODEL 8
REMARK VINA RESULT:      -8.3      1.036      1.765
REMARK  Name = 
REMARK  8 active torsions:
REMARK  status: ('A' for Active; 'I' for Inactive)
REMARK    1  A    between atoms: C_1  and  C_2
REMARK    2  A    between atoms: C_3  and  C_4
REMARK    3  A    between atoms: C_4  and  C_5
REMARK    4  A    between atoms: C_5  and  O_7
REMARK    5  A    between atoms: C_9  and  C_10
REMARK    6  A    between atoms: C_13  and  S_14
REMARK    7  A    between atoms: S_14  and  N_15
REMARK    8  A    between atoms: N_20  and  C_21
REMARK                            x       y       z     vdW  Elec       q    Type
REMARK                         _______ _______ _______ _____ _____    ______ ____
ROOT
ATOM      1  C   UNL     1       4.610   3.115  16.914  0.00  0.00    +0.000 C 
ATOM      2  C   UNL     1       4.273   4.560  17.119  0.00  0.00    +0.000 A 
ATOM      3  C   UNL     1       4.679   5.628  16.331  0.00  0.00    +0.000 A 
ATOM      4  C   UNL     1       4.061   6.784  16.857  0.00  0.00    +0.000 A 
ATOM      5  C   UNL     1       3.290   6.434  17.954  0.00  0.00    +0.000 A 
ATOM      6  N   UNL     1       3.396   5.036  18.106  0.00  0.00    +0.000 N 
ENDROOT
BRANCH   6   7
ATOM      7  C   UNL     1       2.729   4.232  19.093  0.00  0.00    +0.000 A 
ATOM      8  C   UNL     1       1.364   3.929  18.961  0.00  0.00    +0.000 A 
ATOM      9  C   UNL     1       0.668   3.336  20.020  0.00  0.00    +0.000 A 
ATOM     10  C   UNL     1       1.350   2.983  21.177  0.00  0.00    +0.000 A 
ATOM     11  F   UNL     1       0.678   2.444  22.202  0.00  0.00    +0.000 F 
ATOM     12  C   UNL     1       2.715   3.206  21.295  0.00  0.00    +0.000 A 
ATOM     13  C   UNL     1       3.404   3.844  20.260  0.00  0.00    +0.000 A 
ENDBRANCH   6   7
BRANCH   5  14
ATOM     14  C   UNL     1       2.562   7.379  18.829  0.00  0.00    +0.000 A 
ATOM     15  C   UNL     1       2.064   8.585  18.304  0.00  0.00    +0.000 A 
ATOM     16  C   UNL     1       1.289   9.445  19.088  0.00  0.00    +0.000 A 
ATOM     17  C   UNL     1       0.974   9.077  20.396  0.00  0.00    +0.000 A 
ATOM     18  C   UNL     1       1.511   7.923  20.960  0.00  0.00    +0.000 A 
ATOM     19  C   UNL     1       2.341   7.109  20.189  0.00  0.00    +0.000 A 
BRANCH  17  20
ATOM     20  S   UNL     1      -0.145  10.060  21.343  0.00  0.00    +0.000 S 
ATOM     21  O   UNL     1       0.592  11.055  22.086  0.00  0.00    +0.000 OA
ATOM     22  O   UNL     1      -1.301  10.387  20.536  0.00  0.00    +0.000 OA
BRANCH  20  23
ATOM     23  N   UNL     1      -0.665   8.931  22.472  0.00  0.00    +0.000 NA
ATOM     24  H   UNL     1       0.136   8.487  22.919  0.00  0.00    +0.000 HD
ATOM     25  H   UNL     1      -1.327   9.361  23.117  0.00  0.00    +0.000 HD
ENDBRANCH  20  23
ENDBRANCH  17  20
ENDBRANCH   5  14
BRANCH   3  26
ATOM     26  C   UNL     1       5.577   5.598  15.127  0.00  0.00    +0.000 C 
BRANCH  26  27
ATOM     27  C   UNL     1       7.063   5.512  15.425  0.00  0.00    +0.000 C 
ATOM     28  O   UNL     1       7.807   4.754  14.812  0.00  0.00    +0.000 OA
BRANCH  27  29
ATOM     29  O   UNL     1       7.541   6.308  16.406  0.00  0.00    +0.000 OA
ATOM     30  H   UNL     1       6.878   6.899  16.813  0.00  0.00    +0.000 HD
ENDBRANCH  27  29
ENDBRANCH  26  27
ENDBRANCH   3  26
TORSDOF 7
ENDMDL
MODEL 9
REMARK VINA RESULT:      -8.3      0.840      1.503
REMARK  Name = 
REMARK  8 active torsions:
REMARK  status: ('A' for Active; 'I' for Inactive)
REMARK    1  A    between atoms: C_1  and  C_2
REMARK    2  A    between atoms: C_3  and  C_4
REMARK    3  A    between atoms: C_4  and  C_5
REMARK    4  A    between atoms: C_5  and  O_7
REMARK    5  A    between atoms: C_9  and  C_10
REMARK    6  A    between atoms: C_13  and  S_14
REMARK    7  A    between atoms: S_14  and  N_15
REMARK    8  A    between atoms: N_20  and  C_21
REMARK                            x       y       z     vdW  Elec       q    Type
REMARK                         _______ _______ _______ _____ _____    ______ ____
ROOT
ATOM      1  C   UNL     1       4.869   3.481  17.104  0.00  0.00    +0.000 C 
ATOM      2  C   UNL     1       4.381   4.892  17.225  0.00  0.00    +0.000 A 
ATOM      3  C   UNL     1       4.747   5.969  16.429  0.00  0.00    +0.000 A 
ATOM      4  C   UNL     1       3.982   7.076  16.859  0.00  0.00    +0.000 A 
ATOM      5  C   UNL     1       3.162   6.687  17.907  0.00  0.00    +0.000 A 
ATOM      6  N   UNL     1       3.387   5.311  18.122  0.00  0.00    +0.000 N 
ENDROOT
BRANCH   6   7
ATOM      7  C   UNL     1       2.722   4.478  19.085  0.00  0.00    +0.000 A 
ATOM      8  C   UNL     1       1.405   4.043  18.863  0.00  0.00    +0.000 A 
ATOM      9  C   UNL     1       0.686   3.420  19.888  0.00  0.00    +0.000 A 
ATOM     10  C   UNL     1       1.305   3.168  21.106  0.00  0.00    +0.000 A 
ATOM     11  F   UNL     1       0.607   2.599  22.097  0.00  0.00    +0.000 F 
ATOM     12  C   UNL     1       2.630   3.522  21.317  0.00  0.00    +0.000 A 
ATOM     13  C   UNL     1       3.336   4.192  20.313  0.00  0.00    +0.000 A 
ENDBRANCH   6   7
BRANCH   5  14
ATOM     14  C   UNL     1       2.279   7.584  18.686  0.00  0.00    +0.000 A 
ATOM     15  C   UNL     1       2.121   7.389  20.069  0.00  0.00    +0.000 A 
ATOM     16  C   UNL     1       1.372   8.282  20.841  0.00  0.00    +0.000 A 
ATOM     17  C   UNL     1       0.810   9.404  20.231  0.00  0.00    +0.000 A 
ATOM     18  C   UNL     1       0.895   9.583  18.853  0.00  0.00    +0.000 A 
ATOM     19  C   UNL     1       1.586   8.646  18.085  0.00  0.00    +0.000 A 
BRANCH  17  20
ATOM     20  S   UNL     1       0.011  10.633  21.213  0.00  0.00    +0.000 S 
ATOM     21  O   UNL     1       0.995  11.550  21.739  0.00  0.00    +0.000 OA
ATOM     22  O   UNL     1      -1.192  11.079  20.543  0.00  0.00    +0.000 OA
BRANCH  20  23
ATOM     23  N   UNL     1      -0.496   9.703  22.516  0.00  0.00    +0.000 NA
ATOM     24  H   UNL     1      -1.373  10.067  22.887  0.00  0.00    +0.000 HD
ATOM     25  H   UNL     1      -0.522   8.719  22.256  0.00  0.00    +0.000 HD
ENDBRANCH  20  23
ENDBRANCH  17  20
ENDBRANCH   5  14
BRANCH   3  26
ATOM     26  C   UNL     1       5.737   5.988  15.300  0.00  0.00    +0.000 C 
BRANCH  26  27
ATOM     27  C   UNL     1       7.187   5.785  15.702  0.00  0.00    +0.000 C 
ATOM     28  O   UNL     1       7.770   6.562  16.450  0.00  0.00    +0.000 OA
BRANCH  27  29
ATOM     29  O   UNL     1       7.821   4.705  15.196  0.00  0.00    +0.000 OA
ATOM     30  H   UNL     1       7.270   4.140  14.619  0.00  0.00    +0.000 HD
ENDBRANCH  27  29
ENDBRANCH  26  27
ENDBRANCH   3  26
TORSDOF 7
ENDMDL
