MODEL 1
REMARK VINA RESULT:      -8.7      0.000      0.000
REMARK  Name = 
REMARK  6 active torsions:
REMARK  status: ('A' for Active; 'I' for Inactive)
REMARK    1  A    between atoms: C_1  and  N_2
REMARK    2  A    between atoms: C_9  and  S_10
REMARK    3  A    between atoms: S_10  and  N_13
REMARK    4  A    between atoms: C_17  and  C_18
REMARK    5  A    between atoms: C_18  and  O_19
REMARK    6  A    between atoms: O_19  and  C_20
REMARK                            x       y       z     vdW  Elec       q    Type
REMARK                         _______ _______ _______ _____ _____    ______ ____
ROOT
ATOM      1  S   UNL     1       4.162   4.578  18.399  0.00  0.00    +0.000 S 
ATOM      2  O   UNL     1       4.291   3.534  19.399  0.00  0.00    +0.000 OA
ATOM      3  O   UNL     1       3.601   4.303  17.095  0.00  0.00    +0.000 OA
ENDROOT
BRANCH   1  12
ATOM      4  C   UNL     1      -0.071   9.146  21.672  0.00  0.00    +0.000 C 
ATOM      5  N   UNL     1       0.710   8.965  20.478  0.00  0.00    +0.000 N 
ATOM      6  C   UNL     1       0.787   9.908  19.462  0.00  0.00    +0.000 C 
ATOM      7  O   UNL     1       0.271  11.001  19.379  0.00  0.00    +0.000 OA
ATOM      8  C   UNL     1       1.718   9.279  18.397  0.00  0.00    +0.000 C 
ATOM      9  O   UNL     1       2.067   9.759  17.344  0.00  0.00    +0.000 OA
ATOM     10  C   UNL     1       2.111   7.981  18.937  0.00  0.00    +0.000 A 
ATOM     11  C   UNL     1       2.945   7.030  18.379  0.00  0.00    +0.000 A 
ATOM     12  C   UNL     1       3.165   5.873  19.127  0.00  0.00    +0.000 A 
ATOM     13  C   UNL     1       2.518   5.684  20.371  0.00  0.00    +0.000 A 
ATOM     14  C   UNL     1       1.682   6.680  20.912  0.00  0.00    +0.000 A 
ATOM     15  C   UNL     1       1.488   7.833  20.175  0.00  0.00    +0.000 A 
ENDBRANCH   1  12
BRANCH   1  16
ATOM     16  N   UNL     1       5.652   5.289  18.191  0.00  0.00    +0.000 NA
ATOM     17  C   UNL     1       6.911   4.665  18.579  0.00  0.00    +0.000 C 
ATOM     18  C   UNL     1       7.783   5.882  18.844  0.00  0.00    +0.000 C 
ATOM     19  C   UNL     1       7.388   6.848  17.732  0.00  0.00    +0.000 C 
ATOM     20  C   UNL     1       5.907   6.533  17.428  0.00  0.00    +0.000 C 
BRANCH  20  21
ATOM     21  C   UNL     1       5.683   6.351  15.926  0.00  0.00    +0.000 C 
BRANCH  21  22
ATOM     22  O   UNL     1       6.848   5.803  15.304  0.00  0.00    +0.000 OA
BRANCH  22  23
ATOM     23  C   UNL     1       6.620   4.993  14.221  0.00  0.00    +0.000 A 
ATOM     24  C   UNL     1       5.539   4.120  14.077  0.00  0.00    +0.000 A 
ATOM     25  C   UNL     1       5.418   3.324  12.936  0.00  0.00    +0.000 A 
ATOM     26  C   UNL     1       6.374   3.399  11.927  0.00  0.00    +0.000 A 
ATOM     27  C   UNL     1       7.448   4.280  12.054  0.00  0.00    +0.000 A 
ATOM     28  C   UNL     1       7.571   5.073  13.200  0.00  0.00    +0.000 A 
ENDBRANCH  22  23
ENDBRANCH  21  22
ENDBRANCH  20  21
ENDBRANCH   1  16
TORSDOF 5
ENDMDL
MODEL 2
REMARK VINA RESULT:      -8.6      1.312      2.149
REMARK  Name = 
REMARK  6 active torsions:
REMARK  status: ('A' for Active; 'I' for Inactive)
REMARK    1  A    between atoms: C_1  and  N_2
REMARK    2  A    between atoms: C_9  and  S_10
REMARK    3  A    between atoms: S_10  and  N_13
REMARK    4  A    between atoms: C_17  and  C_18
REMARK    5  A    between atoms: C_18  and  O_19
REMARK    6  A    between atoms: O_19  and  C_20
REMARK                            x       y       z     vdW  Elec       q    Type
REMARK                         _______ _______ _______ _____ _____    ______ ____
ROOT
ATOM      1  S   UNL     1       3.472   5.228  18.583  0.00  0.00    +0.000 S 
ATOM      2  O   UNL     1       3.299   4.547  19.853  0.00  0.00    +0.000 OA
ATOM      3  O   UNL     1       2.998   4.643  17.348  0.00  0.00    +0.000 OA
ENDROOT
BRANCH   1  12
ATOM      4  C   UNL     1       0.738  11.710  18.604  0.00  0.00    +0.000 C 
ATOM      5  N   UNL     1       0.971  10.565  19.443  0.00  0.00    +0.000 N 
ATOM      6  C   UNL     1       0.615  10.512  20.784  0.00  0.00    +0.000 C 
ATOM      7  O   UNL     1       0.063  11.342  21.472  0.00  0.00    +0.000 OA
ATOM      8  C   UNL     1       1.066   9.113  21.266  0.00  0.00    +0.000 C 
ATOM      9  O   UNL     1       0.948   8.636  22.371  0.00  0.00    +0.000 OA
ATOM     10  C   UNL     1       1.653   8.465  20.097  0.00  0.00    +0.000 A 
ATOM     11  C   UNL     1       2.196   7.198  19.992  0.00  0.00    +0.000 A 
ATOM     12  C   UNL     1       2.676   6.823  18.737  0.00  0.00    +0.000 A 
ATOM     13  C   UNL     1       2.642   7.729  17.651  0.00  0.00    +0.000 A 
ATOM     14  C   UNL     1       2.072   9.010  17.794  0.00  0.00    +0.000 A 
ATOM     15  C   UNL     1       1.577   9.364  19.035  0.00  0.00    +0.000 A 
ENDBRANCH   1  12
BRANCH   1  16
ATOM     16  N   UNL     1       5.084   5.601  18.404  0.00  0.00    +0.000 NA
ATOM     17  C   UNL     1       6.163   4.874  19.063  0.00  0.00    +0.000 C 
ATOM     18  C   UNL     1       7.234   5.950  19.162  0.00  0.00    +0.000 C 
ATOM     19  C   UNL     1       7.121   6.684  17.830  0.00  0.00    +0.000 C 
ATOM     20  C   UNL     1       5.634   6.569  17.428  0.00  0.00    +0.000 C 
BRANCH  20  21
ATOM     21  C   UNL     1       5.493   6.084  15.984  0.00  0.00    +0.000 C 
BRANCH  21  22
ATOM     22  O   UNL     1       6.756   5.653  15.470  0.00  0.00    +0.000 OA
BRANCH  22  23
ATOM     23  C   UNL     1       6.714   4.976  14.277  0.00  0.00    +0.000 A 
ATOM     24  C   UNL     1       7.614   5.141  13.221  0.00  0.00    +0.000 A 
ATOM     25  C   UNL     1       7.462   4.411  12.041  0.00  0.00    +0.000 A 
ATOM     26  C   UNL     1       6.414   3.505  11.909  0.00  0.00    +0.000 A 
ATOM     27  C   UNL     1       5.521   3.321  12.964  0.00  0.00    +0.000 A 
ATOM     28  C   UNL     1       5.670   4.057  14.144  0.00  0.00    +0.000 A 
ENDBRANCH  22  23
ENDBRANCH  21  22
ENDBRANCH  20  21
ENDBRANCH   1  16
TORSDOF 5
ENDMDL
MODEL 3
REMARK VINA RESULT:      -8.2      0.999      1.509
REMARK  Name = 
REMARK  6 active torsions:
REMARK  status: ('A' for Active; 'I' for Inactive)
REMARK    1  A    between atoms: C_1  and  N_2
REMARK    2  A    between atoms: C_9  and  S_10
REMARK    3  A    between atoms: S_10  and  N_13
REMARK    4  A    between atoms: C_17  and  C_18
REMARK    5  A    between atoms: C_18  and  O_19
REMARK    6  A    between atoms: O_19  and  C_20
REMARK                            x       y       z     vdW  Elec       q    Type
REMARK                         _______ _______ _______ _____ _____    ______ ____
ROOT
ATOM      1  S   UNL     1       4.309   5.802  17.160  0.00  0.00    +0.000 S 
ATOM      2  O   UNL     1       3.691   4.502  16.975  0.00  0.00    +0.000 OA
ATOM      3  O   UNL     1       4.556   6.681  16.039  0.00  0.00    +0.000 OA
ENDROOT
BRANCH   1  12
ATOM      4  C   UNL     1       0.028   8.709  21.926  0.00  0.00    +0.000 C 
ATOM      5  N   UNL     1       0.708   8.976  20.687  0.00  0.00    +0.000 N 
ATOM      6  C   UNL     1       0.612  10.181  20.005  0.00  0.00    +0.000 C 
ATOM      7  O   UNL     1       0.001  11.187  20.291  0.00  0.00    +0.000 OA
ATOM      8  C   UNL     1       1.490  10.001  18.743  0.00  0.00    +0.000 C 
ATOM      9  O   UNL     1       1.700  10.805  17.866  0.00  0.00    +0.000 OA
ATOM     10  C   UNL     1       2.039   8.651  18.836  0.00  0.00    +0.000 A 
ATOM     11  C   UNL     1       2.894   8.003  17.964  0.00  0.00    +0.000 A 
ATOM     12  C   UNL     1       3.279   6.707  18.309  0.00  0.00    +0.000 A 
ATOM     13  C   UNL     1       2.767   6.089  19.474  0.00  0.00    +0.000 A 
ATOM     14  C   UNL     1       1.903   6.784  20.343  0.00  0.00    +0.000 A 
ATOM     15  C   UNL     1       1.546   8.076  20.007  0.00  0.00    +0.000 A 
ENDBRANCH   1  12
BRANCH   1  16
ATOM     16  N   UNL     1       5.737   5.589  17.986  0.00  0.00    +0.000 NA
ATOM     17  C   UNL     1       5.837   4.919  19.278  0.00  0.00    +0.000 C 
ATOM     18  C   UNL     1       7.071   5.584  19.868  0.00  0.00    +0.000 C 
ATOM     19  C   UNL     1       8.011   5.707  18.674  0.00  0.00    +0.000 C 
ATOM     20  C   UNL     1       7.088   5.871  17.446  0.00  0.00    +0.000 C 
BRANCH  20  21
ATOM     21  C   UNL     1       7.483   4.901  16.331  0.00  0.00    +0.000 C 
BRANCH  21  22
ATOM     22  O   UNL     1       7.570   5.581  15.077  0.00  0.00    +0.000 OA
BRANCH  22  23
ATOM     23  C   UNL     1       7.123   4.879  13.986  0.00  0.00    +0.000 A 
ATOM     24  C   UNL     1       7.723   4.876  12.724  0.00  0.00    +0.000 A 
ATOM     25  C   UNL     1       7.167   4.137  11.678  0.00  0.00    +0.000 A 
ATOM     26  C   UNL     1       6.011   3.391  11.886  0.00  0.00    +0.000 A 
ATOM     27  C   UNL     1       5.414   3.374  13.146  0.00  0.00    +0.000 A 
ATOM     28  C   UNL     1       5.968   4.118  14.192  0.00  0.00    +0.000 A 
ENDBRANCH  22  23
ENDBRANCH  21  22
ENDBRANCH  20  21
ENDBRANCH   1  16
TORSDOF 5
ENDMDL
MODEL 4
REMARK VINA RESULT:      -8.2      2.616      4.251
REMARK  Name = 
REMARK  6 active torsions:
REMARK  status: ('A' for Active; 'I' for Inactive)
REMARK    1  A    between atoms: C_1  and  N_2
REMARK    2  A    between atoms: C_9  and  S_10
REMARK    3  A    between atoms: S_10  and  N_13
REMARK    4  A    between atoms: C_17  and  C_18
REMARK    5  A    between atoms: C_18  and  O_19
REMARK    6  A    between atoms: O_19  and  C_20
REMARK                            x       y       z     vdW  Elec       q    Type
REMARK                         _______ _______ _______ _____ _____    ______ ____
ROOT
ATOM      1  S   UNL     1       3.050   4.970  20.370  0.00  0.00    +0.000 S 
ATOM      2  O   UNL     1       4.471   5.142  20.127  0.00  0.00    +0.000 OA
ATOM      3  O   UNL     1       2.555   4.562  21.665  0.00  0.00    +0.000 OA
ENDROOT
BRANCH   1  12
ATOM      4  C   UNL     1       0.521  11.229  18.388  0.00  0.00    +0.000 C 
ATOM      5  N   UNL     1       0.484  10.268  19.457  0.00  0.00    +0.000 N 
ATOM      6  C   UNL     1      -0.247  10.447  20.624  0.00  0.00    +0.000 C 
ATOM      7  O   UNL     1      -0.963  11.366  20.956  0.00  0.00    +0.000 OA
ATOM      8  C   UNL     1       0.025   9.179  21.469  0.00  0.00    +0.000 C 
ATOM      9  O   UNL     1      -0.416   8.909  22.561  0.00  0.00    +0.000 OA
ATOM     10  C   UNL     1       0.917   8.353  20.661  0.00  0.00    +0.000 A 
ATOM     11  C   UNL     1       1.449   7.111  20.956  0.00  0.00    +0.000 A 
ATOM     12  C   UNL     1       2.267   6.532  19.986  0.00  0.00    +0.000 A 
ATOM     13  C   UNL     1       2.563   7.222  18.787  0.00  0.00    +0.000 A 
ATOM     14  C   UNL     1       1.995   8.483  18.517  0.00  0.00    +0.000 A 
ATOM     15  C   UNL     1       1.166   9.038  19.473  0.00  0.00    +0.000 A 
ENDBRANCH   1  12
BRANCH   1  16
ATOM     16  N   UNL     1       2.446   3.928  19.222  0.00  0.00    +0.000 NA
ATOM     17  C   UNL     1       1.028   3.627  19.065  0.00  0.00    +0.000 C 
ATOM     18  C   UNL     1       1.080   2.228  18.469  0.00  0.00    +0.000 C 
ATOM     19  C   UNL     1       2.252   2.303  17.497  0.00  0.00    +0.000 C 
ATOM     20  C   UNL     1       3.225   3.333  18.112  0.00  0.00    +0.000 C 
BRANCH  20  21
ATOM     21  C   UNL     1       3.648   4.374  17.074  0.00  0.00    +0.000 C 
BRANCH  21  22
ATOM     22  O   UNL     1       5.019   4.194  16.707  0.00  0.00    +0.000 OA
BRANCH  22  23
ATOM     23  C   UNL     1       5.889   5.148  17.169  0.00  0.00    +0.000 A 
ATOM     24  C   UNL     1       5.857   6.504  16.834  0.00  0.00    +0.000 A 
ATOM     25  C   UNL     1       6.810   7.384  17.350  0.00  0.00    +0.000 A 
ATOM     26  C   UNL     1       7.800   6.917  18.210  0.00  0.00    +0.000 A 
ATOM     27  C   UNL     1       7.830   5.569  18.564  0.00  0.00    +0.000 A 
ATOM     28  C   UNL     1       6.879   4.686  18.042  0.00  0.00    +0.000 A 
ENDBRANCH  22  23
ENDBRANCH  21  22
ENDBRANCH  20  21
ENDBRANCH   1  16
TORSDOF 5
ENDMDL
MODEL 5
REMARK VINA RESULT:      -8.1      0.952      1.254
REMARK  Name = 
REMARK  6 active torsions:
REMARK  status: ('A' for Active; 'I' for Inactive)
REMARK    1  A    between atoms: C_1  and  N_2
REMARK    2  A    between atoms: C_9  and  S_10
REMARK    3  A    between atoms: S_10  and  N_13
REMARK    4  A    between atoms: C_17  and  C_18
REMARK    5  A    between atoms: C_18  and  O_19
REMARK    6  A    between atoms: O_19  and  C_20
REMARK                            x       y       z     vdW  Elec       q    Type
REMARK                         _______ _______ _______ _____ _____    ______ ____
ROOT
ATOM      1  S   UNL     1       4.406   4.129  18.330  0.00  0.00    +0.000 S 
ATOM      2  O   UNL     1       4.834   3.260  19.411  0.00  0.00    +0.000 OA
ATOM      3  O   UNL     1       3.666   3.613  17.200  0.00  0.00    +0.000 OA
ENDROOT
BRANCH   1  12
ATOM      4  C   UNL     1       0.117   8.639  21.609  0.00  0.00    +0.000 C 
ATOM      5  N   UNL     1       0.924   8.482  20.430  0.00  0.00    +0.000 N 
ATOM      6  C   UNL     1       1.028   9.448  19.438  0.00  0.00    +0.000 C 
ATOM      7  O   UNL     1       0.519  10.545  19.369  0.00  0.00    +0.000 OA
ATOM      8  C   UNL     1       1.981   8.840  18.381  0.00  0.00    +0.000 C 
ATOM      9  O   UNL     1       2.357   9.342  17.348  0.00  0.00    +0.000 OA
ATOM     10  C   UNL     1       2.357   7.528  18.899  0.00  0.00    +0.000 A 
ATOM     11  C   UNL     1       3.199   6.586  18.339  0.00  0.00    +0.000 A 
ATOM     12  C   UNL     1       3.398   5.412  19.065  0.00  0.00    +0.000 A 
ATOM     13  C   UNL     1       2.721   5.197  20.289  0.00  0.00    +0.000 A 
ATOM     14  C   UNL     1       1.877   6.184  20.833  0.00  0.00    +0.000 A 
ATOM     15  C   UNL     1       1.704   7.355  20.119  0.00  0.00    +0.000 A 
ENDBRANCH   1  12
BRANCH   1  16
ATOM     16  N   UNL     1       5.738   4.946  17.758  0.00  0.00    +0.000 NA
ATOM     17  C   UNL     1       6.905   5.267  18.571  0.00  0.00    +0.000 C 
ATOM     18  C   UNL     1       7.424   6.515  17.876  0.00  0.00    +0.000 C 
ATOM     19  C   UNL     1       7.228   6.203  16.396  0.00  0.00    +0.000 C 
ATOM     20  C   UNL     1       5.993   5.277  16.337  0.00  0.00    +0.000 C 
BRANCH  20  21
ATOM     21  C   UNL     1       6.279   4.035  15.492  0.00  0.00    +0.000 C 
BRANCH  21  22
ATOM     22  O   UNL     1       6.752   4.403  14.194  0.00  0.00    +0.000 OA
BRANCH  22  23
ATOM     23  C   UNL     1       6.151   3.768  13.138  0.00  0.00    +0.000 A 
ATOM     24  C   UNL     1       4.819   3.930  12.748  0.00  0.00    +0.000 A 
ATOM     25  C   UNL     1       4.306   3.213  11.665  0.00  0.00    +0.000 A 
ATOM     26  C   UNL     1       5.121   2.333  10.960  0.00  0.00    +0.000 A 
ATOM     27  C   UNL     1       6.456   2.178  11.331  0.00  0.00    +0.000 A 
ATOM     28  C   UNL     1       6.968   2.892  12.419  0.00  0.00    +0.000 A 
ENDBRANCH  22  23
ENDBRANCH  21  22
ENDBRANCH  20  21
ENDBRANCH   1  16
TORSDOF 5
ENDMDL
MODEL 6
REMARK VINA RESULT:      -7.8      2.123      3.711
REMARK  Name = 
REMARK  6 active torsions:
REMARK  status: ('A' for Active; 'I' for Inactive)
REMARK    1  A    between atoms: C_1  and  N_2
REMARK    2  A    between atoms: C_9  and  S_10
REMARK    3  A    between atoms: S_10  and  N_13
REMARK    4  A    between atoms: C_17  and  C_18
REMARK    5  A    between atoms: C_18  and  O_19
REMARK    6  A    between atoms: O_19  and  C_20
REMARK                            x       y       z     vdW  Elec       q    Type
REMARK                         _______ _______ _______ _____ _____    ______ ____
ROOT
ATOM      1  S   UNL     1       2.780   6.295  18.812  0.00  0.00    +0.000 S 
ATOM      2  O   UNL     1       2.119   6.224  17.522  0.00  0.00    +0.000 OA
ATOM      3  O   UNL     1       4.191   6.594  18.917  0.00  0.00    +0.000 OA
ENDROOT
BRANCH   1  12
ATOM      4  C   UNL     1      -0.880  10.625  22.978  0.00  0.00    +0.000 C 
ATOM      5  N   UNL     1      -0.272  10.533  21.678  0.00  0.00    +0.000 N 
ATOM      6  C   UNL     1      -0.315  11.553  20.738  0.00  0.00    +0.000 C 
ATOM      7  O   UNL     1      -0.816  12.654  20.811  0.00  0.00    +0.000 OA
ATOM      8  C   UNL     1       0.450  11.003  19.510  0.00  0.00    +0.000 C 
ATOM      9  O   UNL     1       0.663  11.561  18.459  0.00  0.00    +0.000 OA
ATOM     10  C   UNL     1       0.888   9.663  19.888  0.00  0.00    +0.000 A 
ATOM     11  C   UNL     1       1.619   8.751  19.150  0.00  0.00    +0.000 A 
ATOM     12  C   UNL     1       1.917   7.537  19.768  0.00  0.00    +0.000 A 
ATOM     13  C   UNL     1       1.441   7.255  21.071  0.00  0.00    +0.000 A 
ATOM     14  C   UNL     1       0.705   8.213  21.796  0.00  0.00    +0.000 A 
ATOM     15  C   UNL     1       0.435   9.422  21.185  0.00  0.00    +0.000 A 
ENDBRANCH   1  12
BRANCH   1  16
ATOM     16  N   UNL     1       2.479   4.879  19.633  0.00  0.00    +0.000 NA
ATOM     17  C   UNL     1       1.154   4.287  19.772  0.00  0.00    +0.000 C 
ATOM     18  C   UNL     1       1.301   3.523  21.079  0.00  0.00    +0.000 C 
ATOM     19  C   UNL     1       2.708   2.941  20.992  0.00  0.00    +0.000 C 
ATOM     20  C   UNL     1       3.515   3.954  20.150  0.00  0.00    +0.000 C 
BRANCH  20  21
ATOM     21  C   UNL     1       4.278   3.249  19.028  0.00  0.00    +0.000 C 
BRANCH  21  22
ATOM     22  O   UNL     1       5.590   3.799  18.886  0.00  0.00    +0.000 OA
BRANCH  22  23
ATOM     23  C   UNL     1       5.952   4.157  17.612  0.00  0.00    +0.000 A 
ATOM     24  C   UNL     1       7.194   4.677  17.240  0.00  0.00    +0.000 A 
ATOM     25  C   UNL     1       7.445   5.027  15.911  0.00  0.00    +0.000 A 
ATOM     26  C   UNL     1       6.459   4.854  14.944  0.00  0.00    +0.000 A 
ATOM     27  C   UNL     1       5.222   4.319  15.303  0.00  0.00    +0.000 A 
ATOM     28  C   UNL     1       4.969   3.974  16.635  0.00  0.00    +0.000 A 
ENDBRANCH  22  23
ENDBRANCH  21  22
ENDBRANCH  20  21
ENDBRANCH   1  16
TORSDOF 5
ENDMDL
MODEL 7
REMARK VINA RESULT:      -7.8      2.752      4.291
REMARK  Name = 
REMARK  6 active torsions:
REMARK  status: ('A' for Active; 'I' for Inactive)
REMARK    1  A    between atoms: C_1  and  N_2
REMARK    2  A    between atoms: C_9  and  S_10
REMARK    3  A    between atoms: S_10  and  N_13
REMARK    4  A    between atoms: C_17  and  C_18
REMARK    5  A    between atoms: C_18  and  O_19
REMARK    6  A    between atoms: O_19  and  C_20
REMARK                            x       y       z     vdW  Elec       q    Type
REMARK                         _______ _______ _______ _____ _____    ______ ____
ROOT
ATOM      1  S   UNL     1       4.368   6.135  16.903  0.00  0.00    +0.000 S 
ATOM      2  O   UNL     1       3.814   4.808  16.707  0.00  0.00    +0.000 OA
ATOM      3  O   UNL     1       4.571   7.035  15.789  0.00  0.00    +0.000 OA
ENDROOT
BRANCH   1  12
ATOM      4  C   UNL     1      -0.082   8.789  21.661  0.00  0.00    +0.000 C 
ATOM      5  N   UNL     1       0.640   9.120  20.462  0.00  0.00    +0.000 N 
ATOM      6  C   UNL     1       0.564  10.358  19.839  0.00  0.00    +0.000 C 
ATOM      7  O   UNL     1      -0.059  11.348  20.156  0.00  0.00    +0.000 OA
ATOM      8  C   UNL     1       1.486  10.244  18.601  0.00  0.00    +0.000 C 
ATOM      9  O   UNL     1       1.724  11.093  17.775  0.00  0.00    +0.000 OA
ATOM     10  C   UNL     1       2.034   8.892  18.643  0.00  0.00    +0.000 A 
ATOM     11  C   UNL     1       2.921   8.291  17.770  0.00  0.00    +0.000 A 
ATOM     12  C   UNL     1       3.297   6.979  18.060  0.00  0.00    +0.000 A 
ATOM     13  C   UNL     1       2.747   6.301  19.174  0.00  0.00    +0.000 A 
ATOM     14  C   UNL     1       1.852   6.949  20.047  0.00  0.00    +0.000 A 
ATOM     15  C   UNL     1       1.503   8.257  19.765  0.00  0.00    +0.000 A 
ENDBRANCH   1  12
BRANCH   1  16
ATOM     16  N   UNL     1       5.807   5.984  17.726  0.00  0.00    +0.000 NA
ATOM     17  C   UNL     1       6.675   7.109  18.056  0.00  0.00    +0.000 C 
ATOM     18  C   UNL     1       8.035   6.431  18.119  0.00  0.00    +0.000 C 
ATOM     19  C   UNL     1       7.736   5.100  18.799  0.00  0.00    +0.000 C 
ATOM     20  C   UNL     1       6.289   4.749  18.386  0.00  0.00    +0.000 C 
BRANCH  20  21
ATOM     21  C   UNL     1       5.447   4.373  19.606  0.00  0.00    +0.000 C 
BRANCH  21  22
ATOM     22  O   UNL     1       4.980   3.025  19.502  0.00  0.00    +0.000 OA
BRANCH  22  23
ATOM     23  C   UNL     1       3.621   2.858  19.582  0.00  0.00    +0.000 A 
ATOM     24  C   UNL     1       2.799   2.411  18.544  0.00  0.00    +0.000 A 
ATOM     25  C   UNL     1       1.420   2.297  18.732  0.00  0.00    +0.000 A 
ATOM     26  C   UNL     1       0.853   2.623  19.961  0.00  0.00    +0.000 A 
ATOM     27  C   UNL     1       1.667   3.054  21.007  0.00  0.00    +0.000 A 
ATOM     28  C   UNL     1       3.048   3.173  20.817  0.00  0.00    +0.000 A 
ENDBRANCH  22  23
ENDBRANCH  21  22
ENDBRANCH  20  21
ENDBRANCH   1  16
TORSDOF 5
ENDMDL
MODEL 8
REMARK VINA RESULT:      -7.8      3.017      4.714
REMARK  Name = 
REMARK  6 active torsions:
REMARK  status: ('A' for Active; 'I' for Inactive)
REMARK    1  A    between atoms: C_1  and  N_2
REMARK    2  A    between atoms: C_9  and  S_10
REMARK    3  A    between atoms: S_10  and  N_13
REMARK    4  A    between atoms: C_17  and  C_18
REMARK    5  A    between atoms: C_18  and  O_19
REMARK    6  A    between atoms: O_19  and  C_20
REMARK                            x       y       z     vdW  Elec       q    Type
REMARK                         _______ _______ _______ _____ _____    ______ ____
ROOT
ATOM      1  S   UNL     1       4.677   6.241  16.639  0.00  0.00    +0.000 S 
ATOM      2  O   UNL     1       4.144   4.896  16.526  0.00  0.00    +0.000 OA
ATOM      3  O   UNL     1       5.029   7.010  15.466  0.00  0.00    +0.000 OA
ENDROOT
BRANCH   1  12
ATOM      4  C   UNL     1       0.218  10.619  19.872  0.00  0.00    +0.000 C 
ATOM      5  N   UNL     1       0.809   9.311  19.970  0.00  0.00    +0.000 N 
ATOM      6  C   UNL     1       0.552   8.430  21.012  0.00  0.00    +0.000 C 
ATOM      7  O   UNL     1      -0.178   8.557  21.971  0.00  0.00    +0.000 OA
ATOM      8  C   UNL     1       1.406   7.178  20.702  0.00  0.00    +0.000 C 
ATOM      9  O   UNL     1       1.485   6.157  21.344  0.00  0.00    +0.000 OA
ATOM     10  C   UNL     1       2.093   7.472  19.447  0.00  0.00    +0.000 A 
ATOM     11  C   UNL     1       2.967   6.675  18.733  0.00  0.00    +0.000 A 
ATOM     12  C   UNL     1       3.470   7.203  17.543  0.00  0.00    +0.000 A 
ATOM     13  C   UNL     1       3.124   8.512  17.133  0.00  0.00    +0.000 A 
ATOM     14  C   UNL     1       2.222   9.292  17.883  0.00  0.00    +0.000 A 
ATOM     15  C   UNL     1       1.710   8.752  19.048  0.00  0.00    +0.000 A 
ENDBRANCH   1  12
BRANCH   1  16
ATOM     16  N   UNL     1       5.995   6.198  17.654  0.00  0.00    +0.000 NA
ATOM     17  C   UNL     1       6.770   7.375  18.030  0.00  0.00    +0.000 C 
ATOM     18  C   UNL     1       8.132   6.762  18.313  0.00  0.00    +0.000 C 
ATOM     19  C   UNL     1       7.791   5.457  19.025  0.00  0.00    +0.000 C 
ATOM     20  C   UNL     1       6.427   5.022  18.444  0.00  0.00    +0.000 C 
BRANCH  20  21
ATOM     21  C   UNL     1       5.442   4.677  19.562  0.00  0.00    +0.000 C 
BRANCH  21  22
ATOM     22  O   UNL     1       4.974   3.332  19.426  0.00  0.00    +0.000 OA
BRANCH  22  23
ATOM     23  C   UNL     1       3.634   3.142  19.647  0.00  0.00    +0.000 A 
ATOM     24  C   UNL     1       2.648   3.109  18.657  0.00  0.00    +0.000 A 
ATOM     25  C   UNL     1       1.306   2.929  19.001  0.00  0.00    +0.000 A 
ATOM     26  C   UNL     1       0.941   2.774  20.334  0.00  0.00    +0.000 A 
ATOM     27  C   UNL     1       1.920   2.789  21.327  0.00  0.00    +0.000 A 
ATOM     28  C   UNL     1       3.262   2.975  20.984  0.00  0.00    +0.000 A 
ENDBRANCH  22  23
ENDBRANCH  21  22
ENDBRANCH  20  21
ENDBRANCH   1  16
TORSDOF 5
ENDMDL
MODEL 9
REMARK VINA RESULT:      -7.7      2.163      4.066
REMARK  Name = 
REMARK  6 active torsions:
REMARK  status: ('A' for Active; 'I' for Inactive)
REMARK    1  A    between atoms: C_1  and  N_2
REMARK    2  A    between atoms: C_9  and  S_10
REMARK    3  A    between atoms: S_10  and  N_13
REMARK    4  A    between atoms: C_17  and  C_18
REMARK    5  A    between atoms: C_18  and  O_19
REMARK    6  A    between atoms: O_19  and  C_20
REMARK                            x       y       z     vdW  Elec       q    Type
REMARK                         _______ _______ _______ _____ _____    ______ ____
ROOT
ATOM      1  S   UNL     1       3.372   6.360  18.612  0.00  0.00    +0.000 S 
ATOM      2  O   UNL     1       3.426   6.181  17.173  0.00  0.00    +0.000 OA
ATOM      3  O   UNL     1       4.563   6.657  19.376  0.00  0.00    +0.000 OA
ENDROOT
BRANCH   1  12
ATOM      4  C   UNL     1      -0.965  11.866  19.213  0.00  0.00    +0.000 C 
ATOM      5  N   UNL     1      -0.300  10.847  19.979  0.00  0.00    +0.000 N 
ATOM      6  C   UNL     1      -0.406  10.732  21.358  0.00  0.00    +0.000 C 
ATOM      7  O   UNL     1      -1.042  11.399  22.145  0.00  0.00    +0.000 OA
ATOM      8  C   UNL     1       0.477   9.517  21.731  0.00  0.00    +0.000 C 
ATOM      9  O   UNL     1       0.672   9.054  22.830  0.00  0.00    +0.000 OA
ATOM     10  C   UNL     1       1.019   9.023  20.469  0.00  0.00    +0.000 A 
ATOM     11  C   UNL     1       1.859   7.947  20.251  0.00  0.00    +0.000 A 
ATOM     12  C   UNL     1       2.212   7.685  18.927  0.00  0.00    +0.000 A 
ATOM     13  C   UNL     1       1.759   8.523  17.880  0.00  0.00    +0.000 A 
ATOM     14  C   UNL     1       0.897   9.606  18.141  0.00  0.00    +0.000 A 
ATOM     15  C   UNL     1       0.533   9.844  19.452  0.00  0.00    +0.000 A 
ENDBRANCH   1  12
BRANCH   1  16
ATOM     16  N   UNL     1       2.640   5.022  19.278  0.00  0.00    +0.000 NA
ATOM     17  C   UNL     1       1.241   4.670  19.063  0.00  0.00    +0.000 C 
ATOM     18  C   UNL     1       0.925   3.899  20.335  0.00  0.00    +0.000 C 
ATOM     19  C   UNL     1       2.189   3.081  20.575  0.00  0.00    +0.000 C 
ATOM     20  C   UNL     1       3.340   3.933  19.998  0.00  0.00    +0.000 C 
BRANCH  20  21
ATOM     21  C   UNL     1       4.228   3.100  19.073  0.00  0.00    +0.000 C 
BRANCH  21  22
ATOM     22  O   UNL     1       5.555   3.631  19.032  0.00  0.00    +0.000 OA
BRANCH  22  23
ATOM     23  C   UNL     1       5.995   4.040  17.799  0.00  0.00    +0.000 A 
ATOM     24  C   UNL     1       7.110   4.850  17.565  0.00  0.00    +0.000 A 
ATOM     25  C   UNL     1       7.454   5.222  16.264  0.00  0.00    +0.000 A 
ATOM     26  C   UNL     1       6.692   4.783  15.186  0.00  0.00    +0.000 A 
ATOM     27  C   UNL     1       5.588   3.960  15.408  0.00  0.00    +0.000 A 
ATOM     28  C   UNL     1       5.240   3.592  16.712  0.00  0.00    +0.000 A 
ENDBRANCH  22  23
ENDBRANCH  21  22
ENDBRANCH  20  21
ENDBRANCH   1  16
TORSDOF 5
ENDMDL
