MODEL 1
REMARK VINA RESULT:      -6.9      0.000      0.000
REMARK  Name = 
REMARK  4 active torsions:
REMARK  status: ('A' for Active; 'I' for Inactive)
REMARK    1  A    between atoms: C_1  and  C_2
REMARK    2  A    between atoms: C_5  and  C_6
REMARK    3  A    between atoms: C_6  and  C_7
REMARK    4  A    between atoms: C_9  and  C_10
REMARK                            x       y       z     vdW  Elec       q    Type
REMARK                         _______ _______ _______ _____ _____    ______ ____
ROOT
ATOM      1  C   UNL     1       6.387   5.436  17.588  0.00  0.00    +0.000 A 
ATOM      2  N   UNL     1       5.884   4.784  16.564  0.00  0.00    +0.000 NA
ATOM      3  C   UNL     1       6.698   5.194  15.536  0.00  0.00    +0.000 A 
ATOM      4  N   UNL     1       7.637   6.084  15.882  0.00  0.00    +0.000 NA
ATOM      5  O   UNL     1       7.433   6.249  17.253  0.00  0.00    +0.000 OA
ENDROOT
BRANCH   3   6
ATOM      6  C   UNL     1       6.578   4.592  14.207  0.00  0.00    +0.000 A 
ATOM      7  C   UNL     1       7.487   4.884  13.143  0.00  0.00    +0.000 A 
ATOM      8  C   UNL     1       7.151   4.229  11.977  0.00  0.00    +0.000 A 
ATOM      9  S   UNL     1       5.748   3.266  12.163  0.00  0.00    +0.000 S 
ATOM     10  C   UNL     1       5.585   3.723  13.806  0.00  0.00    +0.000 A 
ENDBRANCH   3   6
BRANCH   1  11
ATOM     11  C   UNL     1       6.103   5.279  19.037  0.00  0.00    +0.000 C 
BRANCH  11  16
ATOM     12  C   UNL     1       0.899   3.103  20.497  0.00  0.00    +0.000 C 
ATOM     13  C   UNL     1       2.232   3.654  20.084  0.00  0.00    +0.000 A 
ATOM     14  C   UNL     1       3.319   2.807  19.845  0.00  0.00    +0.000 A 
ATOM     15  C   UNL     1       4.561   3.335  19.483  0.00  0.00    +0.000 A 
ATOM     16  C   UNL     1       4.742   4.718  19.362  0.00  0.00    +0.000 A 
ATOM     17  C   UNL     1       3.647   5.564  19.580  0.00  0.00    +0.000 A 
ATOM     18  C   UNL     1       2.407   5.037  19.940  0.00  0.00    +0.000 A 
ENDBRANCH  11  16
ENDBRANCH   1  11
TORSDOF 3
ENDMDL
MODEL 2
REMARK VINA RESULT:      -6.8      4.551      5.685
REMARK  Name = 
REMARK  4 active torsions:
REMARK  status: ('A' for Active; 'I' for Inactive)
REMARK    1  A    between atoms: C_1  and  C_2
REMARK    2  A    between atoms: C_5  and  C_6
REMARK    3  A    between atoms: C_6  and  C_7
REMARK    4  A    between atoms: C_9  and  C_10
REMARK                            x       y       z     vdW  Elec       q    Type
REMARK                         _______ _______ _______ _____ _____    ______ ____
ROOT
ATOM      1  C   UNL     1       7.712   6.733  18.103  0.00  0.00    +0.000 A 
ATOM      2  N   UNL     1       8.480   7.577  18.756  0.00  0.00    +0.000 NA
ATOM      3  C   UNL     1       8.238   8.755  18.094  0.00  0.00    +0.000 A 
ATOM      4  N   UNL     1       7.395   8.656  17.057  0.00  0.00    +0.000 NA
ATOM      5  O   UNL     1       7.041   7.306  17.059  0.00  0.00    +0.000 OA
ENDROOT
BRANCH   3   6
ATOM      6  C   UNL     1       8.795  10.015  18.590  0.00  0.00    +0.000 A 
ATOM      7  C   UNL     1       8.767  11.224  17.829  0.00  0.00    +0.000 A 
ATOM      8  C   UNL     1       9.384  12.268  18.485  0.00  0.00    +0.000 A 
ATOM      9  S   UNL     1       9.995  11.793  20.012  0.00  0.00    +0.000 S 
ATOM     10  C   UNL     1       9.435  10.189  19.800  0.00  0.00    +0.000 A 
ENDBRANCH   3   6
BRANCH   1  11
ATOM     11  C   UNL     1       7.346   5.335  18.442  0.00  0.00    +0.000 C 
BRANCH  11  16
ATOM     12  C   UNL     1       1.665   4.241  17.744  0.00  0.00    +0.000 C 
ATOM     13  C   UNL     1       3.130   4.493  17.949  0.00  0.00    +0.000 A 
ATOM     14  C   UNL     1       3.597   5.146  19.094  0.00  0.00    +0.000 A 
ATOM     15  C   UNL     1       4.961   5.393  19.261  0.00  0.00    +0.000 A 
ATOM     16  C   UNL     1       5.884   5.003  18.283  0.00  0.00    +0.000 A 
ATOM     17  C   UNL     1       5.417   4.329  17.145  0.00  0.00    +0.000 A 
ATOM     18  C   UNL     1       4.055   4.080  16.980  0.00  0.00    +0.000 A 
ENDBRANCH  11  16
ENDBRANCH   1  11
TORSDOF 3
ENDMDL
MODEL 3
REMARK VINA RESULT:      -6.8      4.612      5.697
REMARK  Name = 
REMARK  4 active torsions:
REMARK  status: ('A' for Active; 'I' for Inactive)
REMARK    1  A    between atoms: C_1  and  C_2
REMARK    2  A    between atoms: C_5  and  C_6
REMARK    3  A    between atoms: C_6  and  C_7
REMARK    4  A    between atoms: C_9  and  C_10
REMARK                            x       y       z     vdW  Elec       q    Type
REMARK                         _______ _______ _______ _____ _____    ______ ____
ROOT
ATOM      1  C   UNL     1       7.726   6.816  18.091  0.00  0.00    +0.000 A 
ATOM      2  N   UNL     1       8.514   7.624  18.766  0.00  0.00    +0.000 NA
ATOM      3  C   UNL     1       8.283   8.830  18.151  0.00  0.00    +0.000 A 
ATOM      4  N   UNL     1       7.426   8.782  17.121  0.00  0.00    +0.000 NA
ATOM      5  O   UNL     1       7.052   7.437  17.078  0.00  0.00    +0.000 OA
ENDROOT
BRANCH   3   6
ATOM      6  C   UNL     1       8.865  10.062  18.686  0.00  0.00    +0.000 A 
ATOM      7  C   UNL     1       9.033  11.242  17.897  0.00  0.00    +0.000 A 
ATOM      8  C   UNL     1       9.637  12.260  18.605  0.00  0.00    +0.000 A 
ATOM      9  S   UNL     1       9.997  11.797  20.212  0.00  0.00    +0.000 S 
ATOM     10  C   UNL     1       9.348  10.232  19.967  0.00  0.00    +0.000 A 
ENDBRANCH   3   6
BRANCH   1  11
ATOM     11  C   UNL     1       7.343   5.413  18.383  0.00  0.00    +0.000 C 
BRANCH  11  16
ATOM     12  C   UNL     1       1.716   4.022  17.788  0.00  0.00    +0.000 C 
ATOM     13  C   UNL     1       3.160   4.409  17.916  0.00  0.00    +0.000 A 
ATOM     14  C   UNL     1       4.091   4.057  16.934  0.00  0.00    +0.000 A 
ATOM     15  C   UNL     1       5.436   4.405  17.077  0.00  0.00    +0.000 A 
ATOM     16  C   UNL     1       5.878   5.102  18.208  0.00  0.00    +0.000 A 
ATOM     17  C   UNL     1       4.941   5.473  19.181  0.00  0.00    +0.000 A 
ATOM     18  C   UNL     1       3.597   5.127  19.038  0.00  0.00    +0.000 A 
ENDBRANCH  11  16
ENDBRANCH   1  11
TORSDOF 3
ENDMDL
MODEL 4
REMARK VINA RESULT:      -6.7      4.265      5.365
REMARK  Name = 
REMARK  4 active torsions:
REMARK  status: ('A' for Active; 'I' for Inactive)
REMARK    1  A    between atoms: C_1  and  C_2
REMARK    2  A    between atoms: C_5  and  C_6
REMARK    3  A    between atoms: C_6  and  C_7
REMARK    4  A    between atoms: C_9  and  C_10
REMARK                            x       y       z     vdW  Elec       q    Type
REMARK                         _______ _______ _______ _____ _____    ______ ____
ROOT
ATOM      1  C   UNL     1       6.843   6.841  17.162  0.00  0.00    +0.000 A 
ATOM      2  N   UNL     1       7.009   8.145  17.141  0.00  0.00    +0.000 NA
ATOM      3  C   UNL     1       7.977   8.326  18.098  0.00  0.00    +0.000 A 
ATOM      4  N   UNL     1       8.375   7.205  18.716  0.00  0.00    +0.000 NA
ATOM      5  O   UNL     1       7.619   6.211  18.093  0.00  0.00    +0.000 OA
ENDROOT
BRANCH   3   6
ATOM      6  C   UNL     1       8.576   9.645  18.310  0.00  0.00    +0.000 A 
ATOM      7  C   UNL     1       9.447   9.929  19.407  0.00  0.00    +0.000 A 
ATOM      8  C   UNL     1       9.855  11.247  19.420  0.00  0.00    +0.000 A 
ATOM      9  S   UNL     1       9.191  12.137  18.117  0.00  0.00    +0.000 S 
ATOM     10  C   UNL     1       8.356  10.762  17.531  0.00  0.00    +0.000 A 
ENDBRANCH   3   6
BRANCH   1  11
ATOM     11  C   UNL     1       6.092   5.971  16.223  0.00  0.00    +0.000 C 
BRANCH  11  16
ATOM     12  C   UNL     1       1.247   3.695  18.527  0.00  0.00    +0.000 C 
ATOM     13  C   UNL     1       2.478   4.280  17.899  0.00  0.00    +0.000 A 
ATOM     14  C   UNL     1       3.389   3.473  17.209  0.00  0.00    +0.000 A 
ATOM     15  C   UNL     1       4.541   4.028  16.648  0.00  0.00    +0.000 A 
ATOM     16  C   UNL     1       4.811   5.396  16.774  0.00  0.00    +0.000 A 
ATOM     17  C   UNL     1       3.888   6.207  17.447  0.00  0.00    +0.000 A 
ATOM     18  C   UNL     1       2.735   5.654  18.006  0.00  0.00    +0.000 A 
ENDBRANCH  11  16
ENDBRANCH   1  11
TORSDOF 3
ENDMDL
MODEL 5
REMARK VINA RESULT:      -6.7      4.401      5.625
REMARK  Name = 
REMARK  4 active torsions:
REMARK  status: ('A' for Active; 'I' for Inactive)
REMARK    1  A    between atoms: C_1  and  C_2
REMARK    2  A    between atoms: C_5  and  C_6
REMARK    3  A    between atoms: C_6  and  C_7
REMARK    4  A    between atoms: C_9  and  C_10
REMARK                            x       y       z     vdW  Elec       q    Type
REMARK                         _______ _______ _______ _____ _____    ______ ____
ROOT
ATOM      1  C   UNL     1       7.081   6.960  17.300  0.00  0.00    +0.000 A 
ATOM      2  N   UNL     1       7.215   8.265  17.220  0.00  0.00    +0.000 NA
ATOM      3  C   UNL     1       8.123   8.521  18.217  0.00  0.00    +0.000 A 
ATOM      4  N   UNL     1       8.513   7.445  18.915  0.00  0.00    +0.000 NA
ATOM      5  O   UNL     1       7.818   6.399  18.304  0.00  0.00    +0.000 OA
ENDROOT
BRANCH   3   6
ATOM      6  C   UNL     1       8.677   9.866  18.393  0.00  0.00    +0.000 A 
ATOM      7  C   UNL     1       9.553  10.204  19.470  0.00  0.00    +0.000 A 
ATOM      8  C   UNL     1       9.912  11.535  19.449  0.00  0.00    +0.000 A 
ATOM      9  S   UNL     1       9.197  12.373  18.139  0.00  0.00    +0.000 S 
ATOM     10  C   UNL     1       8.404  10.956  17.594  0.00  0.00    +0.000 A 
ENDBRANCH   3   6
BRANCH   1  11
ATOM     11  C   UNL     1       6.405   6.023  16.368  0.00  0.00    +0.000 C 
BRANCH  11  16
ATOM     12  C   UNL     1       1.330   3.806  18.184  0.00  0.00    +0.000 C 
ATOM     13  C   UNL     1       2.651   4.374  17.752  0.00  0.00    +0.000 A 
ATOM     14  C   UNL     1       2.981   5.709  18.010  0.00  0.00    +0.000 A 
ATOM     15  C   UNL     1       4.204   6.230  17.583  0.00  0.00    +0.000 A 
ATOM     16  C   UNL     1       5.116   5.431  16.883  0.00  0.00    +0.000 A 
ATOM     17  C   UNL     1       4.794   4.089  16.644  0.00  0.00    +0.000 A 
ATOM     18  C   UNL     1       3.573   3.567  17.071  0.00  0.00    +0.000 A 
ENDBRANCH  11  16
ENDBRANCH   1  11
TORSDOF 3
ENDMDL
MODEL 6
REMARK VINA RESULT:      -6.7      0.228      1.157
REMARK  Name = 
REMARK  4 active torsions:
REMARK  status: ('A' for Active; 'I' for Inactive)
REMARK    1  A    between atoms: C_1  and  C_2
REMARK    2  A    between atoms: C_5  and  C_6
REMARK    3  A    between atoms: C_6  and  C_7
REMARK    4  A    between atoms: C_9  and  C_10
REMARK                            x       y       z     vdW  Elec       q    Type
REMARK                         _______ _______ _______ _____ _____    ______ ____
ROOT
ATOM      1  C   UNL     1       6.526   5.271  17.478  0.00  0.00    +0.000 A 
ATOM      2  N   UNL     1       6.003   4.610  16.469  0.00  0.00    +0.000 NA
ATOM      3  C   UNL     1       6.712   5.107  15.403  0.00  0.00    +0.000 A 
ATOM      4  N   UNL     1       7.606   6.056  15.714  0.00  0.00    +0.000 NA
ATOM      5  O   UNL     1       7.484   6.168  17.100  0.00  0.00    +0.000 OA
ENDROOT
BRANCH   3   6
ATOM      6  C   UNL     1       6.546   4.533  14.066  0.00  0.00    +0.000 A 
ATOM      7  C   UNL     1       7.507   4.714  13.024  0.00  0.00    +0.000 A 
ATOM      8  C   UNL     1       7.116   4.115  11.846  0.00  0.00    +0.000 A 
ATOM      9  S   UNL     1       5.599   3.336  11.994  0.00  0.00    +0.000 S 
ATOM     10  C   UNL     1       5.460   3.799  13.637  0.00  0.00    +0.000 A 
ENDBRANCH   3   6
BRANCH   1  11
ATOM     11  C   UNL     1       6.354   5.055  18.936  0.00  0.00    +0.000 C 
BRANCH  11  16
ATOM     12  C   UNL     1       0.963   3.362  20.360  0.00  0.00    +0.000 C 
ATOM     13  C   UNL     1       2.358   3.807  20.031  0.00  0.00    +0.000 A 
ATOM     14  C   UNL     1       2.667   5.164  19.892  0.00  0.00    +0.000 A 
ATOM     15  C   UNL     1       3.965   5.564  19.563  0.00  0.00    +0.000 A 
ATOM     16  C   UNL     1       4.974   4.616  19.357  0.00  0.00    +0.000 A 
ATOM     17  C   UNL     1       4.668   3.258  19.517  0.00  0.00    +0.000 A 
ATOM     18  C   UNL     1       3.373   2.859  19.847  0.00  0.00    +0.000 A 
ENDBRANCH  11  16
ENDBRANCH   1  11
TORSDOF 3
ENDMDL
MODEL 7
REMARK VINA RESULT:      -6.7      0.616      1.504
REMARK  Name = 
REMARK  4 active torsions:
REMARK  status: ('A' for Active; 'I' for Inactive)
REMARK    1  A    between atoms: C_1  and  C_2
REMARK    2  A    between atoms: C_5  and  C_6
REMARK    3  A    between atoms: C_6  and  C_7
REMARK    4  A    between atoms: C_9  and  C_10
REMARK                            x       y       z     vdW  Elec       q    Type
REMARK                         _______ _______ _______ _____ _____    ______ ____
ROOT
ATOM      1  C   UNL     1       6.358   5.466  17.773  0.00  0.00    +0.000 A 
ATOM      2  N   UNL     1       5.918   4.833  16.708  0.00  0.00    +0.000 NA
ATOM      3  C   UNL     1       6.730   5.335  15.721  0.00  0.00    +0.000 A 
ATOM      4  N   UNL     1       7.608   6.261  16.130  0.00  0.00    +0.000 NA
ATOM      5  O   UNL     1       7.362   6.352  17.501  0.00  0.00    +0.000 OA
ENDROOT
BRANCH   3   6
ATOM      6  C   UNL     1       6.678   4.787  14.363  0.00  0.00    +0.000 A 
ATOM      7  C   UNL     1       5.676   3.858  13.945  0.00  0.00    +0.000 A 
ATOM      8  C   UNL     1       5.854   3.455  12.638  0.00  0.00    +0.000 A 
ATOM      9  S   UNL     1       7.220   4.194  11.919  0.00  0.00    +0.000 S 
ATOM     10  C   UNL     1       7.579   5.055  13.354  0.00  0.00    +0.000 A 
ENDBRANCH   3   6
BRANCH   1  11
ATOM     11  C   UNL     1       6.050   5.228  19.205  0.00  0.00    +0.000 C 
BRANCH  11  16
ATOM     12  C   UNL     1       0.688   3.108  20.051  0.00  0.00    +0.000 C 
ATOM     13  C   UNL     1       2.069   3.666  19.870  0.00  0.00    +0.000 A 
ATOM     14  C   UNL     1       2.275   5.037  19.687  0.00  0.00    +0.000 A 
ATOM     15  C   UNL     1       3.564   5.540  19.498  0.00  0.00    +0.000 A 
ATOM     16  C   UNL     1       4.670   4.682  19.477  0.00  0.00    +0.000 A 
ATOM     17  C   UNL     1       4.465   3.311  19.681  0.00  0.00    +0.000 A 
ATOM     18  C   UNL     1       3.178   2.809  19.873  0.00  0.00    +0.000 A 
ENDBRANCH  11  16
ENDBRANCH   1  11
TORSDOF 3
ENDMDL
MODEL 8
REMARK VINA RESULT:      -6.6      1.495      2.100
REMARK  Name = 
REMARK  4 active torsions:
REMARK  status: ('A' for Active; 'I' for Inactive)
REMARK    1  A    between atoms: C_1  and  C_2
REMARK    2  A    between atoms: C_5  and  C_6
REMARK    3  A    between atoms: C_6  and  C_7
REMARK    4  A    between atoms: C_9  and  C_10
REMARK                            x       y       z     vdW  Elec       q    Type
REMARK                         _______ _______ _______ _____ _____    ______ ____
ROOT
ATOM      1  C   UNL     1       5.972   5.498  16.104  0.00  0.00    +0.000 A 
ATOM      2  N   UNL     1       5.419   4.788  15.146  0.00  0.00    +0.000 NA
ATOM      3  C   UNL     1       6.447   4.678  14.242  0.00  0.00    +0.000 A 
ATOM      4  N   UNL     1       7.574   5.315  14.589  0.00  0.00    +0.000 NA
ATOM      5  O   UNL     1       7.260   5.865  15.834  0.00  0.00    +0.000 OA
ENDROOT
BRANCH   3   6
ATOM      6  C   UNL     1       6.309   3.828  13.057  0.00  0.00    +0.000 A 
ATOM      7  C   UNL     1       5.043   3.358  12.589  0.00  0.00    +0.000 A 
ATOM      8  C   UNL     1       5.168   2.544  11.483  0.00  0.00    +0.000 A 
ATOM      9  S   UNL     1       6.801   2.347  11.012  0.00  0.00    +0.000 S 
ATOM     10  C   UNL     1       7.348   3.351  12.287  0.00  0.00    +0.000 A 
ENDBRANCH   3   6
BRANCH   1  11
ATOM     11  C   UNL     1       5.469   5.793  17.469  0.00  0.00    +0.000 C 
BRANCH  11  16
ATOM     12  C   UNL     1       0.843   2.566  18.933  0.00  0.00    +0.000 C 
ATOM     13  C   UNL     1       2.031   3.416  18.590  0.00  0.00    +0.000 A 
ATOM     14  C   UNL     1       1.870   4.724  18.120  0.00  0.00    +0.000 A 
ATOM     15  C   UNL     1       2.985   5.496  17.783  0.00  0.00    +0.000 A 
ATOM     16  C   UNL     1       4.278   4.974  17.900  0.00  0.00    +0.000 A 
ATOM     17  C   UNL     1       4.439   3.671  18.391  0.00  0.00    +0.000 A 
ATOM     18  C   UNL     1       3.327   2.900  18.729  0.00  0.00    +0.000 A 
ENDBRANCH  11  16
ENDBRANCH   1  11
TORSDOF 3
ENDMDL
MODEL 9
REMARK VINA RESULT:      -6.6      1.416      1.743
REMARK  Name = 
REMARK  4 active torsions:
REMARK  status: ('A' for Active; 'I' for Inactive)
REMARK    1  A    between atoms: C_1  and  C_2
REMARK    2  A    between atoms: C_5  and  C_6
REMARK    3  A    between atoms: C_6  and  C_7
REMARK    4  A    between atoms: C_9  and  C_10
REMARK                            x       y       z     vdW  Elec       q    Type
REMARK                         _______ _______ _______ _____ _____    ______ ____
ROOT
ATOM      1  C   UNL     1       6.222   5.409  16.046  0.00  0.00    +0.000 A 
ATOM      2  N   UNL     1       5.535   4.696  15.181  0.00  0.00    +0.000 NA
ATOM      3  C   UNL     1       6.421   4.580  14.138  0.00  0.00    +0.000 A 
ATOM      4  N   UNL     1       7.587   5.215  14.316  0.00  0.00    +0.000 NA
ATOM      5  O   UNL     1       7.458   5.771  15.590  0.00  0.00    +0.000 OA
ENDROOT
BRANCH   3   6
ATOM      6  C   UNL     1       6.112   3.724  12.990  0.00  0.00    +0.000 A 
ATOM      7  C   UNL     1       4.801   3.630  12.430  0.00  0.00    +0.000 A 
ATOM      8  C   UNL     1       4.746   2.735  11.383  0.00  0.00    +0.000 A 
ATOM      9  S   UNL     1       6.266   2.011  11.077  0.00  0.00    +0.000 S 
ATOM     10  C   UNL     1       7.004   2.894  12.345  0.00  0.00    +0.000 A 
ENDBRANCH   3   6
BRANCH   1  11
ATOM     11  C   UNL     1       5.922   5.711  17.468  0.00  0.00    +0.000 C 
BRANCH  11  16
ATOM     12  C   UNL     1       1.078   3.371  19.709  0.00  0.00    +0.000 C 
ATOM     13  C   UNL     1       2.324   3.948  19.103  0.00  0.00    +0.000 A 
ATOM     14  C   UNL     1       3.562   3.315  19.259  0.00  0.00    +0.000 A 
ATOM     15  C   UNL     1       4.716   3.875  18.707  0.00  0.00    +0.000 A 
ATOM     16  C   UNL     1       4.659   5.082  18.000  0.00  0.00    +0.000 A 
ATOM     17  C   UNL     1       3.415   5.704  17.826  0.00  0.00    +0.000 A 
ATOM     18  C   UNL     1       2.261   5.144  18.374  0.00  0.00    +0.000 A 
ENDBRANCH  11  16
ENDBRANCH   1  11
TORSDOF 3
ENDMDL
