MODEL 1
REMARK VINA RESULT:      -8.0      0.000      0.000
REMARK  Name = 
REMARK  8 active torsions:
REMARK  status: ('A' for Active; 'I' for Inactive)
REMARK    1  A    between atoms: C_2  and  C_5
REMARK    2  A    between atoms: N_3  and  O_4
REMARK    3  A    between atoms: C_8  and  C_9
REMARK    4  A    between atoms: N_12  and  C_13
REMARK    5  A    between atoms: C_13  and  C_14
REMARK    6  A    between atoms: C_14  and  N_15
REMARK    7  A    between atoms: N_15  and  C_16
REMARK    8  A    between atoms: C_16  and  C_17
REMARK                            x       y       z     vdW  Elec       q    Type
REMARK                         _______ _______ _______ _____ _____    ______ ____
ROOT
ATOM      1  C   UNL     1       0.914   9.425  19.698  0.00  0.00    +0.000 A 
ATOM      2  C   UNL     1       0.781   9.940  18.387  0.00  0.00    +0.000 A 
ATOM      3  C   UNL     1       1.652   9.184  17.616  0.00  0.00    +0.000 A 
ATOM      4  N   UNL     1       2.208   8.288  18.480  0.00  0.00    +0.000 N 
ATOM      5  N   UNL     1       1.804   8.425  19.742  0.00  0.00    +0.000 NA
ENDROOT
BRANCH   1   9
ATOM      6  C   UNL     1      -1.189  11.149  22.574  0.00  0.00    +0.000 A 
ATOM      7  C   UNL     1      -0.595  10.013  23.096  0.00  0.00    +0.000 A 
ATOM      8  C   UNL     1       0.180   9.305  22.129  0.00  0.00    +0.000 A 
ATOM      9  C   UNL     1       0.175   9.926  20.903  0.00  0.00    +0.000 A 
ATOM     10  S   UNL     1      -0.781  11.343  20.920  0.00  0.00    +0.000 S 
BRANCH   6  12
ATOM     11  O   UNL     1      -3.169  11.787  23.709  0.00  0.00    +0.000 OA
ATOM     12  C   UNL     1      -2.058  12.087  23.272  0.00  0.00    +0.000 C 
ATOM     13  N   UNL     1      -1.592  13.369  23.417  0.00  0.00    +0.000 N 
ATOM     14  H   UNL     1      -0.792  13.709  22.873  0.00  0.00    +0.000 HD
BRANCH  13  15
ATOM     15  O   UNL     1      -2.463  14.342  23.931  0.00  0.00    +0.000 OA
ATOM     16  H   UNL     1      -2.121  14.447  24.864  0.00  0.00    +0.000 HD
ENDBRANCH  13  15
ENDBRANCH   6  12
ENDBRANCH   1   9
BRANCH   4  17
ATOM     17  C   UNL     1       3.055   7.173  18.069  0.00  0.00    +0.000 C 
BRANCH  17  18
ATOM     18  C   UNL     1       2.571   5.810  18.577  0.00  0.00    +0.000 C 
BRANCH  18  19
ATOM     19  N   UNL     1       3.386   5.243  19.662  0.00  0.00    +0.000 NA
ATOM     20  H   UNL     1       2.843   5.183  20.524  0.00  0.00    +0.000 HD
BRANCH  19  21
ATOM     21  C   UNL     1       3.947   3.934  19.339  0.00  0.00    +0.000 C 
BRANCH  21  22
ATOM     22  C   UNL     1       5.043   4.078  18.317  0.00  0.00    +0.000 A 
ATOM     23  C   UNL     1       6.222   4.722  18.692  0.00  0.00    +0.000 A 
ATOM     24  C   UNL     1       7.276   4.790  17.799  0.00  0.00    +0.000 A 
ATOM     25  C   UNL     1       6.936   4.732  16.454  0.00  0.00    +0.000 A 
ATOM     26  N   UNL     1       7.531   5.297  15.352  0.00  0.00    +0.000 N 
ATOM     27  C   UNL     1       6.838   4.944  14.225  0.00  0.00    +0.000 A 
ATOM     28  C   UNL     1       5.825   4.088  14.606  0.00  0.00    +0.000 A 
ATOM     29  C   UNL     1       5.782   4.085  16.025  0.00  0.00    +0.000 A 
ATOM     30  C   UNL     1       4.885   3.608  16.998  0.00  0.00    +0.000 A 
ATOM     31  H   UNL     1       8.258   5.999  15.396  0.00  0.00    +0.000 HD
ENDBRANCH  21  22
ENDBRANCH  19  21
ENDBRANCH  18  19
ENDBRANCH  17  18
ENDBRANCH   4  17
TORSDOF 8
ENDMDL
MODEL 2
REMARK VINA RESULT:      -7.7      5.834     10.708
REMARK  Name = 
REMARK  8 active torsions:
REMARK  status: ('A' for Active; 'I' for Inactive)
REMARK    1  A    between atoms: C_2  and  C_5
REMARK    2  A    between atoms: N_3  and  O_4
REMARK    3  A    between atoms: C_8  and  C_9
REMARK    4  A    between atoms: N_12  and  C_13
REMARK    5  A    between atoms: C_13  and  C_14
REMARK    6  A    between atoms: C_14  and  N_15
REMARK    7  A    between atoms: N_15  and  C_16
REMARK    8  A    between atoms: C_16  and  C_17
REMARK                            x       y       z     vdW  Elec       q    Type
REMARK                         _______ _______ _______ _____ _____    ______ ____
ROOT
ATOM      1  C   UNL     1       3.520   6.050  18.096  0.00  0.00    +0.000 A 
ATOM      2  C   UNL     1       2.969   5.410  19.232  0.00  0.00    +0.000 A 
ATOM      3  C   UNL     1       2.249   6.400  19.885  0.00  0.00    +0.000 A 
ATOM      4  N   UNL     1       2.392   7.514  19.113  0.00  0.00    +0.000 N 
ATOM      5  N   UNL     1       3.171   7.343  18.047  0.00  0.00    +0.000 NA
ENDROOT
BRANCH   1   9
ATOM      6  C   UNL     1       5.927   4.801  15.214  0.00  0.00    +0.000 A 
ATOM      7  C   UNL     1       5.442   3.690  15.882  0.00  0.00    +0.000 A 
ATOM      8  C   UNL     1       4.570   4.033  16.958  0.00  0.00    +0.000 A 
ATOM      9  C   UNL     1       4.395   5.392  17.071  0.00  0.00    +0.000 A 
ATOM     10  S   UNL     1       5.300   6.243  15.896  0.00  0.00    +0.000 S 
BRANCH   6  12
ATOM     11  O   UNL     1       6.750   4.063  13.118  0.00  0.00    +0.000 OA
ATOM     12  C   UNL     1       6.850   4.816  14.087  0.00  0.00    +0.000 C 
ATOM     13  N   UNL     1       7.884   5.715  14.147  0.00  0.00    +0.000 N 
ATOM     14  H   UNL     1       8.129   6.186  15.024  0.00  0.00    +0.000 HD
BRANCH  13  15
ATOM     15  O   UNL     1       8.886   5.647  13.167  0.00  0.00    +0.000 OA
ATOM     16  H   UNL     1       8.350   5.702  12.326  0.00  0.00    +0.000 HD
ENDBRANCH  13  15
ENDBRANCH   6  12
ENDBRANCH   1   9
BRANCH   4  17
ATOM     17  C   UNL     1       1.654   8.755  19.325  0.00  0.00    +0.000 C 
BRANCH  17  18
ATOM     18  C   UNL     1       1.917   9.820  18.254  0.00  0.00    +0.000 C 
BRANCH  18  19
ATOM     19  N   UNL     1       0.742  10.632  17.903  0.00  0.00    +0.000 NA
ATOM     20  H   UNL     1       0.279  10.253  17.077  0.00  0.00    +0.000 HD
BRANCH  19  21
ATOM     21  C   UNL     1      -0.219  10.759  18.995  0.00  0.00    +0.000 C 
BRANCH  21  22
ATOM     22  C   UNL     1      -1.624  10.689  18.459  0.00  0.00    +0.000 A 
ATOM     23  C   UNL     1      -1.856   9.967  17.289  0.00  0.00    +0.000 A 
ATOM     24  C   UNL     1      -3.150   9.815  16.824  0.00  0.00    +0.000 A 
ATOM     25  C   UNL     1      -4.047  10.809  17.192  0.00  0.00    +0.000 A 
ATOM     26  N   UNL     1      -5.146  11.312  16.541  0.00  0.00    +0.000 N 
ATOM     27  C   UNL     1      -5.731  12.283  17.311  0.00  0.00    +0.000 A 
ATOM     28  C   UNL     1      -5.033  12.354  18.498  0.00  0.00    +0.000 A 
ATOM     29  C   UNL     1      -3.874  11.546  18.359  0.00  0.00    +0.000 A 
ATOM     30  C   UNL     1      -2.688  11.361  19.094  0.00  0.00    +0.000 A 
ATOM     31  H   UNL     1      -5.375  11.114  15.575  0.00  0.00    +0.000 HD
ENDBRANCH  21  22
ENDBRANCH  19  21
ENDBRANCH  18  19
ENDBRANCH  17  18
ENDBRANCH   4  17
TORSDOF 8
ENDMDL
MODEL 3
REMARK VINA RESULT:      -7.7      3.256      4.520
REMARK  Name = 
REMARK  8 active torsions:
REMARK  status: ('A' for Active; 'I' for Inactive)
REMARK    1  A    between atoms: C_2  and  C_5
REMARK    2  A    between atoms: N_3  and  O_4
REMARK    3  A    between atoms: C_8  and  C_9
REMARK    4  A    between atoms: N_12  and  C_13
REMARK    5  A    between atoms: C_13  and  C_14
REMARK    6  A    between atoms: C_14  and  N_15
REMARK    7  A    between atoms: N_15  and  C_16
REMARK    8  A    between atoms: C_16  and  C_17
REMARK                            x       y       z     vdW  Elec       q    Type
REMARK                         _______ _______ _______ _____ _____    ______ ____
ROOT
ATOM      1  C   UNL     1       2.013   5.730  19.984  0.00  0.00    +0.000 A 
ATOM      2  C   UNL     1       2.371   5.434  21.320  0.00  0.00    +0.000 A 
ATOM      3  C   UNL     1       2.247   4.057  21.426  0.00  0.00    +0.000 A 
ATOM      4  N   UNL     1       1.862   3.636  20.189  0.00  0.00    +0.000 N 
ATOM      5  N   UNL     1       1.688   4.619  19.308  0.00  0.00    +0.000 NA
ENDROOT
BRANCH   1   9
ATOM      6  C   UNL     1       1.696   9.504  18.837  0.00  0.00    +0.000 A 
ATOM      7  C   UNL     1       2.273   8.787  17.803  0.00  0.00    +0.000 A 
ATOM      8  C   UNL     1       2.447   7.407  18.123  0.00  0.00    +0.000 A 
ATOM      9  C   UNL     1       1.982   7.102  19.380  0.00  0.00    +0.000 A 
ATOM     10  S   UNL     1       1.361   8.484  20.173  0.00  0.00    +0.000 S 
BRANCH   6  12
ATOM     11  O   UNL     1       0.635  11.451  19.673  0.00  0.00    +0.000 OA
ATOM     12  C   UNL     1       1.396  10.930  18.858  0.00  0.00    +0.000 C 
ATOM     13  N   UNL     1       1.993  11.701  17.893  0.00  0.00    +0.000 N 
ATOM     14  H   UNL     1       2.437  11.277  17.073  0.00  0.00    +0.000 HD
BRANCH  13  15
ATOM     15  O   UNL     1       1.601  13.043  17.774  0.00  0.00    +0.000 OA
ATOM     16  H   UNL     1       0.644  12.951  17.502  0.00  0.00    +0.000 HD
ENDBRANCH  13  15
ENDBRANCH   6  12
ENDBRANCH   1   9
BRANCH   4  17
ATOM     17  C   UNL     1       1.784   2.234  19.789  0.00  0.00    +0.000 C 
BRANCH  17  18
ATOM     18  C   UNL     1       1.364   2.031  18.329  0.00  0.00    +0.000 C 
BRANCH  18  19
ATOM     19  N   UNL     1       2.391   2.401  17.344  0.00  0.00    +0.000 NA
ATOM     20  H   UNL     1       2.226   3.343  16.990  0.00  0.00    +0.000 HD
BRANCH  19  21
ATOM     21  C   UNL     1       3.752   2.299  17.864  0.00  0.00    +0.000 C 
BRANCH  21  22
ATOM     22  C   UNL     1       4.464   3.617  17.713  0.00  0.00    +0.000 A 
ATOM     23  C   UNL     1       4.403   4.270  16.483  0.00  0.00    +0.000 A 
ATOM     24  C   UNL     1       4.975   5.522  16.345  0.00  0.00    +0.000 A 
ATOM     25  C   UNL     1       6.022   5.809  17.211  0.00  0.00    +0.000 A 
ATOM     26  N   UNL     1       7.131   6.602  17.046  0.00  0.00    +0.000 N 
ATOM     27  C   UNL     1       7.879   6.587  18.194  0.00  0.00    +0.000 A 
ATOM     28  C   UNL     1       7.204   5.828  19.126  0.00  0.00    +0.000 A 
ATOM     29  C   UNL     1       6.119   5.201  18.458  0.00  0.00    +0.000 A 
ATOM     30  C   UNL     1       5.207   4.176  18.772  0.00  0.00    +0.000 A 
ATOM     31  H   UNL     1       7.427   6.987  16.159  0.00  0.00    +0.000 HD
ENDBRANCH  21  22
ENDBRANCH  19  21
ENDBRANCH  18  19
ENDBRANCH  17  18
ENDBRANCH   4  17
TORSDOF 8
ENDMDL
MODEL 4
REMARK VINA RESULT:      -7.7      2.846      4.453
REMARK  Name = 
REMARK  8 active torsions:
REMARK  status: ('A' for Active; 'I' for Inactive)
REMARK    1  A    between atoms: C_2  and  C_5
REMARK    2  A    between atoms: N_3  and  O_4
REMARK    3  A    between atoms: C_8  and  C_9
REMARK    4  A    between atoms: N_12  and  C_13
REMARK    5  A    between atoms: C_13  and  C_14
REMARK    6  A    between atoms: C_14  and  N_15
REMARK    7  A    between atoms: N_15  and  C_16
REMARK    8  A    between atoms: C_16  and  C_17
REMARK                            x       y       z     vdW  Elec       q    Type
REMARK                         _______ _______ _______ _____ _____    ______ ____
ROOT
ATOM      1  C   UNL     1       2.034   5.305  19.935  0.00  0.00    +0.000 A 
ATOM      2  C   UNL     1       2.278   4.823  21.243  0.00  0.00    +0.000 A 
ATOM      3  C   UNL     1       2.289   3.442  21.118  0.00  0.00    +0.000 A 
ATOM      4  N   UNL     1       2.082   3.201  19.793  0.00  0.00    +0.000 N 
ATOM      5  N   UNL     1       1.899   4.298  19.061  0.00  0.00    +0.000 NA
ENDROOT
BRANCH   1   9
ATOM      6  C   UNL     1       1.566   9.200  19.416  0.00  0.00    +0.000 A 
ATOM      7  C   UNL     1       2.001   8.656  18.221  0.00  0.00    +0.000 A 
ATOM      8  C   UNL     1       2.216   7.248  18.305  0.00  0.00    +0.000 A 
ATOM      9  C   UNL     1       1.922   6.751  19.552  0.00  0.00    +0.000 A 
ATOM     10  S   UNL     1       1.410   7.987  20.617  0.00  0.00    +0.000 S 
BRANCH   6  12
ATOM     11  O   UNL     1       1.350  11.489  18.840  0.00  0.00    +0.000 OA
ATOM     12  C   UNL     1       1.270  10.601  19.689  0.00  0.00    +0.000 C 
ATOM     13  N   UNL     1       0.903  10.916  20.973  0.00  0.00    +0.000 N 
ATOM     14  H   UNL     1       1.048  10.257  21.744  0.00  0.00    +0.000 HD
BRANCH  13  15
ATOM     15  O   UNL     1       0.773  12.270  21.317  0.00  0.00    +0.000 OA
ATOM     16  H   UNL     1      -0.074  12.264  21.846  0.00  0.00    +0.000 HD
ENDBRANCH  13  15
ENDBRANCH   6  12
ENDBRANCH   1   9
BRANCH   4  17
ATOM     17  C   UNL     1       2.194   1.883  19.174  0.00  0.00    +0.000 C 
BRANCH  17  18
ATOM     18  C   UNL     1       3.007   1.880  17.874  0.00  0.00    +0.000 C 
BRANCH  18  19
ATOM     19  N   UNL     1       4.313   2.548  17.972  0.00  0.00    +0.000 NA
ATOM     20  H   UNL     1       5.034   1.887  18.262  0.00  0.00    +0.000 HD
BRANCH  19  21
ATOM     21  C   UNL     1       4.718   3.210  16.735  0.00  0.00    +0.000 C 
BRANCH  21  22
ATOM     22  C   UNL     1       5.233   4.593  17.032  0.00  0.00    +0.000 A 
ATOM     23  C   UNL     1       4.875   5.635  16.177  0.00  0.00    +0.000 A 
ATOM     24  C   UNL     1       5.264   6.929  16.477  0.00  0.00    +0.000 A 
ATOM     25  C   UNL     1       6.410   7.053  17.251  0.00  0.00    +0.000 A 
ATOM     26  N   UNL     1       7.372   8.033  17.279  0.00  0.00    +0.000 N 
ATOM     27  C   UNL     1       8.312   7.725  18.227  0.00  0.00    +0.000 A 
ATOM     28  C   UNL     1       7.909   6.567  18.858  0.00  0.00    +0.000 A 
ATOM     29  C   UNL     1       6.801   6.053  18.134  0.00  0.00    +0.000 A 
ATOM     30  C   UNL     1       6.086   4.840  18.126  0.00  0.00    +0.000 A 
ATOM     31  H   UNL     1       7.456   8.767  16.588  0.00  0.00    +0.000 HD
ENDBRANCH  21  22
ENDBRANCH  19  21
ENDBRANCH  18  19
ENDBRANCH  17  18
ENDBRANCH   4  17
TORSDOF 8
ENDMDL
MODEL 5
REMARK VINA RESULT:      -7.5      2.758      4.582
REMARK  Name = 
REMARK  8 active torsions:
REMARK  status: ('A' for Active; 'I' for Inactive)
REMARK    1  A    between atoms: C_2  and  C_5
REMARK    2  A    between atoms: N_3  and  O_4
REMARK    3  A    between atoms: C_8  and  C_9
REMARK    4  A    between atoms: N_12  and  C_13
REMARK    5  A    between atoms: C_13  and  C_14
REMARK    6  A    between atoms: C_14  and  N_15
REMARK    7  A    between atoms: N_15  and  C_16
REMARK    8  A    between atoms: C_16  and  C_17
REMARK                            x       y       z     vdW  Elec       q    Type
REMARK                         _______ _______ _______ _____ _____    ______ ____
ROOT
ATOM      1  C   UNL     1       1.749   8.771  18.511  0.00  0.00    +0.000 A 
ATOM      2  C   UNL     1       1.983   7.830  19.542  0.00  0.00    +0.000 A 
ATOM      3  C   UNL     1       2.904   6.940  19.011  0.00  0.00    +0.000 A 
ATOM      4  N   UNL     1       3.166   7.403  17.756  0.00  0.00    +0.000 N 
ATOM      5  N   UNL     1       2.469   8.486  17.417  0.00  0.00    +0.000 NA
ENDROOT
BRANCH   1   9
ATOM      6  C   UNL     1      -0.339  12.094  19.018  0.00  0.00    +0.000 A 
ATOM      7  C   UNL     1      -1.130  11.189  18.332  0.00  0.00    +0.000 A 
ATOM      8  C   UNL     1      -0.460   9.954  18.083  0.00  0.00    +0.000 A 
ATOM      9  C   UNL     1       0.813   9.939  18.601  0.00  0.00    +0.000 A 
ATOM     10  S   UNL     1       1.198  11.420  19.363  0.00  0.00    +0.000 S 
BRANCH   6  12
ATOM     11  O   UNL     1      -1.245  13.719  20.486  0.00  0.00    +0.000 OA
ATOM     12  C   UNL     1      -0.697  13.449  19.417  0.00  0.00    +0.000 C 
ATOM     13  N   UNL     1      -0.413  14.451  18.525  0.00  0.00    +0.000 N 
ATOM     14  H   UNL     1      -0.178  14.243  17.549  0.00  0.00    +0.000 HD
BRANCH  13  15
ATOM     15  O   UNL     1      -0.891  15.742  18.796  0.00  0.00    +0.000 OA
ATOM     16  H   UNL     1      -1.870  15.576  18.907  0.00  0.00    +0.000 HD
ENDBRANCH  13  15
ENDBRANCH   6  12
ENDBRANCH   1   9
BRANCH   4  17
ATOM     17  C   UNL     1       4.218   6.874  16.893  0.00  0.00    +0.000 C 
BRANCH  17  18
ATOM     18  C   UNL     1       5.542   6.615  17.622  0.00  0.00    +0.000 C 
BRANCH  18  19
ATOM     19  N   UNL     1       5.745   5.218  18.034  0.00  0.00    +0.000 NA
ATOM     20  H   UNL     1       5.488   5.092  19.014  0.00  0.00    +0.000 HD
BRANCH  19  21
ATOM     21  C   UNL     1       5.019   4.260  17.205  0.00  0.00    +0.000 C 
BRANCH  21  22
ATOM     22  C   UNL     1       3.892   3.644  17.991  0.00  0.00    +0.000 A 
ATOM     23  C   UNL     1       2.623   3.602  17.414  0.00  0.00    +0.000 A 
ATOM     24  C   UNL     1       1.591   2.963  18.079  0.00  0.00    +0.000 A 
ATOM     25  C   UNL     1       1.707   2.903  19.462  0.00  0.00    +0.000 A 
ATOM     26  N   UNL     1       0.747   2.894  20.443  0.00  0.00    +0.000 N 
ATOM     27  C   UNL     1       1.347   2.809  21.671  0.00  0.00    +0.000 A 
ATOM     28  C   UNL     1       2.707   2.695  21.467  0.00  0.00    +0.000 A 
ATOM     29  C   UNL     1       2.949   2.922  20.087  0.00  0.00    +0.000 A 
ATOM     30  C   UNL     1       4.090   3.147  19.295  0.00  0.00    +0.000 A 
ATOM     31  H   UNL     1      -0.232   3.095  20.282  0.00  0.00    +0.000 HD
ENDBRANCH  21  22
ENDBRANCH  19  21
ENDBRANCH  18  19
ENDBRANCH  17  18
ENDBRANCH   4  17
TORSDOF 8
ENDMDL
MODEL 6
REMARK VINA RESULT:      -7.5      5.427      9.648
REMARK  Name = 
REMARK  8 active torsions:
REMARK  status: ('A' for Active; 'I' for Inactive)
REMARK    1  A    between atoms: C_2  and  C_5
REMARK    2  A    between atoms: N_3  and  O_4
REMARK    3  A    between atoms: C_8  and  C_9
REMARK    4  A    between atoms: N_12  and  C_13
REMARK    5  A    between atoms: C_13  and  C_14
REMARK    6  A    between atoms: C_14  and  N_15
REMARK    7  A    between atoms: N_15  and  C_16
REMARK    8  A    between atoms: C_16  and  C_17
REMARK                            x       y       z     vdW  Elec       q    Type
REMARK                         _______ _______ _______ _____ _____    ______ ____
ROOT
ATOM      1  C   UNL     1       3.632   3.389  17.781  0.00  0.00    +0.000 A 
ATOM      2  C   UNL     1       2.629   2.450  17.443  0.00  0.00    +0.000 A 
ATOM      3  C   UNL     1       2.103   2.037  18.658  0.00  0.00    +0.000 A 
ATOM      4  N   UNL     1       2.783   2.747  19.602  0.00  0.00    +0.000 N 
ATOM      5  N   UNL     1       3.726   3.548  19.108  0.00  0.00    +0.000 NA
ENDROOT
BRANCH   1   9
ATOM      6  C   UNL     1       6.078   4.834  15.026  0.00  0.00    +0.000 A 
ATOM      7  C   UNL     1       5.517   5.901  15.705  0.00  0.00    +0.000 A 
ATOM      8  C   UNL     1       4.601   5.486  16.718  0.00  0.00    +0.000 A 
ATOM      9  C   UNL     1       4.501   4.117  16.800  0.00  0.00    +0.000 A 
ATOM     10  S   UNL     1       5.494   3.345  15.642  0.00  0.00    +0.000 S 
BRANCH   6  12
ATOM     11  O   UNL     1       8.023   5.625  13.927  0.00  0.00    +0.000 OA
ATOM     12  C   UNL     1       7.031   4.896  13.925  0.00  0.00    +0.000 C 
ATOM     13  N   UNL     1       6.772   4.100  12.838  0.00  0.00    +0.000 N 
ATOM     14  H   UNL     1       5.854   3.665  12.704  0.00  0.00    +0.000 HD
BRANCH  13  15
ATOM     15  O   UNL     1       7.569   4.254  11.693  0.00  0.00    +0.000 OA
ATOM     16  H   UNL     1       7.070   3.706  11.024  0.00  0.00    +0.000 HD
ENDBRANCH  13  15
ENDBRANCH   6  12
ENDBRANCH   1   9
BRANCH   4  17
ATOM     17  C   UNL     1       2.436   2.765  21.020  0.00  0.00    +0.000 C 
BRANCH  17  18
ATOM     18  C   UNL     1       2.261   4.176  21.595  0.00  0.00    +0.000 C 
BRANCH  18  19
ATOM     19  N   UNL     1       1.749   5.164  20.633  0.00  0.00    +0.000 NA
ATOM     20  H   UNL     1       0.907   5.612  20.993  0.00  0.00    +0.000 HD
BRANCH  19  21
ATOM     21  C   UNL     1       2.733   6.180  20.270  0.00  0.00    +0.000 C 
BRANCH  21  22
ATOM     22  C   UNL     1       2.038   7.445  19.841  0.00  0.00    +0.000 A 
ATOM     23  C   UNL     1       2.315   7.960  18.575  0.00  0.00    +0.000 A 
ATOM     24  C   UNL     1       1.624   9.070  18.123  0.00  0.00    +0.000 A 
ATOM     25  C   UNL     1       1.133   9.920  19.106  0.00  0.00    +0.000 A 
ATOM     26  N   UNL     1       0.934  11.279  19.099  0.00  0.00    +0.000 N 
ATOM     27  C   UNL     1       0.412  11.671  20.303  0.00  0.00    +0.000 A 
ATOM     28  C   UNL     1       0.215  10.538  21.065  0.00  0.00    +0.000 A 
ATOM     29  C   UNL     1       0.822   9.454  20.378  0.00  0.00    +0.000 A 
ATOM     30  C   UNL     1       1.148   8.123  20.698  0.00  0.00    +0.000 A 
ATOM     31  H   UNL     1       1.282  11.901  18.381  0.00  0.00    +0.000 HD
ENDBRANCH  21  22
ENDBRANCH  19  21
ENDBRANCH  18  19
ENDBRANCH  17  18
ENDBRANCH   4  17
TORSDOF 8
ENDMDL
MODEL 7
REMARK VINA RESULT:      -7.4      5.546     10.121
REMARK  Name = 
REMARK  8 active torsions:
REMARK  status: ('A' for Active; 'I' for Inactive)
REMARK    1  A    between atoms: C_2  and  C_5
REMARK    2  A    between atoms: N_3  and  O_4
REMARK    3  A    between atoms: C_8  and  C_9
REMARK    4  A    between atoms: N_12  and  C_13
REMARK    5  A    between atoms: C_13  and  C_14
REMARK    6  A    between atoms: C_14  and  N_15
REMARK    7  A    between atoms: N_15  and  C_16
REMARK    8  A    between atoms: C_16  and  C_17
REMARK                            x       y       z     vdW  Elec       q    Type
REMARK                         _______ _______ _______ _____ _____    ______ ____
ROOT
ATOM      1  C   UNL     1       3.144   5.333  18.411  0.00  0.00    +0.000 A 
ATOM      2  C   UNL     1       2.270   4.230  18.559  0.00  0.00    +0.000 A 
ATOM      3  C   UNL     1       1.548   4.498  19.712  0.00  0.00    +0.000 A 
ATOM      4  N   UNL     1       2.004   5.707  20.146  0.00  0.00    +0.000 N 
ATOM      5  N   UNL     1       2.980   6.221  19.401  0.00  0.00    +0.000 NA
ENDROOT
BRANCH   1   9
ATOM      6  C   UNL     1       5.765   5.260  15.447  0.00  0.00    +0.000 A 
ATOM      7  C   UNL     1       5.599   6.576  15.843  0.00  0.00    +0.000 A 
ATOM      8  C   UNL     1       4.656   6.715  16.904  0.00  0.00    +0.000 A 
ATOM      9  C   UNL     1       4.142   5.505  17.305  0.00  0.00    +0.000 A 
ATOM     10  S   UNL     1       4.782   4.214  16.384  0.00  0.00    +0.000 S 
BRANCH   6  12
ATOM     11  O   UNL     1       7.698   5.292  14.076  0.00  0.00    +0.000 OA
ATOM     12  C   UNL     1       6.630   4.764  14.384  0.00  0.00    +0.000 C 
ATOM     13  N   UNL     1       6.194   3.658  13.699  0.00  0.00    +0.000 N 
ATOM     14  H   UNL     1       5.223   3.338  13.769  0.00  0.00    +0.000 HD
BRANCH  13  15
ATOM     15  O   UNL     1       6.911   3.250  12.564  0.00  0.00    +0.000 OA
ATOM     16  H   UNL     1       7.853   3.289  12.895  0.00  0.00    +0.000 HD
ENDBRANCH  13  15
ENDBRANCH   6  12
ENDBRANCH   1   9
BRANCH   4  17
ATOM     17  C   UNL     1       1.399   6.466  21.237  0.00  0.00    +0.000 C 
BRANCH  17  18
ATOM     18  C   UNL     1       1.488   7.985  21.055  0.00  0.00    +0.000 C 
BRANCH  18  19
ATOM     19  N   UNL     1       0.189   8.656  20.901  0.00  0.00    +0.000 NA
ATOM     20  H   UNL     1      -0.470   8.330  21.609  0.00  0.00    +0.000 HD
BRANCH  19  21
ATOM     21  C   UNL     1       0.282  10.113  20.946  0.00  0.00    +0.000 C 
BRANCH  21  22
ATOM     22  C   UNL     1      -0.565  10.720  19.859  0.00  0.00    +0.000 A 
ATOM     23  C   UNL     1      -1.273  11.887  20.141  0.00  0.00    +0.000 A 
ATOM     24  C   UNL     1      -1.989  12.512  19.134  0.00  0.00    +0.000 A 
ATOM     25  C   UNL     1      -2.421  11.693  18.099  0.00  0.00    +0.000 A 
ATOM     26  N   UNL     1      -3.534  11.770  17.299  0.00  0.00    +0.000 N 
ATOM     27  C   UNL     1      -3.525  10.735  16.401  0.00  0.00    +0.000 A 
ATOM     28  C   UNL     1      -2.356  10.027  16.588  0.00  0.00    +0.000 A 
ATOM     29  C   UNL     1      -1.740  10.527  17.764  0.00  0.00    +0.000 A 
ATOM     30  C   UNL     1      -0.677  10.116  18.591  0.00  0.00    +0.000 A 
ATOM     31  H   UNL     1      -4.314  12.391  17.469  0.00  0.00    +0.000 HD
ENDBRANCH  21  22
ENDBRANCH  19  21
ENDBRANCH  18  19
ENDBRANCH  17  18
ENDBRANCH   4  17
TORSDOF 8
ENDMDL
MODEL 8
REMARK VINA RESULT:      -7.4      4.523     10.926
REMARK  Name = 
REMARK  8 active torsions:
REMARK  status: ('A' for Active; 'I' for Inactive)
REMARK    1  A    between atoms: C_2  and  C_5
REMARK    2  A    between atoms: N_3  and  O_4
REMARK    3  A    between atoms: C_8  and  C_9
REMARK    4  A    between atoms: N_12  and  C_13
REMARK    5  A    between atoms: C_13  and  C_14
REMARK    6  A    between atoms: C_14  and  N_15
REMARK    7  A    between atoms: N_15  and  C_16
REMARK    8  A    between atoms: C_16  and  C_17
REMARK                            x       y       z     vdW  Elec       q    Type
REMARK                         _______ _______ _______ _____ _____    ______ ____
ROOT
ATOM      1  C   UNL     1       2.026   8.050  18.869  0.00  0.00    +0.000 A 
ATOM      2  C   UNL     1       1.708   8.975  17.847  0.00  0.00    +0.000 A 
ATOM      3  C   UNL     1       1.039  10.004  18.493  0.00  0.00    +0.000 A 
ATOM      4  N   UNL     1       1.023   9.650  19.809  0.00  0.00    +0.000 N 
ATOM      5  N   UNL     1       1.584   8.470  20.063  0.00  0.00    +0.000 NA
ENDROOT
BRANCH   1   9
ATOM      6  C   UNL     1       3.638   4.438  18.727  0.00  0.00    +0.000 A 
ATOM      7  C   UNL     1       4.279   5.233  17.793  0.00  0.00    +0.000 A 
ATOM      8  C   UNL     1       3.758   6.561  17.752  0.00  0.00    +0.000 A 
ATOM      9  C   UNL     1       2.751   6.753  18.668  0.00  0.00    +0.000 A 
ATOM     10  S   UNL     1       2.426   5.326  19.552  0.00  0.00    +0.000 S 
BRANCH   6  12
ATOM     11  O   UNL     1       3.130   2.124  18.717  0.00  0.00    +0.000 OA
ATOM     12  C   UNL     1       3.901   3.035  19.017  0.00  0.00    +0.000 C 
ATOM     13  N   UNL     1       5.070   2.748  19.676  0.00  0.00    +0.000 N 
ATOM     14  H   UNL     1       5.613   3.484  20.139  0.00  0.00    +0.000 HD
BRANCH  13  15
ATOM     15  O   UNL     1       5.281   1.434  20.120  0.00  0.00    +0.000 OA
ATOM     16  H   UNL     1       6.042   1.555  20.756  0.00  0.00    +0.000 HD
ENDBRANCH  13  15
ENDBRANCH   6  12
ENDBRANCH   1   9
BRANCH   4  17
ATOM     17  C   UNL     1       0.574  10.527  20.886  0.00  0.00    +0.000 C 
BRANCH  17  18
ATOM     18  C   UNL     1       1.114  11.958  20.782  0.00  0.00    +0.000 C 
BRANCH  18  19
ATOM     19  N   UNL     1       0.494  12.911  21.715  0.00  0.00    +0.000 NA
ATOM     20  H   UNL     1       1.202  13.517  22.131  0.00  0.00    +0.000 HD
BRANCH  19  21
ATOM     21  C   UNL     1      -0.553  13.722  21.101  0.00  0.00    +0.000 C 
BRANCH  21  22
ATOM     22  C   UNL     1      -1.910  13.215  21.514  0.00  0.00    +0.000 A 
ATOM     23  C   UNL     1      -2.954  13.280  20.592  0.00  0.00    +0.000 A 
ATOM     24  C   UNL     1      -4.186  12.741  20.916  0.00  0.00    +0.000 A 
ATOM     25  C   UNL     1      -4.484  12.682  22.271  0.00  0.00    +0.000 A 
ATOM     26  N   UNL     1      -5.686  12.766  22.930  0.00  0.00    +0.000 N 
ATOM     27  C   UNL     1      -5.479  12.638  24.278  0.00  0.00    +0.000 A 
ATOM     28  C   UNL     1      -4.135  12.402  24.477  0.00  0.00    +0.000 A 
ATOM     29  C   UNL     1      -3.482  12.595  23.231  0.00  0.00    +0.000 A 
ATOM     30  C   UNL     1      -2.144  12.712  22.809  0.00  0.00    +0.000 A 
ATOM     31  H   UNL     1      -6.554  13.051  22.495  0.00  0.00    +0.000 HD
ENDBRANCH  21  22
ENDBRANCH  19  21
ENDBRANCH  18  19
ENDBRANCH  17  18
ENDBRANCH   4  17
TORSDOF 8
ENDMDL
MODEL 9
REMARK VINA RESULT:      -7.4      2.943      4.729
REMARK  Name = 
REMARK  8 active torsions:
REMARK  status: ('A' for Active; 'I' for Inactive)
REMARK    1  A    between atoms: C_2  and  C_5
REMARK    2  A    between atoms: N_3  and  O_4
REMARK    3  A    between atoms: C_8  and  C_9
REMARK    4  A    between atoms: N_12  and  C_13
REMARK    5  A    between atoms: C_13  and  C_14
REMARK    6  A    between atoms: C_14  and  N_15
REMARK    7  A    between atoms: N_15  and  C_16
REMARK    8  A    between atoms: C_16  and  C_17
REMARK                            x       y       z     vdW  Elec       q    Type
REMARK                         _______ _______ _______ _____ _____    ______ ____
ROOT
ATOM      1  C   UNL     1       1.693   8.711  18.534  0.00  0.00    +0.000 A 
ATOM      2  C   UNL     1       1.950   7.812  19.596  0.00  0.00    +0.000 A 
ATOM      3  C   UNL     1       2.968   6.993  19.131  0.00  0.00    +0.000 A 
ATOM      4  N   UNL     1       3.255   7.454  17.882  0.00  0.00    +0.000 N 
ATOM      5  N   UNL     1       2.489   8.468  17.484  0.00  0.00    +0.000 NA
ENDROOT
BRANCH   1   9
ATOM      6  C   UNL     1      -1.366  11.218  18.379  0.00  0.00    +0.000 A 
ATOM      7  C   UNL     1      -0.265  11.911  18.853  0.00  0.00    +0.000 A 
ATOM      8  C   UNL     1       0.896  11.088  18.961  0.00  0.00    +0.000 A 
ATOM      9  C   UNL     1       0.659   9.798  18.551  0.00  0.00    +0.000 A 
ATOM     10  S   UNL     1      -0.965   9.583  18.059  0.00  0.00    +0.000 S 
BRANCH   6  12
ATOM     11  O   UNL     1      -3.311  11.649  17.097  0.00  0.00    +0.000 OA
ATOM     12  C   UNL     1      -2.709  11.741  18.166  0.00  0.00    +0.000 C 
ATOM     13  N   UNL     1      -3.298  12.381  19.227  0.00  0.00    +0.000 N 
ATOM     14  H   UNL     1      -2.750  12.676  20.041  0.00  0.00    +0.000 HD
BRANCH  13  15
ATOM     15  O   UNL     1      -4.517  13.043  19.014  0.00  0.00    +0.000 OA
ATOM     16  H   UNL     1      -5.161  12.280  18.991  0.00  0.00    +0.000 HD
ENDBRANCH  13  15
ENDBRANCH   6  12
ENDBRANCH   1   9
BRANCH   4  17
ATOM     17  C   UNL     1       4.390   6.999  17.084  0.00  0.00    +0.000 C 
BRANCH  17  18
ATOM     18  C   UNL     1       5.404   6.163  17.874  0.00  0.00    +0.000 C 
BRANCH  18  19
ATOM     19  N   UNL     1       5.573   4.789  17.380  0.00  0.00    +0.000 NA
ATOM     20  H   UNL     1       5.822   4.161  18.144  0.00  0.00    +0.000 HD
BRANCH  19  21
ATOM     21  C   UNL     1       4.397   4.277  16.682  0.00  0.00    +0.000 C 
BRANCH  21  22
ATOM     22  C   UNL     1       3.407   3.725  17.673  0.00  0.00    +0.000 A 
ATOM     23  C   UNL     1       2.046   3.889  17.416  0.00  0.00    +0.000 A 
ATOM     24  C   UNL     1       1.116   3.315  18.265  0.00  0.00    +0.000 A 
ATOM     25  C   UNL     1       1.537   3.108  19.572  0.00  0.00    +0.000 A 
ATOM     26  N   UNL     1       0.835   3.118  20.753  0.00  0.00    +0.000 N 
ATOM     27  C   UNL     1       1.684   2.844  21.792  0.00  0.00    +0.000 A 
ATOM     28  C   UNL     1       2.931   2.591  21.261  0.00  0.00    +0.000 A 
ATOM     29  C   UNL     1       2.879   2.920  19.881  0.00  0.00    +0.000 A 
ATOM     30  C   UNL     1       3.828   3.084  18.855  0.00  0.00    +0.000 A 
ATOM     31  H   UNL     1      -0.117   3.447  20.845  0.00  0.00    +0.000 HD
ENDBRANCH  21  22
ENDBRANCH  19  21
ENDBRANCH  18  19
ENDBRANCH  17  18
ENDBRANCH   4  17
TORSDOF 8
ENDMDL
