MODEL 1
REMARK VINA RESULT:      -6.8      0.000      0.000
REMARK  Name = 
REMARK  9 active torsions:
REMARK  status: ('A' for Active; 'I' for Inactive)
REMARK    1  A    between atoms: C_2  and  O_3
REMARK    2  A    between atoms: C_2  and  C_4
REMARK    3  A    between atoms: C_4  and  C_5
REMARK    4  A    between atoms: C_5  and  C_6
REMARK    5  A    between atoms: C_6  and  O_7
REMARK    6  A    between atoms: O_7  and  N_8
REMARK    7  A    between atoms: C_9  and  C_10
REMARK    8  A    between atoms: C_9  and  C_16
REMARK    9  A    between atoms: C_10  and  N_11
REMARK                            x       y       z     vdW  Elec       q    Type
REMARK                         _______ _______ _______ _____ _____    ______ ____
ROOT
ATOM      1  N   UNL     1       4.803   5.464  19.180  0.00  0.00    +0.000 NA
ATOM      2  C   UNL     1       3.541   5.237  18.941  0.00  0.00    +0.000 C 
ENDROOT
BRANCH   2   3
ATOM      3  C   UNL     1       2.943   4.340  17.815  0.00  0.00    +0.000 C 
ATOM      4  C   UNL     1       3.517   2.915  17.651  0.00  0.00    +0.000 C 
ATOM      5  C   UNL     1       3.208   2.006  18.840  0.00  0.00    +0.000 C 
ATOM      6  C   UNL     1       1.717   1.950  19.165  0.00  0.00    +0.000 C 
ATOM      7  C   UNL     1       1.062   3.325  19.194  0.00  0.00    +0.000 C 
ATOM      8  C   UNL     1       1.417   4.157  17.958  0.00  0.00    +0.000 C 
ENDBRANCH   2   3
BRANCH   1   9
ATOM      9  O   UNL     1       5.661   4.902  18.245  0.00  0.00    +0.000 OA
BRANCH   9  10
ATOM     10  C   UNL     1       6.437   5.940  17.650  0.00  0.00    +0.000 C 
BRANCH  10  11
ATOM     11  C   UNL     1       5.775   6.341  16.336  0.00  0.00    +0.000 C 
BRANCH  11  12
ATOM     12  C   UNL     1       5.464   5.137  15.452  0.00  0.00    +0.000 C 
BRANCH  12  14
ATOM     13  O   UNL     1       7.663   5.377  14.454  0.00  0.00    +0.000 OA
ATOM     14  C   UNL     1       6.641   4.720  14.599  0.00  0.00    +0.000 C 
BRANCH  14  15
ATOM     15  O   UNL     1       6.463   3.516  14.018  0.00  0.00    +0.000 OA
ATOM     16  H   UNL     1       6.975   2.789  14.420  0.00  0.00    +0.000 HD
ENDBRANCH  14  15
ENDBRANCH  12  14
ENDBRANCH  11  12
ENDBRANCH  10  11
ENDBRANCH   9  10
ENDBRANCH   1   9
BRANCH   2  17
ATOM     17  C   UNL     1       2.600   6.059  19.824  0.00  0.00    +0.000 C 
BRANCH  17  18
ATOM     18  N   UNL     1       2.298   7.360  19.255  0.00  0.00    +0.000 N 
ATOM     19  C   UNL     1       2.580   7.769  17.982  0.00  0.00    +0.000 A 
ATOM     20  C   UNL     1       2.051   9.036  17.890  0.00  0.00    +0.000 A 
ATOM     21  N   UNL     1       1.440   9.391  19.063  0.00  0.00    +0.000 NA
ATOM     22  C   UNL     1       1.590   8.359  19.862  0.00  0.00    +0.000 A 
ENDBRANCH  17  18
ENDBRANCH   2  17
TORSDOF 9
ENDMDL
MODEL 2
REMARK VINA RESULT:      -6.8      1.415      1.840
REMARK  Name = 
REMARK  9 active torsions:
REMARK  status: ('A' for Active; 'I' for Inactive)
REMARK    1  A    between atoms: C_2  and  O_3
REMARK    2  A    between atoms: C_2  and  C_4
REMARK    3  A    between atoms: C_4  and  C_5
REMARK    4  A    between atoms: C_5  and  C_6
REMARK    5  A    between atoms: C_6  and  O_7
REMARK    6  A    between atoms: O_7  and  N_8
REMARK    7  A    between atoms: C_9  and  C_10
REMARK    8  A    between atoms: C_9  and  C_16
REMARK    9  A    between atoms: C_10  and  N_11
REMARK                            x       y       z     vdW  Elec       q    Type
REMARK                         _______ _______ _______ _____ _____    ______ ____
ROOT
ATOM      1  N   UNL     1       4.741   5.290  18.901  0.00  0.00    +0.000 NA
ATOM      2  C   UNL     1       3.659   4.590  18.708  0.00  0.00    +0.000 C 
ENDROOT
BRANCH   2   3
ATOM      3  C   UNL     1       3.459   3.069  18.986  0.00  0.00    +0.000 C 
ATOM      4  C   UNL     1       3.652   2.573  20.437  0.00  0.00    +0.000 C 
ATOM      5  C   UNL     1       2.593   3.110  21.398  0.00  0.00    +0.000 C 
ATOM      6  C   UNL     1       1.170   2.830  20.921  0.00  0.00    +0.000 C 
ATOM      7  C   UNL     1       0.959   3.163  19.448  0.00  0.00    +0.000 C 
ATOM      8  C   UNL     1       2.060   2.572  18.563  0.00  0.00    +0.000 C 
ENDBRANCH   2   3
BRANCH   1   9
ATOM      9  O   UNL     1       5.833   4.534  19.306  0.00  0.00    +0.000 OA
BRANCH   9  10
ATOM     10  C   UNL     1       6.917   5.413  19.599  0.00  0.00    +0.000 C 
BRANCH  10  11
ATOM     11  C   UNL     1       7.636   5.741  18.294  0.00  0.00    +0.000 C 
BRANCH  11  12
ATOM     12  C   UNL     1       7.834   4.508  17.416  0.00  0.00    +0.000 C 
BRANCH  12  14
ATOM     13  O   UNL     1       7.311   5.219  15.156  0.00  0.00    +0.000 OA
ATOM     14  C   UNL     1       7.018   4.561  16.145  0.00  0.00    +0.000 C 
BRANCH  14  15
ATOM     15  O   UNL     1       5.921   3.777  16.197  0.00  0.00    +0.000 OA
ATOM     16  H   UNL     1       5.208   4.111  16.774  0.00  0.00    +0.000 HD
ENDBRANCH  14  15
ENDBRANCH  12  14
ENDBRANCH  11  12
ENDBRANCH  10  11
ENDBRANCH   9  10
ENDBRANCH   1   9
BRANCH   2  17
ATOM     17  C   UNL     1       2.539   5.381  18.030  0.00  0.00    +0.000 C 
BRANCH  17  18
ATOM     18  N   UNL     1       2.269   6.644  18.693  0.00  0.00    +0.000 N 
ATOM     19  C   UNL     1       2.193   7.870  18.095  0.00  0.00    +0.000 A 
ATOM     20  C   UNL     1       1.856   8.739  19.107  0.00  0.00    +0.000 A 
ATOM     21  N   UNL     1       1.706   8.067  20.292  0.00  0.00    +0.000 NA
ATOM     22  C   UNL     1       1.946   6.807  20.011  0.00  0.00    +0.000 A 
ENDBRANCH  17  18
ENDBRANCH   2  17
TORSDOF 9
ENDMDL
MODEL 3
REMARK VINA RESULT:      -6.8      1.308      1.926
REMARK  Name = 
REMARK  9 active torsions:
REMARK  status: ('A' for Active; 'I' for Inactive)
REMARK    1  A    between atoms: C_2  and  O_3
REMARK    2  A    between atoms: C_2  and  C_4
REMARK    3  A    between atoms: C_4  and  C_5
REMARK    4  A    between atoms: C_5  and  C_6
REMARK    5  A    between atoms: C_6  and  O_7
REMARK    6  A    between atoms: O_7  and  N_8
REMARK    7  A    between atoms: C_9  and  C_10
REMARK    8  A    between atoms: C_9  and  C_16
REMARK    9  A    between atoms: C_10  and  N_11
REMARK                            x       y       z     vdW  Elec       q    Type
REMARK                         _______ _______ _______ _____ _____    ______ ____
ROOT
ATOM      1  N   UNL     1       4.876   5.479  18.956  0.00  0.00    +0.000 NA
ATOM      2  C   UNL     1       3.719   4.907  19.138  0.00  0.00    +0.000 C 
ENDROOT
BRANCH   2   3
ATOM      3  C   UNL     1       3.424   3.624  19.974  0.00  0.00    +0.000 C 
ATOM      4  C   UNL     1       2.094   3.568  20.758  0.00  0.00    +0.000 C 
ATOM      5  C   UNL     1       0.866   3.523  19.850  0.00  0.00    +0.000 C 
ATOM      6  C   UNL     1       0.933   2.391  18.827  0.00  0.00    +0.000 C 
ATOM      7  C   UNL     1       2.282   2.303  18.124  0.00  0.00    +0.000 C 
ATOM      8  C   UNL     1       3.450   2.343  19.114  0.00  0.00    +0.000 C 
ENDBRANCH   2   3
BRANCH   1   9
ATOM      9  O   UNL     1       5.941   4.778  19.505  0.00  0.00    +0.000 OA
BRANCH   9  10
ATOM     10  C   UNL     1       7.121   5.571  19.392  0.00  0.00    +0.000 C 
BRANCH  10  11
ATOM     11  C   UNL     1       7.383   5.834  17.912  0.00  0.00    +0.000 C 
BRANCH  11  12
ATOM     12  C   UNL     1       7.707   4.556  17.145  0.00  0.00    +0.000 C 
BRANCH  12  14
ATOM     13  O   UNL     1       6.800   4.505  14.895  0.00  0.00    +0.000 OA
ATOM     14  C   UNL     1       6.680   4.237  16.083  0.00  0.00    +0.000 C 
BRANCH  14  15
ATOM     15  O   UNL     1       5.603   3.592  16.575  0.00  0.00    +0.000 OA
ATOM     16  H   UNL     1       4.986   3.253  15.899  0.00  0.00    +0.000 HD
ENDBRANCH  14  15
ENDBRANCH  12  14
ENDBRANCH  11  12
ENDBRANCH  10  11
ENDBRANCH   9  10
ENDBRANCH   1   9
BRANCH   2  17
ATOM     17  C   UNL     1       2.592   5.547  18.325  0.00  0.00    +0.000 C 
BRANCH  17  18
ATOM     18  N   UNL     1       2.262   6.882  18.790  0.00  0.00    +0.000 N 
ATOM     19  C   UNL     1       2.144   8.001  18.013  0.00  0.00    +0.000 A 
ATOM     20  C   UNL     1       1.758   8.997  18.880  0.00  0.00    +0.000 A 
ATOM     21  N   UNL     1       1.619   8.504  20.151  0.00  0.00    +0.000 NA
ATOM     22  C   UNL     1       1.914   7.227  20.065  0.00  0.00    +0.000 A 
ENDBRANCH  17  18
ENDBRANCH   2  17
TORSDOF 9
ENDMDL
MODEL 4
REMARK VINA RESULT:      -6.7      0.739      1.004
REMARK  Name = 
REMARK  9 active torsions:
REMARK  status: ('A' for Active; 'I' for Inactive)
REMARK    1  A    between atoms: C_2  and  O_3
REMARK    2  A    between atoms: C_2  and  C_4
REMARK    3  A    between atoms: C_4  and  C_5
REMARK    4  A    between atoms: C_5  and  C_6
REMARK    5  A    between atoms: C_6  and  O_7
REMARK    6  A    between atoms: O_7  and  N_8
REMARK    7  A    between atoms: C_9  and  C_10
REMARK    8  A    between atoms: C_9  and  C_16
REMARK    9  A    between atoms: C_10  and  N_11
REMARK                            x       y       z     vdW  Elec       q    Type
REMARK                         _______ _______ _______ _____ _____    ______ ____
ROOT
ATOM      1  N   UNL     1       4.664   5.666  19.278  0.00  0.00    +0.000 NA
ATOM      2  C   UNL     1       3.436   5.444  18.901  0.00  0.00    +0.000 C 
ENDROOT
BRANCH   2   3
ATOM      3  C   UNL     1       2.962   4.539  17.723  0.00  0.00    +0.000 C 
ATOM      4  C   UNL     1       3.697   3.197  17.507  0.00  0.00    +0.000 C 
ATOM      5  C   UNL     1       3.475   2.204  18.647  0.00  0.00    +0.000 C 
ATOM      6  C   UNL     1       1.995   1.964  18.938  0.00  0.00    +0.000 C 
ATOM      7  C   UNL     1       1.187   3.254  19.014  0.00  0.00    +0.000 C 
ATOM      8  C   UNL     1       1.465   4.178  17.825  0.00  0.00    +0.000 C 
ENDBRANCH   2   3
BRANCH   1   9
ATOM      9  O   UNL     1       5.618   5.089  18.451  0.00  0.00    +0.000 OA
BRANCH   9  10
ATOM     10  C   UNL     1       6.703   6.002  18.293  0.00  0.00    +0.000 C 
BRANCH  10  11
ATOM     11  C   UNL     1       7.205   5.907  16.856  0.00  0.00    +0.000 C 
BRANCH  11  12
ATOM     12  C   UNL     1       6.852   4.574  16.205  0.00  0.00    +0.000 C 
BRANCH  12  14
ATOM     13  O   UNL     1       7.671   5.428  14.087  0.00  0.00    +0.000 OA
ATOM     14  C   UNL     1       7.020   4.595  14.703  0.00  0.00    +0.000 C 
BRANCH  14  15
ATOM     15  O   UNL     1       6.388   3.571  14.092  0.00  0.00    +0.000 OA
ATOM     16  H   UNL     1       6.371   3.626  13.118  0.00  0.00    +0.000 HD
ENDBRANCH  14  15
ENDBRANCH  12  14
ENDBRANCH  11  12
ENDBRANCH  10  11
ENDBRANCH   9  10
ENDBRANCH   1   9
BRANCH   2  17
ATOM     17  C   UNL     1       2.407   6.279  19.666  0.00  0.00    +0.000 C 
BRANCH  17  18
ATOM     18  N   UNL     1       2.150   7.560  19.032  0.00  0.00    +0.000 N 
ATOM     19  C   UNL     1       1.492   8.619  19.590  0.00  0.00    +0.000 A 
ATOM     20  C   UNL     1       1.556   9.617  18.645  0.00  0.00    +0.000 A 
ATOM     21  N   UNL     1       2.253   9.195  17.543  0.00  0.00    +0.000 NA
ATOM     22  C   UNL     1       2.612   7.959  17.809  0.00  0.00    +0.000 A 
ENDBRANCH  17  18
ENDBRANCH   2  17
TORSDOF 9
ENDMDL
MODEL 5
REMARK VINA RESULT:      -6.5      3.292      6.334
REMARK  Name = 
REMARK  9 active torsions:
REMARK  status: ('A' for Active; 'I' for Inactive)
REMARK    1  A    between atoms: C_2  and  O_3
REMARK    2  A    between atoms: C_2  and  C_4
REMARK    3  A    between atoms: C_4  and  C_5
REMARK    4  A    between atoms: C_5  and  C_6
REMARK    5  A    between atoms: C_6  and  O_7
REMARK    6  A    between atoms: O_7  and  N_8
REMARK    7  A    between atoms: C_9  and  C_10
REMARK    8  A    between atoms: C_9  and  C_16
REMARK    9  A    between atoms: C_10  and  N_11
REMARK                            x       y       z     vdW  Elec       q    Type
REMARK                         _______ _______ _______ _____ _____    ______ ____
ROOT
ATOM      1  N   UNL     1       3.273   6.167  18.417  0.00  0.00    +0.000 NA
ATOM      2  C   UNL     1       3.469   4.879  18.370  0.00  0.00    +0.000 C 
ENDROOT
BRANCH   2   3
ATOM      3  C   UNL     1       3.379   3.870  19.556  0.00  0.00    +0.000 C 
ATOM      4  C   UNL     1       2.287   4.109  20.622  0.00  0.00    +0.000 C 
ATOM      5  C   UNL     1       0.870   3.930  20.077  0.00  0.00    +0.000 C 
ATOM      6  C   UNL     1       0.670   2.577  19.397  0.00  0.00    +0.000 C 
ATOM      7  C   UNL     1       1.800   2.218  18.440  0.00  0.00    +0.000 C 
ATOM      8  C   UNL     1       3.178   2.417  19.078  0.00  0.00    +0.000 C 
ENDBRANCH   2   3
BRANCH   1   9
ATOM      9  O   UNL     1       3.061   6.657  19.698  0.00  0.00    +0.000 OA
BRANCH   9  10
ATOM     10  C   UNL     1       2.102   7.711  19.634  0.00  0.00    +0.000 C 
BRANCH  10  11
ATOM     11  C   UNL     1       1.314   7.723  20.940  0.00  0.00    +0.000 C 
BRANCH  11  12
ATOM     12  C   UNL     1       1.023   9.140  21.428  0.00  0.00    +0.000 C 
BRANCH  12  14
ATOM     13  O   UNL     1       0.504   9.784  23.709  0.00  0.00    +0.000 OA
ATOM     14  C   UNL     1       0.204   9.163  22.698  0.00  0.00    +0.000 C 
BRANCH  14  15
ATOM     15  O   UNL     1      -0.928   8.435  22.602  0.00  0.00    +0.000 OA
ATOM     16  H   UNL     1      -1.015   7.925  21.775  0.00  0.00    +0.000 HD
ENDBRANCH  14  15
ENDBRANCH  12  14
ENDBRANCH  11  12
ENDBRANCH  10  11
ENDBRANCH   9  10
ENDBRANCH   1   9
BRANCH   2  17
ATOM     17  C   UNL     1       3.945   4.386  17.002  0.00  0.00    +0.000 C 
BRANCH  17  18
ATOM     18  N   UNL     1       5.329   4.735  16.737  0.00  0.00    +0.000 N 
ATOM     19  C   UNL     1       6.391   4.512  17.568  0.00  0.00    +0.000 A 
ATOM     20  C   UNL     1       7.490   4.946  16.864  0.00  0.00    +0.000 A 
ATOM     21  N   UNL     1       7.123   5.403  15.626  0.00  0.00    +0.000 NA
ATOM     22  C   UNL     1       5.819   5.250  15.571  0.00  0.00    +0.000 A 
ENDBRANCH  17  18
ENDBRANCH   2  17
TORSDOF 9
ENDMDL
MODEL 6
REMARK VINA RESULT:      -6.4      3.219      5.739
REMARK  Name = 
REMARK  9 active torsions:
REMARK  status: ('A' for Active; 'I' for Inactive)
REMARK    1  A    between atoms: C_2  and  O_3
REMARK    2  A    between atoms: C_2  and  C_4
REMARK    3  A    between atoms: C_4  and  C_5
REMARK    4  A    between atoms: C_5  and  C_6
REMARK    5  A    between atoms: C_6  and  O_7
REMARK    6  A    between atoms: O_7  and  N_8
REMARK    7  A    between atoms: C_9  and  C_10
REMARK    8  A    between atoms: C_9  and  C_16
REMARK    9  A    between atoms: C_10  and  N_11
REMARK                            x       y       z     vdW  Elec       q    Type
REMARK                         _______ _______ _______ _____ _____    ______ ____
ROOT
ATOM      1  N   UNL     1       3.611   6.190  17.975  0.00  0.00    +0.000 NA
ATOM      2  C   UNL     1       3.674   4.906  17.759  0.00  0.00    +0.000 C 
ENDROOT
BRANCH   2   3
ATOM      3  C   UNL     1       2.489   3.947  17.431  0.00  0.00    +0.000 C 
ATOM      4  C   UNL     1       2.779   2.429  17.405  0.00  0.00    +0.000 C 
ATOM      5  C   UNL     1       3.141   1.866  18.779  0.00  0.00    +0.000 C 
ATOM      6  C   UNL     1       2.095   2.194  19.842  0.00  0.00    +0.000 C 
ATOM      7  C   UNL     1       1.658   3.653  19.817  0.00  0.00    +0.000 C 
ATOM      8  C   UNL     1       1.304   4.123  18.403  0.00  0.00    +0.000 C 
ENDBRANCH   2   3
BRANCH   1   9
ATOM      9  O   UNL     1       2.317   6.691  18.001  0.00  0.00    +0.000 OA
BRANCH   9  10
ATOM     10  C   UNL     1       2.312   7.914  18.735  0.00  0.00    +0.000 C 
BRANCH  10  11
ATOM     11  C   UNL     1       1.686   8.997  17.862  0.00  0.00    +0.000 C 
BRANCH  11  12
ATOM     12  C   UNL     1       1.178  10.180  18.680  0.00  0.00    +0.000 C 
BRANCH  12  14
ATOM     13  O   UNL     1      -1.036  10.675  19.541  0.00  0.00    +0.000 OA
ATOM     14  C   UNL     1      -0.323  10.340  18.604  0.00  0.00    +0.000 C 
BRANCH  14  15
ATOM     15  O   UNL     1      -0.812  10.097  17.371  0.00  0.00    +0.000 OA
ATOM     16  H   UNL     1      -0.588   9.218  17.010  0.00  0.00    +0.000 HD
ENDBRANCH  14  15
ENDBRANCH  12  14
ENDBRANCH  11  12
ENDBRANCH  10  11
ENDBRANCH   9  10
ENDBRANCH   1   9
BRANCH   2  17
ATOM     17  C   UNL     1       5.072   4.323  17.977  0.00  0.00    +0.000 C 
BRANCH  17  18
ATOM     18  N   UNL     1       5.953   4.556  16.847  0.00  0.00    +0.000 N 
ATOM     19  C   UNL     1       5.890   3.934  15.632  0.00  0.00    +0.000 A 
ATOM     20  C   UNL     1       6.875   4.527  14.877  0.00  0.00    +0.000 A 
ATOM     21  N   UNL     1       7.514   5.502  15.596  0.00  0.00    +0.000 NA
ATOM     22  C   UNL     1       6.929   5.509  16.772  0.00  0.00    +0.000 A 
ENDBRANCH  17  18
ENDBRANCH   2  17
TORSDOF 9
ENDMDL
MODEL 7
REMARK VINA RESULT:      -6.4      1.100      1.799
REMARK  Name = 
REMARK  9 active torsions:
REMARK  status: ('A' for Active; 'I' for Inactive)
REMARK    1  A    between atoms: C_2  and  O_3
REMARK    2  A    between atoms: C_2  and  C_4
REMARK    3  A    between atoms: C_4  and  C_5
REMARK    4  A    between atoms: C_5  and  C_6
REMARK    5  A    between atoms: C_6  and  O_7
REMARK    6  A    between atoms: O_7  and  N_8
REMARK    7  A    between atoms: C_9  and  C_10
REMARK    8  A    between atoms: C_9  and  C_16
REMARK    9  A    between atoms: C_10  and  N_11
REMARK                            x       y       z     vdW  Elec       q    Type
REMARK                         _______ _______ _______ _____ _____    ______ ____
ROOT
ATOM      1  N   UNL     1       4.786   5.926  18.917  0.00  0.00    +0.000 NA
ATOM      2  C   UNL     1       3.774   5.124  19.092  0.00  0.00    +0.000 C 
ENDROOT
BRANCH   2   3
ATOM      3  C   UNL     1       3.809   3.673  19.662  0.00  0.00    +0.000 C 
ATOM      4  C   UNL     1       2.683   3.255  20.635  0.00  0.00    +0.000 C 
ATOM      5  C   UNL     1       1.310   3.193  19.967  0.00  0.00    +0.000 C 
ATOM      6  C   UNL     1       1.301   2.306  18.724  0.00  0.00    +0.000 C 
ATOM      7  C   UNL     1       2.480   2.572  17.794  0.00  0.00    +0.000 C 
ATOM      8  C   UNL     1       3.811   2.604  18.550  0.00  0.00    +0.000 C 
ENDBRANCH   2   3
BRANCH   1   9
ATOM      9  O   UNL     1       6.017   5.345  19.193  0.00  0.00    +0.000 OA
BRANCH   9  10
ATOM     10  C   UNL     1       6.945   5.733  18.182  0.00  0.00    +0.000 C 
BRANCH  10  11
ATOM     11  C   UNL     1       7.304   4.500  17.360  0.00  0.00    +0.000 C 
BRANCH  11  12
ATOM     12  C   UNL     1       6.284   4.219  16.261  0.00  0.00    +0.000 C 
BRANCH  12  14
ATOM     13  O   UNL     1       7.597   5.385  14.586  0.00  0.00    +0.000 OA
ATOM     14  C   UNL     1       6.834   4.473  14.876  0.00  0.00    +0.000 C 
BRANCH  14  15
ATOM     15  O   UNL     1       6.414   3.564  13.972  0.00  0.00    +0.000 OA
ATOM     16  H   UNL     1       5.803   2.890  14.326  0.00  0.00    +0.000 HD
ENDBRANCH  14  15
ENDBRANCH  12  14
ENDBRANCH  11  12
ENDBRANCH  10  11
ENDBRANCH   9  10
ENDBRANCH   1   9
BRANCH   2  17
ATOM     17  C   UNL     1       2.456   5.686  18.555  0.00  0.00    +0.000 C 
BRANCH  17  18
ATOM     18  N   UNL     1       2.010   6.855  19.290  0.00  0.00    +0.000 N 
ATOM     19  C   UNL     1       1.667   6.894  20.613  0.00  0.00    +0.000 A 
ATOM     20  C   UNL     1       1.380   8.216  20.867  0.00  0.00    +0.000 A 
ATOM     21  N   UNL     1       1.562   8.975  19.741  0.00  0.00    +0.000 NA
ATOM     22  C   UNL     1       1.955   8.134  18.812  0.00  0.00    +0.000 A 
ENDBRANCH  17  18
ENDBRANCH   2  17
TORSDOF 9
ENDMDL
MODEL 8
REMARK VINA RESULT:      -6.4      2.822      5.585
REMARK  Name = 
REMARK  9 active torsions:
REMARK  status: ('A' for Active; 'I' for Inactive)
REMARK    1  A    between atoms: C_2  and  O_3
REMARK    2  A    between atoms: C_2  and  C_4
REMARK    3  A    between atoms: C_4  and  C_5
REMARK    4  A    between atoms: C_5  and  C_6
REMARK    5  A    between atoms: C_6  and  O_7
REMARK    6  A    between atoms: O_7  and  N_8
REMARK    7  A    between atoms: C_9  and  C_10
REMARK    8  A    between atoms: C_9  and  C_16
REMARK    9  A    between atoms: C_10  and  N_11
REMARK                            x       y       z     vdW  Elec       q    Type
REMARK                         _______ _______ _______ _____ _____    ______ ____
ROOT
ATOM      1  N   UNL     1       3.947   6.349  18.670  0.00  0.00    +0.000 NA
ATOM      2  C   UNL     1       3.677   5.116  18.347  0.00  0.00    +0.000 C 
ENDROOT
BRANCH   2   3
ATOM      3  C   UNL     1       2.284   4.524  17.972  0.00  0.00    +0.000 C 
ATOM      4  C   UNL     1       2.255   3.172  17.224  0.00  0.00    +0.000 C 
ATOM      5  C   UNL     1       2.765   2.008  18.073  0.00  0.00    +0.000 C 
ATOM      6  C   UNL     1       2.038   1.896  19.412  0.00  0.00    +0.000 C 
ATOM      7  C   UNL     1       1.904   3.233  20.131  0.00  0.00    +0.000 C 
ATOM      8  C   UNL     1       1.376   4.332  19.205  0.00  0.00    +0.000 C 
ENDBRANCH   2   3
BRANCH   1   9
ATOM      9  O   UNL     1       2.826   7.161  18.771  0.00  0.00    +0.000 OA
BRANCH   9  10
ATOM     10  C   UNL     1       2.900   8.175  17.771  0.00  0.00    +0.000 C 
BRANCH  10  11
ATOM     11  C   UNL     1       1.540   8.858  17.677  0.00  0.00    +0.000 C 
BRANCH  11  12
ATOM     12  C   UNL     1       1.402  10.013  18.665  0.00  0.00    +0.000 C 
BRANCH  12  14
ATOM     13  O   UNL     1      -0.578  10.070  20.065  0.00  0.00    +0.000 OA
ATOM     14  C   UNL     1       0.556   9.657  19.866  0.00  0.00    +0.000 C 
BRANCH  14  15
ATOM     15  O   UNL     1       1.175   8.801  20.705  0.00  0.00    +0.000 OA
ATOM     16  H   UNL     1       1.687   9.229  21.418  0.00  0.00    +0.000 HD
ENDBRANCH  14  15
ENDBRANCH  12  14
ENDBRANCH  11  12
ENDBRANCH  10  11
ENDBRANCH   9  10
ENDBRANCH   1   9
BRANCH   2  17
ATOM     17  C   UNL     1       4.879   4.178  18.479  0.00  0.00    +0.000 C 
BRANCH  17  18
ATOM     18  N   UNL     1       5.807   4.306  17.370  0.00  0.00    +0.000 N 
ATOM     19  C   UNL     1       5.511   4.145  16.046  0.00  0.00    +0.000 A 
ATOM     20  C   UNL     1       6.682   4.428  15.382  0.00  0.00    +0.000 A 
ATOM     21  N   UNL     1       7.668   4.776  16.268  0.00  0.00    +0.000 NA
ATOM     22  C   UNL     1       7.110   4.708  17.455  0.00  0.00    +0.000 A 
ENDBRANCH  17  18
ENDBRANCH   2  17
TORSDOF 9
ENDMDL
MODEL 9
REMARK VINA RESULT:      -6.4      1.264      1.600
REMARK  Name = 
REMARK  9 active torsions:
REMARK  status: ('A' for Active; 'I' for Inactive)
REMARK    1  A    between atoms: C_2  and  O_3
REMARK    2  A    between atoms: C_2  and  C_4
REMARK    3  A    between atoms: C_4  and  C_5
REMARK    4  A    between atoms: C_5  and  C_6
REMARK    5  A    between atoms: C_6  and  O_7
REMARK    6  A    between atoms: O_7  and  N_8
REMARK    7  A    between atoms: C_9  and  C_10
REMARK    8  A    between atoms: C_9  and  C_16
REMARK    9  A    between atoms: C_10  and  N_11
REMARK                            x       y       z     vdW  Elec       q    Type
REMARK                         _______ _______ _______ _____ _____    ______ ____
ROOT
ATOM      1  N   UNL     1       4.427   6.099  19.153  0.00  0.00    +0.000 NA
ATOM      2  C   UNL     1       3.195   5.691  19.279  0.00  0.00    +0.000 C 
ENDROOT
BRANCH   2   3
ATOM      3  C   UNL     1       2.573   4.383  18.702  0.00  0.00    +0.000 C 
ATOM      4  C   UNL     1       3.376   3.073  18.863  0.00  0.00    +0.000 C 
ATOM      5  C   UNL     1       3.505   2.628  20.319  0.00  0.00    +0.000 C 
ATOM      6  C   UNL     1       2.155   2.519  21.023  0.00  0.00    +0.000 C 
ATOM      7  C   UNL     1       1.256   3.725  20.775  0.00  0.00    +0.000 C 
ATOM      8  C   UNL     1       1.177   4.087  19.290  0.00  0.00    +0.000 C 
ENDBRANCH   2   3
BRANCH   1   9
ATOM      9  O   UNL     1       5.202   5.297  18.327  0.00  0.00    +0.000 OA
BRANCH   9  10
ATOM     10  C   UNL     1       6.507   5.181  18.889  0.00  0.00    +0.000 C 
BRANCH  10  11
ATOM     11  C   UNL     1       7.483   4.826  17.772  0.00  0.00    +0.000 C 
BRANCH  11  12
ATOM     12  C   UNL     1       6.771   4.313  16.523  0.00  0.00    +0.000 C 
BRANCH  12  14
ATOM     13  O   UNL     1       7.681   5.357  14.530  0.00  0.00    +0.000 OA
ATOM     14  C   UNL     1       6.805   5.306  15.384  0.00  0.00    +0.000 C 
BRANCH  14  15
ATOM     15  O   UNL     1       5.741   6.136  15.383  0.00  0.00    +0.000 OA
ATOM     16  H   UNL     1       5.001   5.850  15.950  0.00  0.00    +0.000 HD
ENDBRANCH  14  15
ENDBRANCH  12  14
ENDBRANCH  11  12
ENDBRANCH  10  11
ENDBRANCH   9  10
ENDBRANCH   1   9
BRANCH   2  17
ATOM     17  C   UNL     1       2.291   6.705  19.983  0.00  0.00    +0.000 C 
BRANCH  17  18
ATOM     18  N   UNL     1       2.010   7.865  19.157  0.00  0.00    +0.000 N 
ATOM     19  C   UNL     1       1.347   8.995  19.550  0.00  0.00    +0.000 A 
ATOM     20  C   UNL     1       1.387   9.829  18.457  0.00  0.00    +0.000 A 
ATOM     21  N   UNL     1       2.073   9.243  17.426  0.00  0.00    +0.000 NA
ATOM     22  C   UNL     1       2.449   8.069  17.879  0.00  0.00    +0.000 A 
ENDBRANCH  17  18
ENDBRANCH   2  17
TORSDOF 9
ENDMDL
