MODEL 1
REMARK VINA RESULT:      -6.9      0.000      0.000
REMARK  Name = 
REMARK  8 active torsions:
REMARK  status: ('A' for Active; 'I' for Inactive)
REMARK    1  A    between atoms: C_1  and  C_2
REMARK    2  A    between atoms: C_2  and  C_3
REMARK    3  A    between atoms: C_3  and  C_4
REMARK    4  A    between atoms: C_3  and  S_5
REMARK    5  A    between atoms: S_5  and  C_6
REMARK    6  A    between atoms: C_8  and  C_9
REMARK    7  A    between atoms: N_15  and  C_16
REMARK    8  A    between atoms: N_19  and  C_20
REMARK                            x       y       z     vdW  Elec       q    Type
REMARK                         _______ _______ _______ _____ _____    ______ ____
ROOT
ATOM      1  C   UNL     1       4.283   5.893  16.963  0.00  0.00    +0.000 A 
ATOM      2  N   UNL     1       3.898   7.189  17.056  0.00  0.00    +0.000 NA
ATOM      3  C   UNL     1       2.974   7.500  17.967  0.00  0.00    +0.000 A 
ATOM      4  C   UNL     1       2.577   8.936  18.108  0.00  0.00    +0.000 C 
ATOM      5  N   UNL     1       2.406   6.611  18.788  0.00  0.00    +0.000 NA
ATOM      6  C   UNL     1       2.782   5.318  18.669  0.00  0.00    +0.000 A 
ATOM      7  C   UNL     1       3.718   4.895  17.750  0.00  0.00    +0.000 A 
ATOM      8  C   UNL     1       4.042   3.462  17.691  0.00  0.00    +0.000 A 
ATOM      9  O   UNL     1       4.814   3.019  16.848  0.00  0.00    +0.000 OA
ATOM     10  N   UNL     1       3.424   2.636  18.625  0.00  0.00    +0.000 N 
ATOM     11  C   UNL     1       3.734   1.217  18.610  0.00  0.00    +0.000 C 
ATOM     12  C   UNL     1       2.489   3.054  19.559  0.00  0.00    +0.000 A 
ATOM     13  O   UNL     1       1.965   2.262  20.344  0.00  0.00    +0.000 OA
ATOM     14  N   UNL     1       2.180   4.397  19.555  0.00  0.00    +0.000 N 
ATOM     15  C   UNL     1       1.212   4.914  20.514  0.00  0.00    +0.000 C 
ENDROOT
BRANCH   1  16
ATOM     16  S   UNL     1       5.582   5.626  15.758  0.00  0.00    +0.000 S 
BRANCH  16  17
ATOM     17  C   UNL     1       7.103   5.977  16.740  0.00  0.00    +0.000 C 
ATOM     18  C   UNL     1       7.498   4.675  17.445  0.00  0.00    +0.000 C 
BRANCH  17  20
ATOM     19  C   UNL     1       7.907   8.219  17.666  0.00  0.00    +0.000 C 
ATOM     20  C   UNL     1       6.861   7.114  17.748  0.00  0.00    +0.000 C 
ENDBRANCH  17  20
ENDBRANCH  16  17
ENDBRANCH   1  16
TORSDOF 3
ENDMDL
MODEL 2
REMARK VINA RESULT:      -6.6      0.881      1.328
REMARK  Name = 
REMARK  8 active torsions:
REMARK  status: ('A' for Active; 'I' for Inactive)
REMARK    1  A    between atoms: C_1  and  C_2
REMARK    2  A    between atoms: C_2  and  C_3
REMARK    3  A    between atoms: C_3  and  C_4
REMARK    4  A    between atoms: C_3  and  S_5
REMARK    5  A    between atoms: S_5  and  C_6
REMARK    6  A    between atoms: C_8  and  C_9
REMARK    7  A    between atoms: N_15  and  C_16
REMARK    8  A    between atoms: N_19  and  C_20
REMARK                            x       y       z     vdW  Elec       q    Type
REMARK                         _______ _______ _______ _____ _____    ______ ____
ROOT
ATOM      1  C   UNL     1       4.015   6.341  17.558  0.00  0.00    +0.000 A 
ATOM      2  N   UNL     1       3.439   7.538  17.829  0.00  0.00    +0.000 NA
ATOM      3  C   UNL     1       2.369   7.548  18.625  0.00  0.00    +0.000 A 
ATOM      4  C   UNL     1       1.755   8.869  18.968  0.00  0.00    +0.000 C 
ATOM      5  N   UNL     1       1.830   6.451  19.166  0.00  0.00    +0.000 NA
ATOM      6  C   UNL     1       2.399   5.260  18.869  0.00  0.00    +0.000 A 
ATOM      7  C   UNL     1       3.500   5.145  18.046  0.00  0.00    +0.000 A 
ATOM      8  C   UNL     1       4.030   3.801  17.774  0.00  0.00    +0.000 A 
ATOM      9  O   UNL     1       4.962   3.632  16.995  0.00  0.00    +0.000 OA
ATOM     10  N   UNL     1       3.418   2.736  18.427  0.00  0.00    +0.000 N 
ATOM     11  C   UNL     1       3.927   1.395  18.197  0.00  0.00    +0.000 C 
ATOM     12  C   UNL     1       2.318   2.844  19.263  0.00  0.00    +0.000 A 
ATOM     13  O   UNL     1       1.814   1.853  19.795  0.00  0.00    +0.000 OA
ATOM     14  N   UNL     1       1.823   4.114  19.462  0.00  0.00    +0.000 N 
ATOM     15  C   UNL     1       0.674   4.310  20.335  0.00  0.00    +0.000 C 
ENDROOT
BRANCH   1  16
ATOM     16  S   UNL     1       5.486   6.478  16.544  0.00  0.00    +0.000 S 
BRANCH  16  17
ATOM     17  C   UNL     1       6.793   6.822  17.799  0.00  0.00    +0.000 C 
ATOM     18  C   UNL     1       7.687   7.930  17.230  0.00  0.00    +0.000 C 
BRANCH  17  20
ATOM     19  C   UNL     1       8.062   5.485  19.569  0.00  0.00    +0.000 C 
ATOM     20  C   UNL     1       7.602   5.553  18.118  0.00  0.00    +0.000 C 
ENDBRANCH  17  20
ENDBRANCH  16  17
ENDBRANCH   1  16
TORSDOF 3
ENDMDL
MODEL 3
REMARK VINA RESULT:      -6.5      1.114      1.140
REMARK  Name = 
REMARK  8 active torsions:
REMARK  status: ('A' for Active; 'I' for Inactive)
REMARK    1  A    between atoms: C_1  and  C_2
REMARK    2  A    between atoms: C_2  and  C_3
REMARK    3  A    between atoms: C_3  and  C_4
REMARK    4  A    between atoms: C_3  and  S_5
REMARK    5  A    between atoms: S_5  and  C_6
REMARK    6  A    between atoms: C_8  and  C_9
REMARK    7  A    between atoms: N_15  and  C_16
REMARK    8  A    between atoms: N_19  and  C_20
REMARK                            x       y       z     vdW  Elec       q    Type
REMARK                         _______ _______ _______ _____ _____    ______ ____
ROOT
ATOM      1  C   UNL     1       4.742   6.069  17.497  0.00  0.00    +0.000 A 
ATOM      2  N   UNL     1       4.161   7.264  17.232  0.00  0.00    +0.000 NA
ATOM      3  C   UNL     1       3.086   7.606  17.945  0.00  0.00    +0.000 A 
ATOM      4  C   UNL     1       2.466   8.944  17.691  0.00  0.00    +0.000 C 
ATOM      5  N   UNL     1       2.550   6.841  18.901  0.00  0.00    +0.000 NA
ATOM      6  C   UNL     1       3.125   5.640  19.140  0.00  0.00    +0.000 A 
ATOM      7  C   UNL     1       4.229   5.192  18.447  0.00  0.00    +0.000 A 
ATOM      8  C   UNL     1       4.766   3.862  18.774  0.00  0.00    +0.000 A 
ATOM      9  O   UNL     1       5.702   3.383  18.144  0.00  0.00    +0.000 OA
ATOM     10  N   UNL     1       4.155   3.174  19.818  0.00  0.00    +0.000 N 
ATOM     11  C   UNL     1       4.671   1.865  20.182  0.00  0.00    +0.000 C 
ATOM     12  C   UNL     1       3.052   3.621  20.526  0.00  0.00    +0.000 A 
ATOM     13  O   UNL     1       2.549   2.948  21.428  0.00  0.00    +0.000 OA
ATOM     14  N   UNL     1       2.551   4.853  20.163  0.00  0.00    +0.000 N 
ATOM     15  C   UNL     1       1.397   5.395  20.868  0.00  0.00    +0.000 C 
ENDROOT
BRANCH   1  16
ATOM     16  S   UNL     1       6.217   5.768  16.525  0.00  0.00    +0.000 S 
BRANCH  16  17
ATOM     17  C   UNL     1       7.504   6.685  17.477  0.00  0.00    +0.000 C 
ATOM     18  C   UNL     1       7.536   6.088  18.887  0.00  0.00    +0.000 C 
BRANCH  17  20
ATOM     19  C   UNL     1       8.328   9.018  18.115  0.00  0.00    +0.000 C 
ATOM     20  C   UNL     1       7.200   8.192  17.509  0.00  0.00    +0.000 C 
ENDBRANCH  17  20
ENDBRANCH  16  17
ENDBRANCH   1  16
TORSDOF 3
ENDMDL
MODEL 4
REMARK VINA RESULT:      -6.5      1.653      2.141
REMARK  Name = 
REMARK  8 active torsions:
REMARK  status: ('A' for Active; 'I' for Inactive)
REMARK    1  A    between atoms: C_1  and  C_2
REMARK    2  A    between atoms: C_2  and  C_3
REMARK    3  A    between atoms: C_3  and  C_4
REMARK    4  A    between atoms: C_3  and  S_5
REMARK    5  A    between atoms: S_5  and  C_6
REMARK    6  A    between atoms: C_8  and  C_9
REMARK    7  A    between atoms: N_15  and  C_16
REMARK    8  A    between atoms: N_19  and  C_20
REMARK                            x       y       z     vdW  Elec       q    Type
REMARK                         _______ _______ _______ _____ _____    ______ ____
ROOT
ATOM      1  C   UNL     1       4.731   6.113  17.754  0.00  0.00    +0.000 A 
ATOM      2  N   UNL     1       4.071   7.254  17.438  0.00  0.00    +0.000 NA
ATOM      3  C   UNL     1       2.899   7.481  18.033  0.00  0.00    +0.000 A 
ATOM      4  C   UNL     1       2.186   8.760  17.725  0.00  0.00    +0.000 C 
ATOM      5  N   UNL     1       2.338   6.651  18.918  0.00  0.00    +0.000 NA
ATOM      6  C   UNL     1       2.995   5.505  19.208  0.00  0.00    +0.000 A 
ATOM      7  C   UNL     1       4.205   5.175  18.635  0.00  0.00    +0.000 A 
ATOM      8  C   UNL     1       4.827   3.894  19.006  0.00  0.00    +0.000 A 
ATOM      9  O   UNL     1       5.866   3.517  18.477  0.00  0.00    +0.000 OA
ATOM     10  N   UNL     1       4.176   3.133  19.971  0.00  0.00    +0.000 N 
ATOM     11  C   UNL     1       4.771   1.871  20.377  0.00  0.00    +0.000 C 
ATOM     12  C   UNL     1       2.965   3.462  20.559  0.00  0.00    +0.000 A 
ATOM     13  O   UNL     1       2.434   2.728  21.396  0.00  0.00    +0.000 OA
ATOM     14  N   UNL     1       2.392   4.648  20.155  0.00  0.00    +0.000 N 
ATOM     15  C   UNL     1       1.123   5.067  20.736  0.00  0.00    +0.000 C 
ENDROOT
BRANCH   1  16
ATOM     16  S   UNL     1       6.323   5.970  16.945  0.00  0.00    +0.000 S 
BRANCH  16  17
ATOM     17  C   UNL     1       5.848   5.470  15.235  0.00  0.00    +0.000 C 
ATOM     18  C   UNL     1       4.782   4.376  15.362  0.00  0.00    +0.000 C 
BRANCH  17  20
ATOM     19  C   UNL     1       6.707   4.016  13.316  0.00  0.00    +0.000 C 
ATOM     20  C   UNL     1       7.071   4.976  14.443  0.00  0.00    +0.000 C 
ENDBRANCH  17  20
ENDBRANCH  16  17
ENDBRANCH   1  16
TORSDOF 3
ENDMDL
MODEL 5
REMARK VINA RESULT:      -6.5      0.807      1.423
REMARK  Name = 
REMARK  8 active torsions:
REMARK  status: ('A' for Active; 'I' for Inactive)
REMARK    1  A    between atoms: C_1  and  C_2
REMARK    2  A    between atoms: C_2  and  C_3
REMARK    3  A    between atoms: C_3  and  C_4
REMARK    4  A    between atoms: C_3  and  S_5
REMARK    5  A    between atoms: S_5  and  C_6
REMARK    6  A    between atoms: C_8  and  C_9
REMARK    7  A    between atoms: N_15  and  C_16
REMARK    8  A    between atoms: N_19  and  C_20
REMARK                            x       y       z     vdW  Elec       q    Type
REMARK                         _______ _______ _______ _____ _____    ______ ____
ROOT
ATOM      1  C   UNL     1       3.861   6.312  17.375  0.00  0.00    +0.000 A 
ATOM      2  N   UNL     1       3.380   7.538  17.696  0.00  0.00    +0.000 NA
ATOM      3  C   UNL     1       2.433   7.610  18.633  0.00  0.00    +0.000 A 
ATOM      4  C   UNL     1       1.929   8.963  19.026  0.00  0.00    +0.000 C 
ATOM      5  N   UNL     1       1.930   6.547  19.268  0.00  0.00    +0.000 NA
ATOM      6  C   UNL     1       2.401   5.327  18.923  0.00  0.00    +0.000 A 
ATOM      7  C   UNL     1       3.370   5.149  17.958  0.00  0.00    +0.000 A 
ATOM      8  C   UNL     1       3.800   3.778  17.645  0.00  0.00    +0.000 A 
ATOM      9  O   UNL     1       4.606   3.554  16.749  0.00  0.00    +0.000 OA
ATOM     10  N   UNL     1       3.241   2.753  18.402  0.00  0.00    +0.000 N 
ATOM     11  C   UNL     1       3.656   1.386  18.135  0.00  0.00    +0.000 C 
ATOM     12  C   UNL     1       2.275   2.924  19.380  0.00  0.00    +0.000 A 
ATOM     13  O   UNL     1       1.809   1.966  20.000  0.00  0.00    +0.000 OA
ATOM     14  N   UNL     1       1.866   4.219  19.616  0.00  0.00    +0.000 N 
ATOM     15  C   UNL     1       0.859   4.480  20.636  0.00  0.00    +0.000 C 
ENDROOT
BRANCH   1  16
ATOM     16  S   UNL     1       5.181   6.365  16.164  0.00  0.00    +0.000 S 
BRANCH  16  17
ATOM     17  C   UNL     1       6.668   5.996  17.190  0.00  0.00    +0.000 C 
ATOM     18  C   UNL     1       7.418   7.316  17.394  0.00  0.00    +0.000 C 
BRANCH  17  20
ATOM     19  C   UNL     1       7.212   4.714  15.047  0.00  0.00    +0.000 C 
ATOM     20  C   UNL     1       7.558   4.939  16.514  0.00  0.00    +0.000 C 
ENDBRANCH  17  20
ENDBRANCH  16  17
ENDBRANCH   1  16
TORSDOF 3
ENDMDL
MODEL 6
REMARK VINA RESULT:      -6.1      2.203      4.149
REMARK  Name = 
REMARK  8 active torsions:
REMARK  status: ('A' for Active; 'I' for Inactive)
REMARK    1  A    between atoms: C_1  and  C_2
REMARK    2  A    between atoms: C_2  and  C_3
REMARK    3  A    between atoms: C_3  and  C_4
REMARK    4  A    between atoms: C_3  and  S_5
REMARK    5  A    between atoms: S_5  and  C_6
REMARK    6  A    between atoms: C_8  and  C_9
REMARK    7  A    between atoms: N_15  and  C_16
REMARK    8  A    between atoms: N_19  and  C_20
REMARK                            x       y       z     vdW  Elec       q    Type
REMARK                         _______ _______ _______ _____ _____    ______ ____
ROOT
ATOM      1  C   UNL     1       4.166   4.656  17.179  0.00  0.00    +0.000 A 
ATOM      2  N   UNL     1       4.364   3.317  17.222  0.00  0.00    +0.000 NA
ATOM      3  C   UNL     1       3.779   2.632  18.208  0.00  0.00    +0.000 A 
ATOM      4  C   UNL     1       3.954   1.147  18.237  0.00  0.00    +0.000 C 
ATOM      5  N   UNL     1       3.016   3.190  19.153  0.00  0.00    +0.000 NA
ATOM      6  C   UNL     1       2.845   4.531  19.112  0.00  0.00    +0.000 A 
ATOM      7  C   UNL     1       3.418   5.325  18.142  0.00  0.00    +0.000 A 
ATOM      8  C   UNL     1       3.183   6.776  18.199  0.00  0.00    +0.000 A 
ATOM      9  O   UNL     1       3.723   7.538  17.405  0.00  0.00    +0.000 OA
ATOM     10  N   UNL     1       2.334   7.239  19.200  0.00  0.00    +0.000 N 
ATOM     11  C   UNL     1       2.063   8.664  19.276  0.00  0.00    +0.000 C 
ATOM     12  C   UNL     1       1.746   6.446  20.173  0.00  0.00    +0.000 A 
ATOM     13  O   UNL     1       1.019   6.928  21.043  0.00  0.00    +0.000 OA
ATOM     14  N   UNL     1       2.024   5.098  20.112  0.00  0.00    +0.000 N 
ATOM     15  C   UNL     1       1.435   4.198  21.095  0.00  0.00    +0.000 C 
ENDROOT
BRANCH   1  16
ATOM     16  S   UNL     1       4.939   5.440  15.765  0.00  0.00    +0.000 S 
BRANCH  16  17
ATOM     17  C   UNL     1       6.333   4.289  15.396  0.00  0.00    +0.000 C 
ATOM     18  C   UNL     1       7.421   4.543  16.445  0.00  0.00    +0.000 C 
BRANCH  17  20
ATOM     19  C   UNL     1       6.175   3.622  12.934  0.00  0.00    +0.000 C 
ATOM     20  C   UNL     1       6.864   4.503  13.968  0.00  0.00    +0.000 C 
ENDBRANCH  17  20
ENDBRANCH  16  17
ENDBRANCH   1  16
TORSDOF 3
ENDMDL
MODEL 7
REMARK VINA RESULT:      -6.1      2.691      4.638
REMARK  Name = 
REMARK  8 active torsions:
REMARK  status: ('A' for Active; 'I' for Inactive)
REMARK    1  A    between atoms: C_1  and  C_2
REMARK    2  A    between atoms: C_2  and  C_3
REMARK    3  A    between atoms: C_3  and  C_4
REMARK    4  A    between atoms: C_3  and  S_5
REMARK    5  A    between atoms: S_5  and  C_6
REMARK    6  A    between atoms: C_8  and  C_9
REMARK    7  A    between atoms: N_15  and  C_16
REMARK    8  A    between atoms: N_19  and  C_20
REMARK                            x       y       z     vdW  Elec       q    Type
REMARK                         _______ _______ _______ _____ _____    ______ ____
ROOT
ATOM      1  C   UNL     1       3.252   5.245  18.728  0.00  0.00    +0.000 A 
ATOM      2  N   UNL     1       3.120   4.198  19.578  0.00  0.00    +0.000 NA
ATOM      3  C   UNL     1       2.395   4.380  20.683  0.00  0.00    +0.000 A 
ATOM      4  C   UNL     1       2.205   3.216  21.604  0.00  0.00    +0.000 C 
ATOM      5  N   UNL     1       1.797   5.532  21.001  0.00  0.00    +0.000 NA
ATOM      6  C   UNL     1       1.955   6.577  20.157  0.00  0.00    +0.000 A 
ATOM      7  C   UNL     1       2.696   6.491  18.997  0.00  0.00    +0.000 A 
ATOM      8  C   UNL     1       2.820   7.692  18.158  0.00  0.00    +0.000 A 
ATOM      9  O   UNL     1       3.523   7.694  17.153  0.00  0.00    +0.000 OA
ATOM     10  N   UNL     1       2.117   8.821  18.563  0.00  0.00    +0.000 N 
ATOM     11  C   UNL     1       2.200  10.021  17.748  0.00  0.00    +0.000 C 
ATOM     12  C   UNL     1       1.362   8.913  19.722  0.00  0.00    +0.000 A 
ATOM     13  O   UNL     1       0.780   9.955  20.030  0.00  0.00    +0.000 OA
ATOM     14  N   UNL     1       1.304   7.781  20.505  0.00  0.00    +0.000 N 
ATOM     15  C   UNL     1       0.522   7.796  21.734  0.00  0.00    +0.000 C 
ENDROOT
BRANCH   1  16
ATOM     16  S   UNL     1       4.182   4.843  17.250  0.00  0.00    +0.000 S 
BRANCH  16  17
ATOM     17  C   UNL     1       5.863   4.500  17.928  0.00  0.00    +0.000 C 
ATOM     18  C   UNL     1       6.181   5.610  18.936  0.00  0.00    +0.000 C 
BRANCH  17  20
ATOM     19  C   UNL     1       6.321   4.055  15.453  0.00  0.00    +0.000 C 
ATOM     20  C   UNL     1       6.912   4.442  16.804  0.00  0.00    +0.000 C 
ENDBRANCH  17  20
ENDBRANCH  16  17
ENDBRANCH   1  16
TORSDOF 3
ENDMDL
MODEL 8
REMARK VINA RESULT:      -6.1      2.173      3.951
REMARK  Name = 
REMARK  8 active torsions:
REMARK  status: ('A' for Active; 'I' for Inactive)
REMARK    1  A    between atoms: C_1  and  C_2
REMARK    2  A    between atoms: C_2  and  C_3
REMARK    3  A    between atoms: C_3  and  C_4
REMARK    4  A    between atoms: C_3  and  S_5
REMARK    5  A    between atoms: S_5  and  C_6
REMARK    6  A    between atoms: C_8  and  C_9
REMARK    7  A    between atoms: N_15  and  C_16
REMARK    8  A    between atoms: N_19  and  C_20
REMARK                            x       y       z     vdW  Elec       q    Type
REMARK                         _______ _______ _______ _____ _____    ______ ____
ROOT
ATOM      1  C   UNL     1       4.479   5.194  17.501  0.00  0.00    +0.000 A 
ATOM      2  N   UNL     1       4.713   3.984  18.065  0.00  0.00    +0.000 NA
ATOM      3  C   UNL     1       4.098   3.703  19.215  0.00  0.00    +0.000 A 
ATOM      4  C   UNL     1       4.314   2.352  19.820  0.00  0.00    +0.000 C 
ATOM      5  N   UNL     1       3.270   4.543  19.843  0.00  0.00    +0.000 NA
ATOM      6  C   UNL     1       3.063   5.757  19.283  0.00  0.00    +0.000 A 
ATOM      7  C   UNL     1       3.663   6.145  18.104  0.00  0.00    +0.000 A 
ATOM      8  C   UNL     1       3.383   7.494  17.590  0.00  0.00    +0.000 A 
ATOM      9  O   UNL     1       3.942   7.918  16.584  0.00  0.00    +0.000 OA
ATOM     10  N   UNL     1       2.470   8.265  18.302  0.00  0.00    +0.000 N 
ATOM     11  C   UNL     1       2.155   9.597  17.813  0.00  0.00    +0.000 C 
ATOM     12  C   UNL     1       1.855   7.879  19.482  0.00  0.00    +0.000 A 
ATOM     13  O   UNL     1       1.069   8.623  20.072  0.00  0.00    +0.000 OA
ATOM     14  N   UNL     1       2.174   6.625  19.956  0.00  0.00    +0.000 N 
ATOM     15  C   UNL     1       1.561   6.144  21.187  0.00  0.00    +0.000 C 
ENDROOT
BRANCH   1  16
ATOM     16  S   UNL     1       5.303   5.411  15.925  0.00  0.00    +0.000 S 
BRANCH  16  17
ATOM     17  C   UNL     1       7.044   5.744  16.438  0.00  0.00    +0.000 C 
ATOM     18  C   UNL     1       7.598   4.444  17.031  0.00  0.00    +0.000 C 
BRANCH  17  20
ATOM     19  C   UNL     1       7.881   6.545  18.716  0.00  0.00    +0.000 C 
ATOM     20  C   UNL     1       7.111   6.900  17.450  0.00  0.00    +0.000 C 
ENDBRANCH  17  20
ENDBRANCH  16  17
ENDBRANCH   1  16
TORSDOF 3
ENDMDL
MODEL 9
REMARK VINA RESULT:      -6.1      1.283      1.882
REMARK  Name = 
REMARK  8 active torsions:
REMARK  status: ('A' for Active; 'I' for Inactive)
REMARK    1  A    between atoms: C_1  and  C_2
REMARK    2  A    between atoms: C_2  and  C_3
REMARK    3  A    between atoms: C_3  and  C_4
REMARK    4  A    between atoms: C_3  and  S_5
REMARK    5  A    between atoms: S_5  and  C_6
REMARK    6  A    between atoms: C_8  and  C_9
REMARK    7  A    between atoms: N_15  and  C_16
REMARK    8  A    between atoms: N_19  and  C_20
REMARK                            x       y       z     vdW  Elec       q    Type
REMARK                         _______ _______ _______ _____ _____    ______ ____
ROOT
ATOM      1  C   UNL     1       3.896   6.756  17.372  0.00  0.00    +0.000 A 
ATOM      2  N   UNL     1       3.456   8.024  17.186  0.00  0.00    +0.000 NA
ATOM      3  C   UNL     1       2.566   8.509  18.054  0.00  0.00    +0.000 A 
ATOM      4  C   UNL     1       2.110   9.923  17.884  0.00  0.00    +0.000 C 
ATOM      5  N   UNL     1       2.083   7.817  19.091  0.00  0.00    +0.000 NA
ATOM      6  C   UNL     1       2.512   6.545  19.253  0.00  0.00    +0.000 A 
ATOM      7  C   UNL     1       3.419   5.951  18.401  0.00  0.00    +0.000 A 
ATOM      8  C   UNL     1       3.806   4.556  18.656  0.00  0.00    +0.000 A 
ATOM      9  O   UNL     1       4.555   3.955  17.893  0.00  0.00    +0.000 OA
ATOM     10  N   UNL     1       3.275   3.950  19.791  0.00  0.00    +0.000 N 
ATOM     11  C   UNL     1       3.650   2.578  20.085  0.00  0.00    +0.000 C 
ATOM     12  C   UNL     1       2.370   4.543  20.657  0.00  0.00    +0.000 A 
ATOM     13  O   UNL     1       1.924   3.938  21.634  0.00  0.00    +0.000 OA
ATOM     14  N   UNL     1       1.999   5.836  20.362  0.00  0.00    +0.000 N 
ATOM     15  C   UNL     1       1.057   6.530  21.231  0.00  0.00    +0.000 C 
ENDROOT
BRANCH   1  16
ATOM     16  S   UNL     1       5.143   6.260  16.185  0.00  0.00    +0.000 S 
BRANCH  16  17
ATOM     17  C   UNL     1       6.633   6.045  17.252  0.00  0.00    +0.000 C 
ATOM     18  C   UNL     1       7.379   7.383  17.264  0.00  0.00    +0.000 C 
BRANCH  17  20
ATOM     19  C   UNL     1       7.045   4.323  15.409  0.00  0.00    +0.000 C 
ATOM     20  C   UNL     1       7.526   4.905  16.732  0.00  0.00    +0.000 C 
ENDBRANCH  17  20
ENDBRANCH  16  17
ENDBRANCH   1  16
TORSDOF 3
ENDMDL
