MODEL 1
REMARK VINA RESULT:      -6.6      0.000      0.000
REMARK  Name = 
REMARK  4 active torsions:
REMARK  status: ('A' for Active; 'I' for Inactive)
REMARK    1  A    between atoms: C_2  and  O_3
REMARK    2  A    between atoms: C_2  and  C_4
REMARK    3  A    between atoms: C_9  and  C_11
REMARK    4  A    between atoms: C_15  and  S_16
REMARK                            x       y       z     vdW  Elec       q    Type
REMARK                         _______ _______ _______ _____ _____    ______ ____
ROOT
ATOM      1  C   UNL     1       6.423   5.195  17.039  0.00  0.00    +0.000 C 
ATOM      2  C   UNL     1       7.707   5.212  17.886  0.00  0.00    +0.000 C 
ATOM      3  C   UNL     1       7.248   5.679  19.252  0.00  0.00    +0.000 C 
ATOM      4  C   UNL     1       5.834   5.141  19.368  0.00  0.00    +0.000 C 
ATOM      5  N   UNL     1       5.445   4.700  18.032  0.00  0.00    +0.000 N 
ATOM      6  C   UNL     1       4.182   4.228  17.729  0.00  0.00    +0.000 C 
ATOM      7  O   UNL     1       3.903   3.893  16.581  0.00  0.00    +0.000 OA
ENDROOT
BRANCH   6   8
ATOM      8  C   UNL     1       3.163   4.159  18.875  0.00  0.00    +0.000 C 
ATOM      9  C   UNL     1       1.760   4.433  18.315  0.00  0.00    +0.000 C 
ATOM     10  C   UNL     1       1.013   3.100  18.314  0.00  0.00    +0.000 C 
ATOM     11  C   UNL     1       2.010   2.038  18.760  0.00  0.00    +0.000 C 
ATOM     12  C   UNL     1       3.078   2.786  19.546  0.00  0.00    +0.000 C 
BRANCH  12  13
ATOM     13  S   UNL     1       2.566   2.971  21.305  0.00  0.00    +0.000 S 
ATOM     14  H   UNL     1       1.239   2.908  21.105  0.00  0.00    +0.000 HD
ENDBRANCH  12  13
ENDBRANCH   6   8
BRANCH   1  16
ATOM     15  O   UNL     1       7.432   5.108  14.836  0.00  0.00    +0.000 OA
ATOM     16  C   UNL     1       6.804   4.517  15.710  0.00  0.00    +0.000 C 
BRANCH  16  17
ATOM     17  O   UNL     1       6.395   3.251  15.534  0.00  0.00    +0.000 OA
ATOM     18  H   UNL     1       6.258   2.778  16.390  0.00  0.00    +0.000 HD
ENDBRANCH  16  17
ENDBRANCH   1  16
TORSDOF 4
ENDMDL
MODEL 2
REMARK VINA RESULT:      -6.5      3.045      5.578
REMARK  Name = 
REMARK  4 active torsions:
REMARK  status: ('A' for Active; 'I' for Inactive)
REMARK    1  A    between atoms: C_2  and  O_3
REMARK    2  A    between atoms: C_2  and  C_4
REMARK    3  A    between atoms: C_9  and  C_11
REMARK    4  A    between atoms: C_15  and  S_16
REMARK                            x       y       z     vdW  Elec       q    Type
REMARK                         _______ _______ _______ _____ _____    ______ ____
ROOT
ATOM      1  C   UNL     1       2.909   3.350  19.785  0.00  0.00    +0.000 C 
ATOM      2  C   UNL     1       1.676   2.565  19.306  0.00  0.00    +0.000 C 
ATOM      3  C   UNL     1       1.219   3.306  18.065  0.00  0.00    +0.000 C 
ATOM      4  C   UNL     1       2.504   3.850  17.469  0.00  0.00    +0.000 C 
ATOM      5  N   UNL     1       3.536   3.695  18.490  0.00  0.00    +0.000 N 
ATOM      6  C   UNL     1       4.828   4.161  18.337  0.00  0.00    +0.000 C 
ATOM      7  O   UNL     1       5.649   4.022  19.240  0.00  0.00    +0.000 OA
ENDROOT
BRANCH   6   8
ATOM      8  C   UNL     1       5.172   4.859  17.014  0.00  0.00    +0.000 C 
ATOM      9  C   UNL     1       4.946   6.370  17.171  0.00  0.00    +0.000 C 
ATOM     10  C   UNL     1       6.326   7.023  17.230  0.00  0.00    +0.000 C 
ATOM     11  C   UNL     1       7.347   5.892  17.225  0.00  0.00    +0.000 C 
ATOM     12  C   UNL     1       6.635   4.703  16.593  0.00  0.00    +0.000 C 
BRANCH  12  13
ATOM     13  S   UNL     1       6.778   4.772  14.760  0.00  0.00    +0.000 S 
ATOM     14  H   UNL     1       7.837   3.955  14.639  0.00  0.00    +0.000 HD
ENDBRANCH  12  13
ENDBRANCH   6   8
BRANCH   1  16
ATOM     15  O   UNL     1       2.998   2.392  22.010  0.00  0.00    +0.000 OA
ATOM     16  C   UNL     1       3.534   2.507  20.911  0.00  0.00    +0.000 C 
BRANCH  16  17
ATOM     17  O   UNL     1       4.711   1.919  20.649  0.00  0.00    +0.000 OA
ATOM     18  H   UNL     1       5.431   2.575  20.484  0.00  0.00    +0.000 HD
ENDBRANCH  16  17
ENDBRANCH   1  16
TORSDOF 4
ENDMDL
MODEL 3
REMARK VINA RESULT:      -6.4      3.090      5.700
REMARK  Name = 
REMARK  4 active torsions:
REMARK  status: ('A' for Active; 'I' for Inactive)
REMARK    1  A    between atoms: C_2  and  O_3
REMARK    2  A    between atoms: C_2  and  C_4
REMARK    3  A    between atoms: C_9  and  C_11
REMARK    4  A    between atoms: C_15  and  S_16
REMARK                            x       y       z     vdW  Elec       q    Type
REMARK                         _______ _______ _______ _____ _____    ______ ____
ROOT
ATOM      1  C   UNL     1       2.240   3.784  19.598  0.00  0.00    +0.000 C 
ATOM      2  C   UNL     1       1.980   2.276  19.439  0.00  0.00    +0.000 C 
ATOM      3  C   UNL     1       2.129   2.025  17.951  0.00  0.00    +0.000 C 
ATOM      4  C   UNL     1       3.170   3.037  17.511  0.00  0.00    +0.000 C 
ATOM      5  N   UNL     1       3.326   3.982  18.614  0.00  0.00    +0.000 N 
ATOM      6  C   UNL     1       4.134   5.101  18.542  0.00  0.00    +0.000 C 
ATOM      7  O   UNL     1       4.210   5.873  19.494  0.00  0.00    +0.000 OA
ENDROOT
BRANCH   6   8
ATOM      8  C   UNL     1       4.904   5.331  17.234  0.00  0.00    +0.000 C 
ATOM      9  C   UNL     1       5.222   6.826  17.097  0.00  0.00    +0.000 C 
ATOM     10  C   UNL     1       6.720   6.988  17.355  0.00  0.00    +0.000 C 
ATOM     11  C   UNL     1       7.247   5.616  17.754  0.00  0.00    +0.000 C 
ATOM     12  C   UNL     1       6.256   4.614  17.177  0.00  0.00    +0.000 C 
BRANCH  12  13
ATOM     13  S   UNL     1       6.689   4.218  15.433  0.00  0.00    +0.000 S 
ATOM     14  H   UNL     1       5.505   3.690  15.077  0.00  0.00    +0.000 HD
ENDBRANCH  12  13
ENDBRANCH   6   8
BRANCH   1  16
ATOM     15  O   UNL     1       2.317   3.122  21.928  0.00  0.00    +0.000 OA
ATOM     16  C   UNL     1       2.318   4.041  21.113  0.00  0.00    +0.000 C 
BRANCH  16  17
ATOM     17  O   UNL     1       2.360   5.321  21.512  0.00  0.00    +0.000 OA
ATOM     18  H   UNL     1       1.768   5.495  22.283  0.00  0.00    +0.000 HD
ENDBRANCH  16  17
ENDBRANCH   1  16
TORSDOF 4
ENDMDL
MODEL 4
REMARK VINA RESULT:      -6.3      2.184      3.003
REMARK  Name = 
REMARK  4 active torsions:
REMARK  status: ('A' for Active; 'I' for Inactive)
REMARK    1  A    between atoms: C_2  and  O_3
REMARK    2  A    between atoms: C_2  and  C_4
REMARK    3  A    between atoms: C_9  and  C_11
REMARK    4  A    between atoms: C_15  and  S_16
REMARK                            x       y       z     vdW  Elec       q    Type
REMARK                         _______ _______ _______ _____ _____    ______ ____
ROOT
ATOM      1  C   UNL     1       6.982   5.078  17.287  0.00  0.00    +0.000 C 
ATOM      2  C   UNL     1       6.937   5.294  15.764  0.00  0.00    +0.000 C 
ATOM      3  C   UNL     1       6.193   4.084  15.236  0.00  0.00    +0.000 C 
ATOM      4  C   UNL     1       5.222   3.736  16.349  0.00  0.00    +0.000 C 
ATOM      5  N   UNL     1       5.642   4.497  17.523  0.00  0.00    +0.000 N 
ATOM      6  C   UNL     1       5.043   4.371  18.761  0.00  0.00    +0.000 C 
ATOM      7  O   UNL     1       5.453   5.021  19.719  0.00  0.00    +0.000 OA
ENDROOT
BRANCH   6   8
ATOM      8  C   UNL     1       3.871   3.386  18.879  0.00  0.00    +0.000 C 
ATOM      9  C   UNL     1       4.125   2.445  20.064  0.00  0.00    +0.000 C 
ATOM     10  C   UNL     1       3.160   2.858  21.175  0.00  0.00    +0.000 C 
ATOM     11  C   UNL     1       2.433   4.104  20.684  0.00  0.00    +0.000 C 
ATOM     12  C   UNL     1       2.525   4.056  19.165  0.00  0.00    +0.000 C 
BRANCH  12  13
ATOM     13  S   UNL     1       1.153   3.043  18.472  0.00  0.00    +0.000 S 
ATOM     14  H   UNL     1       0.704   3.946  17.584  0.00  0.00    +0.000 HD
ENDBRANCH  12  13
ENDBRANCH   6   8
BRANCH   1  16
ATOM     15  O   UNL     1       7.524   7.440  17.252  0.00  0.00    +0.000 OA
ATOM     16  C   UNL     1       7.533   6.386  17.882  0.00  0.00    +0.000 C 
BRANCH  16  17
ATOM     17  O   UNL     1       8.050   6.322  19.119  0.00  0.00    +0.000 OA
ATOM     18  H   UNL     1       8.355   7.202  19.445  0.00  0.00    +0.000 HD
ENDBRANCH  16  17
ENDBRANCH   1  16
TORSDOF 4
ENDMDL
MODEL 5
REMARK VINA RESULT:      -6.2      1.826      2.105
REMARK  Name = 
REMARK  4 active torsions:
REMARK  status: ('A' for Active; 'I' for Inactive)
REMARK    1  A    between atoms: C_2  and  O_3
REMARK    2  A    between atoms: C_2  and  C_4
REMARK    3  A    between atoms: C_9  and  C_11
REMARK    4  A    between atoms: C_15  and  S_16
REMARK                            x       y       z     vdW  Elec       q    Type
REMARK                         _______ _______ _______ _____ _____    ______ ____
ROOT
ATOM      1  C   UNL     1       5.941   5.209  17.420  0.00  0.00    +0.000 C 
ATOM      2  C   UNL     1       6.005   6.716  17.122  0.00  0.00    +0.000 C 
ATOM      3  C   UNL     1       4.553   7.144  17.044  0.00  0.00    +0.000 C 
ATOM      4  C   UNL     1       3.846   6.222  18.020  0.00  0.00    +0.000 C 
ATOM      5  N   UNL     1       4.792   5.160  18.350  0.00  0.00    +0.000 N 
ATOM      6  C   UNL     1       4.469   4.081  19.151  0.00  0.00    +0.000 C 
ATOM      7  O   UNL     1       5.299   3.205  19.377  0.00  0.00    +0.000 OA
ENDROOT
BRANCH   6   8
ATOM      8  C   UNL     1       3.044   4.029  19.720  0.00  0.00    +0.000 C 
ATOM      9  C   UNL     1       2.041   4.250  18.580  0.00  0.00    +0.000 C 
ATOM     10  C   UNL     1       1.380   2.900  18.302  0.00  0.00    +0.000 C 
ATOM     11  C   UNL     1       2.076   1.878  19.192  0.00  0.00    +0.000 C 
ATOM     12  C   UNL     1       2.674   2.680  20.341  0.00  0.00    +0.000 C 
BRANCH  12  13
ATOM     13  S   UNL     1       1.427   2.917  21.674  0.00  0.00    +0.000 S 
ATOM     14  H   UNL     1       2.281   3.265  22.650  0.00  0.00    +0.000 HD
ENDBRANCH  12  13
ENDBRANCH   6   8
BRANCH   1  16
ATOM     15  O   UNL     1       8.093   4.229  16.884  0.00  0.00    +0.000 OA
ATOM     16  C   UNL     1       7.387   4.778  17.726  0.00  0.00    +0.000 C 
BRANCH  16  17
ATOM     17  O   UNL     1       7.840   5.007  18.969  0.00  0.00    +0.000 OA
ATOM     18  H   UNL     1       8.825   4.967  19.023  0.00  0.00    +0.000 HD
ENDBRANCH  16  17
ENDBRANCH   1  16
TORSDOF 4
ENDMDL
MODEL 6
REMARK VINA RESULT:      -6.2      1.528      1.632
REMARK  Name = 
REMARK  4 active torsions:
REMARK  status: ('A' for Active; 'I' for Inactive)
REMARK    1  A    between atoms: C_2  and  O_3
REMARK    2  A    between atoms: C_2  and  C_4
REMARK    3  A    between atoms: C_9  and  C_11
REMARK    4  A    between atoms: C_15  and  S_16
REMARK                            x       y       z     vdW  Elec       q    Type
REMARK                         _______ _______ _______ _____ _____    ______ ____
ROOT
ATOM      1  C   UNL     1       5.167   5.208  16.206  0.00  0.00    +0.000 C 
ATOM      2  C   UNL     1       5.723   6.632  16.378  0.00  0.00    +0.000 C 
ATOM      3  C   UNL     1       4.581   7.408  17.002  0.00  0.00    +0.000 C 
ATOM      4  C   UNL     1       3.855   6.377  17.847  0.00  0.00    +0.000 C 
ATOM      5  N   UNL     1       4.373   5.071  17.446  0.00  0.00    +0.000 N 
ATOM      6  C   UNL     1       3.882   3.879  17.943  0.00  0.00    +0.000 C 
ATOM      7  O   UNL     1       4.341   2.809  17.553  0.00  0.00    +0.000 OA
ENDROOT
BRANCH   6   8
ATOM      8  C   UNL     1       2.748   3.959  18.975  0.00  0.00    +0.000 C 
ATOM      9  C   UNL     1       1.401   3.827  18.250  0.00  0.00    +0.000 C 
ATOM     10  C   UNL     1       0.852   2.440  18.582  0.00  0.00    +0.000 C 
ATOM     11  C   UNL     1       1.924   1.727  19.396  0.00  0.00    +0.000 C 
ATOM     12  C   UNL     1       2.772   2.832  20.010  0.00  0.00    +0.000 C 
BRANCH  12  13
ATOM     13  S   UNL     1       2.026   3.409  21.591  0.00  0.00    +0.000 S 
ATOM     14  H   UNL     1       2.366   2.346  22.339  0.00  0.00    +0.000 HD
ENDBRANCH  12  13
ENDBRANCH   6   8
BRANCH   1  16
ATOM     15  O   UNL     1       7.518   4.632  16.077  0.00  0.00    +0.000 OA
ATOM     16  C   UNL     1       6.363   4.337  15.782  0.00  0.00    +0.000 C 
BRANCH  16  17
ATOM     17  O   UNL     1       6.091   3.247  15.048  0.00  0.00    +0.000 OA
ATOM     18  H   UNL     1       6.903   2.728  14.830  0.00  0.00    +0.000 HD
ENDBRANCH  16  17
ENDBRANCH   1  16
TORSDOF 4
ENDMDL
MODEL 7
REMARK VINA RESULT:      -6.1      3.126      5.528
REMARK  Name = 
REMARK  4 active torsions:
REMARK  status: ('A' for Active; 'I' for Inactive)
REMARK    1  A    between atoms: C_2  and  O_3
REMARK    2  A    between atoms: C_2  and  C_4
REMARK    3  A    between atoms: C_9  and  C_11
REMARK    4  A    between atoms: C_15  and  S_16
REMARK                            x       y       z     vdW  Elec       q    Type
REMARK                         _______ _______ _______ _____ _____    ______ ____
ROOT
ATOM      1  C   UNL     1       2.789   4.391  20.806  0.00  0.00    +0.000 C 
ATOM      2  C   UNL     1       1.409   5.066  20.729  0.00  0.00    +0.000 C 
ATOM      3  C   UNL     1       1.707   6.474  20.253  0.00  0.00    +0.000 C 
ATOM      4  C   UNL     1       2.927   6.311  19.367  0.00  0.00    +0.000 C 
ATOM      5  N   UNL     1       3.445   4.968  19.613  0.00  0.00    +0.000 N 
ATOM      6  C   UNL     1       4.610   4.490  19.043  0.00  0.00    +0.000 C 
ATOM      7  O   UNL     1       5.010   3.359  19.304  0.00  0.00    +0.000 OA
ENDROOT
BRANCH   6   8
ATOM      8  C   UNL     1       5.369   5.432  18.097  0.00  0.00    +0.000 C 
ATOM      9  C   UNL     1       6.875   5.304  18.366  0.00  0.00    +0.000 C 
ATOM     10  C   UNL     1       7.474   4.541  17.185  0.00  0.00    +0.000 C 
ATOM     11  C   UNL     1       6.310   4.127  16.294  0.00  0.00    +0.000 C 
ATOM     12  C   UNL     1       5.185   5.101  16.614  0.00  0.00    +0.000 C 
BRANCH  12  13
ATOM     13  S   UNL     1       5.352   6.628  15.600  0.00  0.00    +0.000 S 
ATOM     14  H   UNL     1       6.339   7.199  16.309  0.00  0.00    +0.000 HD
ENDBRANCH  12  13
ENDBRANCH   6   8
BRANCH   1  16
ATOM     15  O   UNL     1       2.576   2.420  22.200  0.00  0.00    +0.000 OA
ATOM     16  C   UNL     1       2.515   2.900  21.072  0.00  0.00    +0.000 C 
BRANCH  16  17
ATOM     17  O   UNL     1       2.229   2.135  20.007  0.00  0.00    +0.000 OA
ATOM     18  H   UNL     1       1.513   2.522  19.448  0.00  0.00    +0.000 HD
ENDBRANCH  16  17
ENDBRANCH   1  16
TORSDOF 4
ENDMDL
MODEL 8
REMARK VINA RESULT:      -6.0      2.034      2.461
REMARK  Name = 
REMARK  4 active torsions:
REMARK  status: ('A' for Active; 'I' for Inactive)
REMARK    1  A    between atoms: C_2  and  O_3
REMARK    2  A    between atoms: C_2  and  C_4
REMARK    3  A    between atoms: C_9  and  C_11
REMARK    4  A    between atoms: C_15  and  S_16
REMARK                            x       y       z     vdW  Elec       q    Type
REMARK                         _______ _______ _______ _____ _____    ______ ____
ROOT
ATOM      1  C   UNL     1       6.475   5.004  17.381  0.00  0.00    +0.000 C 
ATOM      2  C   UNL     1       6.637   6.426  16.817  0.00  0.00    +0.000 C 
ATOM      3  C   UNL     1       5.284   6.744  16.212  0.00  0.00    +0.000 C 
ATOM      4  C   UNL     1       4.303   5.990  17.090  0.00  0.00    +0.000 C 
ATOM      5  N   UNL     1       5.093   5.070  17.903  0.00  0.00    +0.000 N 
ATOM      6  C   UNL     1       4.530   4.150  18.768  0.00  0.00    +0.000 C 
ATOM      7  O   UNL     1       5.244   3.385  19.411  0.00  0.00    +0.000 OA
ENDROOT
BRANCH   6   8
ATOM      8  C   UNL     1       2.999   4.127  18.871  0.00  0.00    +0.000 C 
ATOM      9  C   UNL     1       2.467   2.889  18.135  0.00  0.00    +0.000 C 
ATOM     10  C   UNL     1       1.996   1.903  19.204  0.00  0.00    +0.000 C 
ATOM     11  C   UNL     1       2.360   2.512  20.553  0.00  0.00    +0.000 C 
ATOM     12  C   UNL     1       2.476   4.011  20.305  0.00  0.00    +0.000 C 
BRANCH  12  13
ATOM     13  S   UNL     1       0.825   4.812  20.444  0.00  0.00    +0.000 S 
ATOM     14  H   UNL     1       1.216   6.063  20.147  0.00  0.00    +0.000 HD
ENDBRANCH  12  13
ENDBRANCH   6   8
BRANCH   1  16
ATOM     15  O   UNL     1       8.657   4.018  17.765  0.00  0.00    +0.000 OA
ATOM     16  C   UNL     1       7.751   4.727  18.196  0.00  0.00    +0.000 C 
BRANCH  16  17
ATOM     17  O   UNL     1       7.823   5.276  19.419  0.00  0.00    +0.000 OA
ATOM     18  H   UNL     1       8.724   5.195  19.815  0.00  0.00    +0.000 HD
ENDBRANCH  16  17
ENDBRANCH   1  16
TORSDOF 4
ENDMDL
MODEL 9
REMARK VINA RESULT:      -5.8      1.516      1.619
REMARK  Name = 
REMARK  4 active torsions:
REMARK  status: ('A' for Active; 'I' for Inactive)
REMARK    1  A    between atoms: C_2  and  O_3
REMARK    2  A    between atoms: C_2  and  C_4
REMARK    3  A    between atoms: C_9  and  C_11
REMARK    4  A    between atoms: C_15  and  S_16
REMARK                            x       y       z     vdW  Elec       q    Type
REMARK                         _______ _______ _______ _____ _____    ______ ____
ROOT
ATOM      1  C   UNL     1       5.662   6.144  17.214  0.00  0.00    +0.000 C 
ATOM      2  C   UNL     1       7.167   5.862  17.367  0.00  0.00    +0.000 C 
ATOM      3  C   UNL     1       7.386   5.804  18.866  0.00  0.00    +0.000 C 
ATOM      4  C   UNL     1       6.080   5.252  19.406  0.00  0.00    +0.000 C 
ATOM      5  N   UNL     1       5.114   5.320  18.313  0.00  0.00    +0.000 N 
ATOM      6  C   UNL     1       3.782   4.982  18.458  0.00  0.00    +0.000 C 
ATOM      7  O   UNL     1       3.010   5.080  17.508  0.00  0.00    +0.000 OA
ENDROOT
BRANCH   6   8
ATOM      8  C   UNL     1       3.325   4.500  19.842  0.00  0.00    +0.000 C 
ATOM      9  C   UNL     1       2.277   5.478  20.392  0.00  0.00    +0.000 C 
ATOM     10  C   UNL     1       0.924   4.770  20.315  0.00  0.00    +0.000 C 
ATOM     11  C   UNL     1       1.166   3.436  19.618  0.00  0.00    +0.000 C 
ATOM     12  C   UNL     1       2.643   3.129  19.826  0.00  0.00    +0.000 C 
BRANCH  12  13
ATOM     13  S   UNL     1       2.899   2.276  21.437  0.00  0.00    +0.000 S 
ATOM     14  H   UNL     1       4.234   2.153  21.357  0.00  0.00    +0.000 HD
ENDBRANCH  12  13
ENDBRANCH   6   8
BRANCH   1  16
ATOM     15  O   UNL     1       5.197   6.964  14.980  0.00  0.00    +0.000 OA
ATOM     16  C   UNL     1       5.357   5.991  15.713  0.00  0.00    +0.000 C 
BRANCH  16  17
ATOM     17  O   UNL     1       5.245   4.741  15.239  0.00  0.00    +0.000 OA
ATOM     18  H   UNL     1       4.327   4.531  14.943  0.00  0.00    +0.000 HD
ENDBRANCH  16  17
ENDBRANCH   1  16
TORSDOF 4
ENDMDL
