MODEL 1
REMARK VINA RESULT:      -8.6      0.000      0.000
REMARK  Name = 
REMARK  2 active torsions:
REMARK  status: ('A' for Active; 'I' for Inactive)
REMARK    1  A    between atoms: C_1  and  N_2
REMARK    2  A    between atoms: C_12  and  O_13
REMARK                            x       y       z     vdW  Elec       q    Type
REMARK                         _______ _______ _______ _____ _____    ______ ____
ROOT
ATOM      1  C   UNL     1       1.004   2.243  18.916  0.00  0.00    +0.000 C 
ATOM      2  N   UNL     1       2.106   3.265  19.003  0.00  0.00    +0.000 N 
ATOM      3  O   UNL     1       3.295   2.593  19.156  0.00  0.00    +0.000 OA
ATOM      4  C   UNL     1       2.126   4.081  17.724  0.00  0.00    +0.000 C 
ATOM      5  C   UNL     1       3.114   5.244  17.804  0.00  0.00    +0.000 C 
ATOM      6  N   UNL     1       2.817   6.082  18.971  0.00  0.00    +0.000 N 
ATOM      7  C   UNL     1       2.297   7.353  18.891  0.00  0.00    +0.000 A 
ATOM      8  C   UNL     1       2.563   8.172  17.805  0.00  0.00    +0.000 A 
ATOM      9  C   UNL     1       2.072   9.475  17.770  0.00  0.00    +0.000 A 
ATOM     10  C   UNL     1       1.329   9.984  18.812  0.00  0.00    +0.000 A 
ATOM     11  N   UNL     1       0.903  11.257  18.722  0.00  0.00    +0.000 NA
ATOM     12  C   UNL     1       0.216  11.729  19.766  0.00  0.00    +0.000 A 
ATOM     13  C   UNL     1      -0.081  11.021  20.926  0.00  0.00    +0.000 A 
ATOM     14  C   UNL     1      -0.790  11.591  22.006  0.00  0.00    +0.000 A 
ATOM     15  C   UNL     1      -1.045  10.847  23.154  0.00  0.00    +0.000 A 
ATOM     16  C   UNL     1      -0.604   9.531  23.231  0.00  0.00    +0.000 A 
ATOM     17  C   UNL     1       0.089   8.956  22.158  0.00  0.00    +0.000 A 
ATOM     18  C   UNL     1       0.370   9.683  20.984  0.00  0.00    +0.000 A 
ATOM     19  C   UNL     1       1.095   9.123  19.906  0.00  0.00    +0.000 A 
ATOM     20  N   UNL     1       1.559   7.834  19.918  0.00  0.00    +0.000 NA
ATOM     21  C   UNL     1       2.837   5.350  20.242  0.00  0.00    +0.000 C 
ATOM     22  C   UNL     1       1.851   4.182  20.193  0.00  0.00    +0.000 C 
ENDROOT
BRANCH  12  23
ATOM     23  O   UNL     1      -0.176  13.022  19.607  0.00  0.00    +0.000 OA
ATOM     24  H   UNL     1       0.635  13.485  19.882  0.00  0.00    +0.000 HD
ENDBRANCH  12  23
TORSDOF 1
ENDMDL
MODEL 2
REMARK VINA RESULT:      -7.5      1.720      7.565
REMARK  Name = 
REMARK  2 active torsions:
REMARK  status: ('A' for Active; 'I' for Inactive)
REMARK    1  A    between atoms: C_1  and  N_2
REMARK    2  A    between atoms: C_12  and  O_13
REMARK                            x       y       z     vdW  Elec       q    Type
REMARK                         _______ _______ _______ _____ _____    ______ ____
ROOT
ATOM      1  C   UNL     1      -1.301  11.527  18.183  0.00  0.00    +0.000 C 
ATOM      2  N   UNL     1      -0.316  11.088  19.233  0.00  0.00    +0.000 N 
ATOM      3  O   UNL     1      -0.106  12.147  20.085  0.00  0.00    +0.000 OA
ATOM      4  C   UNL     1      -0.895   9.910  19.995  0.00  0.00    +0.000 C 
ATOM      5  C   UNL     1       0.115   9.308  20.971  0.00  0.00    +0.000 C 
ATOM      6  N   UNL     1       1.345   8.938  20.263  0.00  0.00    +0.000 N 
ATOM      7  C   UNL     1       1.740   7.640  20.036  0.00  0.00    +0.000 A 
ATOM      8  C   UNL     1       1.402   6.622  20.914  0.00  0.00    +0.000 A 
ATOM      9  C   UNL     1       1.857   5.324  20.695  0.00  0.00    +0.000 A 
ATOM     10  C   UNL     1       2.662   5.024  19.618  0.00  0.00    +0.000 A 
ATOM     11  N   UNL     1       3.083   3.754  19.477  0.00  0.00    +0.000 NA
ATOM     12  C   UNL     1       3.890   3.507  18.442  0.00  0.00    +0.000 A 
ATOM     13  C   UNL     1       4.331   4.447  17.517  0.00  0.00    +0.000 A 
ATOM     14  C   UNL     1       5.208   4.123  16.459  0.00  0.00    +0.000 A 
ATOM     15  C   UNL     1       5.636   5.105  15.571  0.00  0.00    +0.000 A 
ATOM     16  C   UNL     1       5.188   6.412  15.724  0.00  0.00    +0.000 A 
ATOM     17  C   UNL     1       4.309   6.738  16.764  0.00  0.00    +0.000 A 
ATOM     18  C   UNL     1       3.861   5.769  17.685  0.00  0.00    +0.000 A 
ATOM     19  C   UNL     1       2.996   6.093  18.757  0.00  0.00    +0.000 A 
ATOM     20  N   UNL     1       2.520   7.360  18.966  0.00  0.00    +0.000 NA
ATOM     21  C   UNL     1       1.976  10.056  19.551  0.00  0.00    +0.000 C 
ATOM     22  C   UNL     1       0.988  10.674  18.562  0.00  0.00    +0.000 C 
ENDROOT
BRANCH  12  23
ATOM     23  O   UNL     1       4.280   2.205  18.367  0.00  0.00    +0.000 OA
ATOM     24  H   UNL     1       4.210   2.057  17.408  0.00  0.00    +0.000 HD
ENDBRANCH  12  23
TORSDOF 1
ENDMDL
MODEL 3
REMARK VINA RESULT:      -7.2      1.760      6.895
REMARK  Name = 
REMARK  2 active torsions:
REMARK  status: ('A' for Active; 'I' for Inactive)
REMARK    1  A    between atoms: C_1  and  N_2
REMARK    2  A    between atoms: C_12  and  O_13
REMARK                            x       y       z     vdW  Elec       q    Type
REMARK                         _______ _______ _______ _____ _____    ______ ____
ROOT
ATOM      1  C   UNL     1       0.108  12.224  21.612  0.00  0.00    +0.000 C 
ATOM      2  N   UNL     1       0.023  11.535  20.277  0.00  0.00    +0.000 N 
ATOM      3  O   UNL     1      -0.991  12.124  19.561  0.00  0.00    +0.000 OA
ATOM      4  C   UNL     1       1.344  11.702  19.548  0.00  0.00    +0.000 C 
ATOM      5  C   UNL     1       1.389  10.893  18.253  0.00  0.00    +0.000 C 
ATOM      6  N   UNL     1       1.102   9.481  18.527  0.00  0.00    +0.000 N 
ATOM      7  C   UNL     1       2.039   8.477  18.447  0.00  0.00    +0.000 A 
ATOM      8  C   UNL     1       3.104   8.557  17.563  0.00  0.00    +0.000 A 
ATOM      9  C   UNL     1       4.011   7.505  17.459  0.00  0.00    +0.000 A 
ATOM     10  C   UNL     1       3.866   6.362  18.213  0.00  0.00    +0.000 A 
ATOM     11  N   UNL     1       4.766   5.376  18.047  0.00  0.00    +0.000 NA
ATOM     12  C   UNL     1       4.574   4.268  18.768  0.00  0.00    +0.000 A 
ATOM     13  C   UNL     1       3.526   4.053  19.657  0.00  0.00    +0.000 A 
ATOM     14  C   UNL     1       3.366   2.843  20.369  0.00  0.00    +0.000 A 
ATOM     15  C   UNL     1       2.289   2.670  21.232  0.00  0.00    +0.000 A 
ATOM     16  C   UNL     1       1.370   3.698  21.398  0.00  0.00    +0.000 A 
ATOM     17  C   UNL     1       1.529   4.904  20.704  0.00  0.00    +0.000 A 
ATOM     18  C   UNL     1       2.604   5.111  19.818  0.00  0.00    +0.000 A 
ATOM     19  C   UNL     1       2.759   6.314  19.088  0.00  0.00    +0.000 A 
ATOM     20  N   UNL     1       1.889   7.365  19.204  0.00  0.00    +0.000 NA
ATOM     21  C   UNL     1      -0.191   9.259  19.185  0.00  0.00    +0.000 C 
ATOM     22  C   UNL     1      -0.261  10.053  20.490  0.00  0.00    +0.000 C 
ENDROOT
BRANCH  12  23
ATOM     23  O   UNL     1       5.519   3.314  18.544  0.00  0.00    +0.000 OA
ATOM     24  H   UNL     1       5.153   2.891  17.748  0.00  0.00    +0.000 HD
ENDBRANCH  12  23
TORSDOF 1
ENDMDL
MODEL 4
REMARK VINA RESULT:      -7.2      4.992      8.495
REMARK  Name = 
REMARK  2 active torsions:
REMARK  status: ('A' for Active; 'I' for Inactive)
REMARK    1  A    between atoms: C_1  and  N_2
REMARK    2  A    between atoms: C_12  and  O_13
REMARK                            x       y       z     vdW  Elec       q    Type
REMARK                         _______ _______ _______ _____ _____    ______ ____
ROOT
ATOM      1  C   UNL     1       1.688   1.809  20.242  0.00  0.00    +0.000 C 
ATOM      2  N   UNL     1       1.781   3.223  19.734  0.00  0.00    +0.000 N 
ATOM      3  O   UNL     1       0.666   3.902  20.167  0.00  0.00    +0.000 OA
ATOM      4  C   UNL     1       3.036   3.868  20.291  0.00  0.00    +0.000 C 
ATOM      5  C   UNL     1       3.283   5.251  19.691  0.00  0.00    +0.000 C 
ATOM      6  N   UNL     1       3.325   5.168  18.228  0.00  0.00    +0.000 N 
ATOM      7  C   UNL     1       4.469   5.334  17.482  0.00  0.00    +0.000 A 
ATOM      8  C   UNL     1       5.499   6.155  17.916  0.00  0.00    +0.000 A 
ATOM      9  C   UNL     1       6.625   6.352  17.122  0.00  0.00    +0.000 A 
ATOM     10  C   UNL     1       6.737   5.754  15.886  0.00  0.00    +0.000 A 
ATOM     11  N   UNL     1       7.843   6.003  15.161  0.00  0.00    +0.000 NA
ATOM     12  C   UNL     1       7.902   5.436  13.953  0.00  0.00    +0.000 A 
ATOM     13  C   UNL     1       6.921   4.626  13.390  0.00  0.00    +0.000 A 
ATOM     14  C   UNL     1       7.035   4.079  12.093  0.00  0.00    +0.000 A 
ATOM     15  C   UNL     1       6.016   3.291  11.567  0.00  0.00    +0.000 A 
ATOM     16  C   UNL     1       4.882   3.037  12.330  0.00  0.00    +0.000 A 
ATOM     17  C   UNL     1       4.768   3.566  13.621  0.00  0.00    +0.000 A 
ATOM     18  C   UNL     1       5.778   4.374  14.181  0.00  0.00    +0.000 A 
ATOM     19  C   UNL     1       5.660   4.939  15.473  0.00  0.00    +0.000 A 
ATOM     20  N   UNL     1       4.570   4.730  16.275  0.00  0.00    +0.000 NA
ATOM     21  C   UNL     1       2.110   4.599  17.633  0.00  0.00    +0.000 C 
ATOM     22  C   UNL     1       1.843   3.210  18.212  0.00  0.00    +0.000 C 
ENDROOT
BRANCH  12  23
ATOM     23  O   UNL     1       9.043   5.737  13.276  0.00  0.00    +0.000 OA
ATOM     24  H   UNL     1       8.676   6.251  12.535  0.00  0.00    +0.000 HD
ENDBRANCH  12  23
TORSDOF 1
ENDMDL
MODEL 5
REMARK VINA RESULT:      -6.9      1.251      1.462
REMARK  Name = 
REMARK  2 active torsions:
REMARK  status: ('A' for Active; 'I' for Inactive)
REMARK    1  A    between atoms: C_1  and  N_2
REMARK    2  A    between atoms: C_12  and  O_13
REMARK                            x       y       z     vdW  Elec       q    Type
REMARK                         _______ _______ _______ _____ _____    ______ ____
ROOT
ATOM      1  C   UNL     1       2.274   1.288  19.107  0.00  0.00    +0.000 C 
ATOM      2  N   UNL     1       3.314   2.376  19.136  0.00  0.00    +0.000 N 
ATOM      3  O   UNL     1       4.523   1.797  19.442  0.00  0.00    +0.000 OA
ATOM      4  C   UNL     1       3.379   3.036  17.771  0.00  0.00    +0.000 C 
ATOM      5  C   UNL     1       4.299   4.256  17.770  0.00  0.00    +0.000 C 
ATOM      6  N   UNL     1       3.882   5.206  18.806  0.00  0.00    +0.000 N 
ATOM      7  C   UNL     1       3.305   6.426  18.542  0.00  0.00    +0.000 A 
ATOM      8  C   UNL     1       3.602   7.126  17.383  0.00  0.00    +0.000 A 
ATOM      9  C   UNL     1       3.049   8.385  17.160  0.00  0.00    +0.000 A 
ATOM     10  C   UNL     1       2.212   8.969  18.085  0.00  0.00    +0.000 A 
ATOM     11  N   UNL     1       1.729  10.195  17.816  0.00  0.00    +0.000 NA
ATOM     12  C   UNL     1       0.950  10.746  18.751  0.00  0.00    +0.000 A 
ATOM     13  C   UNL     1       0.612  10.164  19.968  0.00  0.00    +0.000 A 
ATOM     14  C   UNL     1      -0.196  10.814  20.926  0.00  0.00    +0.000 A 
ATOM     15  C   UNL     1      -0.490  10.197  22.138  0.00  0.00    +0.000 A 
ATOM     16  C   UNL     1       0.010   8.927  22.400  0.00  0.00    +0.000 A 
ATOM     17  C   UNL     1       0.802   8.271  21.450  0.00  0.00    +0.000 A 
ATOM     18  C   UNL     1       1.125   8.870  20.215  0.00  0.00    +0.000 A 
ATOM     19  C   UNL     1       1.949   8.230  19.259  0.00  0.00    +0.000 A 
ATOM     20  N   UNL     1       2.476   6.982  19.456  0.00  0.00    +0.000 NA
ATOM     21  C   UNL     1       3.853   4.631  20.156  0.00  0.00    +0.000 C 
ATOM     22  C   UNL     1       2.933   3.410  20.188  0.00  0.00    +0.000 C 
ENDROOT
BRANCH  12  23
ATOM     23  O   UNL     1       0.505  11.987  18.413  0.00  0.00    +0.000 OA
ATOM     24  H   UNL     1       1.345  12.478  18.406  0.00  0.00    +0.000 HD
ENDBRANCH  12  23
TORSDOF 1
ENDMDL
MODEL 6
REMARK VINA RESULT:      -6.8      9.843     11.759
REMARK  Name = 
REMARK  2 active torsions:
REMARK  status: ('A' for Active; 'I' for Inactive)
REMARK    1  A    between atoms: C_1  and  N_2
REMARK    2  A    between atoms: C_12  and  O_13
REMARK                            x       y       z     vdW  Elec       q    Type
REMARK                         _______ _______ _______ _____ _____    ______ ____
ROOT
ATOM      1  C   UNL     1       5.333  14.240  24.103  0.00  0.00    +0.000 C 
ATOM      2  N   UNL     1       6.663  13.535  24.131  0.00  0.00    +0.000 N 
ATOM      3  O   UNL     1       6.938  13.205  25.437  0.00  0.00    +0.000 OA
ATOM      4  C   UNL     1       6.576  12.281  23.281  0.00  0.00    +0.000 C 
ATOM      5  C   UNL     1       7.935  11.598  23.131  0.00  0.00    +0.000 C 
ATOM      6  N   UNL     1       8.921  12.543  22.598  0.00  0.00    +0.000 N 
ATOM      7  C   UNL     1       9.450  12.467  21.329  0.00  0.00    +0.000 A 
ATOM      8  C   UNL     1       9.597  11.249  20.683  0.00  0.00    +0.000 A 
ATOM      9  C   UNL     1      10.183  11.189  19.422  0.00  0.00    +0.000 A 
ATOM     10  C   UNL     1      10.644  12.326  18.796  0.00  0.00    +0.000 A 
ATOM     11  N   UNL     1      11.219  12.194  17.587  0.00  0.00    +0.000 NA
ATOM     12  C   UNL     1      11.686  13.312  17.025  0.00  0.00    +0.000 A 
ATOM     13  C   UNL     1      11.634  14.583  17.587  0.00  0.00    +0.000 A 
ATOM     14  C   UNL     1      12.173  15.722  16.950  0.00  0.00    +0.000 A 
ATOM     15  C   UNL     1      12.113  16.969  17.563  0.00  0.00    +0.000 A 
ATOM     16  C   UNL     1      11.510  17.093  18.809  0.00  0.00    +0.000 A 
ATOM     17  C   UNL     1      10.963  15.970  19.442  0.00  0.00    +0.000 A 
ATOM     18  C   UNL     1      11.013  14.691  18.852  0.00  0.00    +0.000 A 
ATOM     19  C   UNL     1      10.490  13.543  19.495  0.00  0.00    +0.000 A 
ATOM     20  N   UNL     1       9.886  13.595  20.723  0.00  0.00    +0.000 NA
ATOM     21  C   UNL     1       9.082  13.752  23.413  0.00  0.00    +0.000 C 
ATOM     22  C   UNL     1       7.737  14.461  23.574  0.00  0.00    +0.000 C 
ENDROOT
BRANCH  12  23
ATOM     23  O   UNL     1      12.259  13.100  15.809  0.00  0.00    +0.000 OA
ATOM     24  H   UNL     1      11.509  13.311  15.224  0.00  0.00    +0.000 HD
ENDBRANCH  12  23
TORSDOF 1
ENDMDL
MODEL 7
REMARK VINA RESULT:      -6.7      4.843      9.303
REMARK  Name = 
REMARK  2 active torsions:
REMARK  status: ('A' for Active; 'I' for Inactive)
REMARK    1  A    between atoms: C_1  and  N_2
REMARK    2  A    between atoms: C_12  and  O_13
REMARK                            x       y       z     vdW  Elec       q    Type
REMARK                         _______ _______ _______ _____ _____    ______ ____
ROOT
ATOM      1  C   UNL     1      -7.537  13.307  24.148  0.00  0.00    +0.000 C 
ATOM      2  N   UNL     1      -6.367  14.092  23.621  0.00  0.00    +0.000 N 
ATOM      3  O   UNL     1      -6.553  15.410  23.964  0.00  0.00    +0.000 OA
ATOM      4  C   UNL     1      -5.091  13.562  24.248  0.00  0.00    +0.000 C 
ATOM      5  C   UNL     1      -3.845  14.204  23.640  0.00  0.00    +0.000 C 
ATOM      6  N   UNL     1      -3.843  14.025  22.184  0.00  0.00    +0.000 N 
ATOM      7  C   UNL     1      -2.973  13.196  21.514  0.00  0.00    +0.000 A 
ATOM      8  C   UNL     1      -1.700  12.944  22.001  0.00  0.00    +0.000 A 
ATOM      9  C   UNL     1      -0.816  12.145  21.280  0.00  0.00    +0.000 A 
ATOM     10  C   UNL     1      -1.176  11.602  20.066  0.00  0.00    +0.000 A 
ATOM     11  N   UNL     1      -0.266  10.857  19.413  0.00  0.00    +0.000 NA
ATOM     12  C   UNL     1      -0.636  10.376  18.223  0.00  0.00    +0.000 A 
ATOM     13  C   UNL     1      -1.867  10.589  17.611  0.00  0.00    +0.000 A 
ATOM     14  C   UNL     1      -2.184  10.073  16.335  0.00  0.00    +0.000 A 
ATOM     15  C   UNL     1      -3.423  10.332  15.757  0.00  0.00    +0.000 A 
ATOM     16  C   UNL     1      -4.356  11.098  16.446  0.00  0.00    +0.000 A 
ATOM     17  C   UNL     1      -4.052  11.603  17.717  0.00  0.00    +0.000 A 
ATOM     18  C   UNL     1      -2.805  11.366  18.328  0.00  0.00    +0.000 A 
ATOM     19  C   UNL     1      -2.475  11.896  19.598  0.00  0.00    +0.000 A 
ATOM     20  N   UNL     1      -3.346  12.660  20.329  0.00  0.00    +0.000 NA
ATOM     21  C   UNL     1      -5.033  14.569  21.520  0.00  0.00    +0.000 C 
ATOM     22  C   UNL     1      -6.296  13.938  22.107  0.00  0.00    +0.000 C 
ENDROOT
BRANCH  12  23
ATOM     23  O   UNL     1       0.335   9.639  17.619  0.00  0.00    +0.000 OA
ATOM     24  H   UNL     1       1.126  10.007  18.049  0.00  0.00    +0.000 HD
ENDBRANCH  12  23
TORSDOF 1
ENDMDL
MODEL 8
REMARK VINA RESULT:      -6.3      2.145      3.691
REMARK  Name = 
REMARK  2 active torsions:
REMARK  status: ('A' for Active; 'I' for Inactive)
REMARK    1  A    between atoms: C_1  and  N_2
REMARK    2  A    between atoms: C_12  and  O_13
REMARK                            x       y       z     vdW  Elec       q    Type
REMARK                         _______ _______ _______ _____ _____    ______ ____
ROOT
ATOM      1  C   UNL     1       7.475   5.335  17.746  0.00  0.00    +0.000 C 
ATOM      2  N   UNL     1       6.014   4.992  17.641  0.00  0.00    +0.000 N 
ATOM      3  O   UNL     1       5.884   3.965  16.736  0.00  0.00    +0.000 OA
ATOM      4  C   UNL     1       5.509   4.556  19.004  0.00  0.00    +0.000 C 
ATOM      5  C   UNL     1       3.995   4.345  19.012  0.00  0.00    +0.000 C 
ATOM      6  N   UNL     1       3.312   5.557  18.548  0.00  0.00    +0.000 N 
ATOM      7  C   UNL     1       2.568   6.379  19.363  0.00  0.00    +0.000 A 
ATOM      8  C   UNL     1       1.898   5.880  20.469  0.00  0.00    +0.000 A 
ATOM      9  C   UNL     1       1.107   6.718  21.249  0.00  0.00    +0.000 A 
ATOM     10  C   UNL     1       0.957   8.051  20.935  0.00  0.00    +0.000 A 
ATOM     11  N   UNL     1       0.161   8.800  21.720  0.00  0.00    +0.000 NA
ATOM     12  C   UNL     1       0.011  10.079  21.366  0.00  0.00    +0.000 A 
ATOM     13  C   UNL     1       0.597  10.687  20.260  0.00  0.00    +0.000 A 
ATOM     14  C   UNL     1       0.374  12.041  19.927  0.00  0.00    +0.000 A 
ATOM     15  C   UNL     1       0.968  12.597  18.798  0.00  0.00    +0.000 A 
ATOM     16  C   UNL     1       1.793  11.813  18.000  0.00  0.00    +0.000 A 
ATOM     17  C   UNL     1       2.028  10.473  18.332  0.00  0.00    +0.000 A 
ATOM     18  C   UNL     1       1.437   9.877  19.463  0.00  0.00    +0.000 A 
ATOM     19  C   UNL     1       1.643   8.516  19.792  0.00  0.00    +0.000 A 
ATOM     20  N   UNL     1       2.441   7.689  19.048  0.00  0.00    +0.000 NA
ATOM     21  C   UNL     1       3.727   5.992  17.209  0.00  0.00    +0.000 C 
ATOM     22  C   UNL     1       5.239   6.218  17.174  0.00  0.00    +0.000 C 
ENDROOT
BRANCH  12  23
ATOM     23  O   UNL     1      -0.811  10.772  22.200  0.00  0.00    +0.000 OA
ATOM     24  H   UNL     1      -0.273  11.570  22.351  0.00  0.00    +0.000 HD
ENDBRANCH  12  23
TORSDOF 1
ENDMDL
MODEL 9
REMARK VINA RESULT:      -6.2      2.020      3.656
REMARK  Name = 
REMARK  2 active torsions:
REMARK  status: ('A' for Active; 'I' for Inactive)
REMARK    1  A    between atoms: C_1  and  N_2
REMARK    2  A    between atoms: C_12  and  O_13
REMARK                            x       y       z     vdW  Elec       q    Type
REMARK                         _______ _______ _______ _____ _____    ______ ____
ROOT
ATOM      1  C   UNL     1       6.170   5.870  18.022  0.00  0.00    +0.000 C 
ATOM      2  N   UNL     1       4.668   5.796  18.071  0.00  0.00    +0.000 N 
ATOM      3  O   UNL     1       4.270   4.738  17.290  0.00  0.00    +0.000 OA
ATOM      4  C   UNL     1       4.230   5.580  19.508  0.00  0.00    +0.000 C 
ATOM      5  C   UNL     1       2.711   5.655  19.660  0.00  0.00    +0.000 C 
ATOM      6  N   UNL     1       2.211   6.928  19.132  0.00  0.00    +0.000 N 
ATOM      7  C   UNL     1       1.708   7.940  19.916  0.00  0.00    +0.000 A 
ATOM      8  C   UNL     1       1.072   7.671  21.118  0.00  0.00    +0.000 A 
ATOM      9  C   UNL     1       0.522   8.705  21.870  0.00  0.00    +0.000 A 
ATOM     10  C   UNL     1       0.580  10.011  21.436  0.00  0.00    +0.000 A 
ATOM     11  N   UNL     1       0.011  10.959  22.202  0.00  0.00    +0.000 NA
ATOM     12  C   UNL     1       0.056  12.208  21.732  0.00  0.00    +0.000 A 
ATOM     13  C   UNL     1       0.629  12.600  20.527  0.00  0.00    +0.000 A 
ATOM     14  C   UNL     1       0.617  13.938  20.077  0.00  0.00    +0.000 A 
ATOM     15  C   UNL     1       1.187  14.276  18.853  0.00  0.00    +0.000 A 
ATOM     16  C   UNL     1       1.777  13.288  18.075  0.00  0.00    +0.000 A 
ATOM     17  C   UNL     1       1.803  11.961  18.521  0.00  0.00    +0.000 A 
ATOM     18  C   UNL     1       1.230  11.583  19.752  0.00  0.00    +0.000 A 
ATOM     19  C   UNL     1       1.223  10.241  20.199  0.00  0.00    +0.000 A 
ATOM     20  N   UNL     1       1.785   9.219  19.481  0.00  0.00    +0.000 NA
ATOM     21  C   UNL     1       2.563   7.163  17.727  0.00  0.00    +0.000 C 
ATOM     22  C   UNL     1       4.080   7.100  17.547  0.00  0.00    +0.000 C 
ENDROOT
BRANCH  12  23
ATOM     23  O   UNL     1      -0.545  13.110  22.556  0.00  0.00    +0.000 OA
ATOM     24  H   UNL     1      -0.250  12.779  23.422  0.00  0.00    +0.000 HD
ENDBRANCH  12  23
TORSDOF 1
ENDMDL
