MODEL 1
REMARK VINA RESULT:      -8.6      0.000      0.000
REMARK  Name = 
REMARK  8 active torsions:
REMARK  status: ('A' for Active; 'I' for Inactive)
REMARK    1  A    between atoms: C_1  and  O_2
REMARK    2  A    between atoms: O_2  and  C_3
REMARK    3  A    between atoms: C_4  and  C_5
REMARK    4  A    between atoms: C_5  and  C_7
REMARK    5  A    between atoms: C_7  and  C_8
REMARK    6  A    between atoms: C_7  and  C_9
REMARK    7  A    between atoms: C_21  and  C_22
REMARK    8  A    between atoms: C_21  and  C_23
REMARK                            x       y       z     vdW  Elec       q    Type
REMARK                         _______ _______ _______ _____ _____    ______ ____
ROOT
ATOM      1  C   UNL     1       3.910   5.841  17.934  0.00  0.00    +0.000 A 
ATOM      2  C   UNL     1       4.538   5.226  16.831  0.00  0.00    +0.000 A 
ATOM      3  C   UNL     1       4.475   3.829  16.697  0.00  0.00    +0.000 A 
ATOM      4  C   UNL     1       3.814   3.049  17.645  0.00  0.00    +0.000 A 
ATOM      5  C   UNL     1       3.237   3.650  18.757  0.00  0.00    +0.000 A 
ATOM      6  C   UNL     1       3.308   5.038  18.935  0.00  0.00    +0.000 A 
ATOM      7  C   UNL     1       2.799   5.583  20.198  0.00  0.00    +0.000 C 
ATOM      8  C   UNL     1       2.075   4.788  20.991  0.00  0.00    +0.000 C 
ATOM      9  C   UNL     1       1.728   3.368  20.602  0.00  0.00    +0.000 C 
ATOM     10  C   UNL     1       0.323   3.334  19.989  0.00  0.00    +0.000 C 
ATOM     11  C   UNL     1       1.769   2.446  21.826  0.00  0.00    +0.000 C 
ATOM     12  O   UNL     1       2.649   2.794  19.650  0.00  0.00    +0.000 OA
ENDROOT
BRANCH   1  14
ATOM     13  C   UNL     1       2.634   7.832  17.773  0.00  0.00    +0.000 C 
ATOM     14  O   UNL     1       3.861   7.200  18.146  0.00  0.00    +0.000 OA
ENDBRANCH   1  14
BRANCH   2  15
ATOM     15  C   UNL     1       5.370   5.995  15.850  0.00  0.00    +0.000 C 
ATOM     16  O   UNL     1       4.913   7.019  15.343  0.00  0.00    +0.000 OA
BRANCH  15  17
ATOM     17  C   UNL     1       6.792   5.510  15.535  0.00  0.00    +0.000 C 
ATOM     18  C   UNL     1       7.291   4.531  16.604  0.00  0.00    +0.000 C 
BRANCH  17  19
ATOM     19  C   UNL     1       6.859   4.861  14.161  0.00  0.00    +0.000 A 
ATOM     20  C   UNL     1       7.743   5.348  13.189  0.00  0.00    +0.000 A 
ATOM     21  C   UNL     1       7.760   4.789  11.910  0.00  0.00    +0.000 A 
ATOM     22  C   UNL     1       6.910   3.731  11.596  0.00  0.00    +0.000 A 
ATOM     23  C   UNL     1       6.046   3.223  12.562  0.00  0.00    +0.000 A 
ATOM     24  C   UNL     1       6.020   3.782  13.834  0.00  0.00    +0.000 A 
ENDBRANCH  17  19
ENDBRANCH  15  17
ENDBRANCH   2  15
TORSDOF 4
ENDMDL
MODEL 2
REMARK VINA RESULT:      -8.0      4.162      8.030
REMARK  Name = 
REMARK  8 active torsions:
REMARK  status: ('A' for Active; 'I' for Inactive)
REMARK    1  A    between atoms: C_1  and  O_2
REMARK    2  A    between atoms: O_2  and  C_3
REMARK    3  A    between atoms: C_4  and  C_5
REMARK    4  A    between atoms: C_5  and  C_7
REMARK    5  A    between atoms: C_7  and  C_8
REMARK    6  A    between atoms: C_7  and  C_9
REMARK    7  A    between atoms: C_21  and  C_22
REMARK    8  A    between atoms: C_21  and  C_23
REMARK                            x       y       z     vdW  Elec       q    Type
REMARK                         _______ _______ _______ _____ _____    ______ ____
ROOT
ATOM      1  C   UNL     1       1.210   8.433  19.968  0.00  0.00    +0.000 A 
ATOM      2  C   UNL     1       1.229   9.510  19.058  0.00  0.00    +0.000 A 
ATOM      3  C   UNL     1       1.945   9.381  17.856  0.00  0.00    +0.000 A 
ATOM      4  C   UNL     1       2.641   8.210  17.562  0.00  0.00    +0.000 A 
ATOM      5  C   UNL     1       2.663   7.166  18.479  0.00  0.00    +0.000 A 
ATOM      6  C   UNL     1       1.985   7.277  19.701  0.00  0.00    +0.000 A 
ATOM      7  C   UNL     1       2.167   6.194  20.673  0.00  0.00    +0.000 C 
ATOM      8  C   UNL     1       2.746   5.061  20.266  0.00  0.00    +0.000 C 
ATOM      9  C   UNL     1       3.170   4.847  18.831  0.00  0.00    +0.000 C 
ATOM     10  C   UNL     1       2.081   4.066  18.086  0.00  0.00    +0.000 C 
ATOM     11  C   UNL     1       4.489   4.066  18.766  0.00  0.00    +0.000 C 
ATOM     12  O   UNL     1       3.411   6.078  18.116  0.00  0.00    +0.000 OA
ENDROOT
BRANCH   1  14
ATOM     13  C   UNL     1       1.154   9.063  22.253  0.00  0.00    +0.000 C 
ATOM     14  O   UNL     1       0.507   8.422  21.151  0.00  0.00    +0.000 OA
ENDBRANCH   1  14
BRANCH   2  15
ATOM     15  C   UNL     1       0.607  10.837  19.373  0.00  0.00    +0.000 C 
ATOM     16  O   UNL     1       1.271  11.863  19.232  0.00  0.00    +0.000 OA
BRANCH  15  17
ATOM     17  C   UNL     1      -0.861  10.886  19.820  0.00  0.00    +0.000 C 
ATOM     18  C   UNL     1      -1.138  12.129  20.675  0.00  0.00    +0.000 C 
BRANCH  17  19
ATOM     19  C   UNL     1      -1.800  10.856  18.623  0.00  0.00    +0.000 A 
ATOM     20  C   UNL     1      -2.963  11.637  18.614  0.00  0.00    +0.000 A 
ATOM     21  C   UNL     1      -3.853  11.564  17.541  0.00  0.00    +0.000 A 
ATOM     22  C   UNL     1      -3.581  10.725  16.462  0.00  0.00    +0.000 A 
ATOM     23  C   UNL     1      -2.416   9.963  16.449  0.00  0.00    +0.000 A 
ATOM     24  C   UNL     1      -1.531  10.028  17.520  0.00  0.00    +0.000 A 
ENDBRANCH  17  19
ENDBRANCH  15  17
ENDBRANCH   2  15
TORSDOF 4
ENDMDL
MODEL 3
REMARK VINA RESULT:      -7.9      3.007      5.159
REMARK  Name = 
REMARK  8 active torsions:
REMARK  status: ('A' for Active; 'I' for Inactive)
REMARK    1  A    between atoms: C_1  and  O_2
REMARK    2  A    between atoms: O_2  and  C_3
REMARK    3  A    between atoms: C_4  and  C_5
REMARK    4  A    between atoms: C_5  and  C_7
REMARK    5  A    between atoms: C_7  and  C_8
REMARK    6  A    between atoms: C_7  and  C_9
REMARK    7  A    between atoms: C_21  and  C_22
REMARK    8  A    between atoms: C_21  and  C_23
REMARK                            x       y       z     vdW  Elec       q    Type
REMARK                         _______ _______ _______ _____ _____    ______ ____
ROOT
ATOM      1  C   UNL     1       2.047   7.443  19.800  0.00  0.00    +0.000 A 
ATOM      2  C   UNL     1       2.634   7.287  18.527  0.00  0.00    +0.000 A 
ATOM      3  C   UNL     1       2.443   8.286  17.557  0.00  0.00    +0.000 A 
ATOM      4  C   UNL     1       1.675   9.415  17.836  0.00  0.00    +0.000 A 
ATOM      5  C   UNL     1       1.057   9.546  19.073  0.00  0.00    +0.000 A 
ATOM      6  C   UNL     1       1.202   8.553  20.051  0.00  0.00    +0.000 A 
ATOM      7  C   UNL     1       0.411   8.693  21.278  0.00  0.00    +0.000 C 
ATOM      8  C   UNL     1      -0.200   9.858  21.515  0.00  0.00    +0.000 C 
ATOM      9  C   UNL     1      -0.057  11.041  20.584  0.00  0.00    +0.000 C 
ATOM     10  C   UNL     1       1.031  11.982  21.116  0.00  0.00    +0.000 C 
ATOM     11  C   UNL     1      -1.381  11.808  20.476  0.00  0.00    +0.000 C 
ATOM     12  O   UNL     1       0.290  10.669  19.233  0.00  0.00    +0.000 OA
ENDROOT
BRANCH   1  14
ATOM     13  C   UNL     1       1.444   5.352  20.742  0.00  0.00    +0.000 C 
ATOM     14  O   UNL     1       2.202   6.560  20.844  0.00  0.00    +0.000 OA
ENDBRANCH   1  14
BRANCH   2  15
ATOM     15  C   UNL     1       3.362   6.040  18.126  0.00  0.00    +0.000 C 
ATOM     16  O   UNL     1       2.721   5.073  17.717  0.00  0.00    +0.000 OA
BRANCH  15  17
ATOM     17  C   UNL     1       4.896   6.018  18.191  0.00  0.00    +0.000 C 
ATOM     18  C   UNL     1       5.387   5.167  19.367  0.00  0.00    +0.000 C 
BRANCH  17  19
ATOM     19  C   UNL     1       5.493   5.504  16.889  0.00  0.00    +0.000 A 
ATOM     20  C   UNL     1       5.146   6.096  15.668  0.00  0.00    +0.000 A 
ATOM     21  C   UNL     1       5.648   5.585  14.470  0.00  0.00    +0.000 A 
ATOM     22  C   UNL     1       6.513   4.493  14.482  0.00  0.00    +0.000 A 
ATOM     23  C   UNL     1       6.884   3.912  15.692  0.00  0.00    +0.000 A 
ATOM     24  C   UNL     1       6.379   4.413  16.886  0.00  0.00    +0.000 A 
ENDBRANCH  17  19
ENDBRANCH  15  17
ENDBRANCH   2  15
TORSDOF 4
ENDMDL
MODEL 4
REMARK VINA RESULT:      -7.8      1.471      3.174
REMARK  Name = 
REMARK  8 active torsions:
REMARK  status: ('A' for Active; 'I' for Inactive)
REMARK    1  A    between atoms: C_1  and  O_2
REMARK    2  A    between atoms: O_2  and  C_3
REMARK    3  A    between atoms: C_4  and  C_5
REMARK    4  A    between atoms: C_5  and  C_7
REMARK    5  A    between atoms: C_7  and  C_8
REMARK    6  A    between atoms: C_7  and  C_9
REMARK    7  A    between atoms: C_21  and  C_22
REMARK    8  A    between atoms: C_21  and  C_23
REMARK                            x       y       z     vdW  Elec       q    Type
REMARK                         _______ _______ _______ _____ _____    ______ ____
ROOT
ATOM      1  C   UNL     1       4.037   5.038  17.704  0.00  0.00    +0.000 A 
ATOM      2  C   UNL     1       4.480   4.212  16.651  0.00  0.00    +0.000 A 
ATOM      3  C   UNL     1       4.194   2.837  16.691  0.00  0.00    +0.000 A 
ATOM      4  C   UNL     1       3.492   2.284  17.761  0.00  0.00    +0.000 A 
ATOM      5  C   UNL     1       3.097   3.089  18.822  0.00  0.00    +0.000 A 
ATOM      6  C   UNL     1       3.394   4.459  18.826  0.00  0.00    +0.000 A 
ATOM      7  C   UNL     1       3.067   5.215  20.040  0.00  0.00    +0.000 C 
ATOM      8  C   UNL     1       2.290   4.640  20.961  0.00  0.00    +0.000 C 
ATOM      9  C   UNL     1       1.702   3.261  20.767  0.00  0.00    +0.000 C 
ATOM     10  C   UNL     1       0.267   3.386  20.240  0.00  0.00    +0.000 C 
ATOM     11  C   UNL     1       1.690   2.485  22.090  0.00  0.00    +0.000 C 
ATOM     12  O   UNL     1       2.451   2.444  19.843  0.00  0.00    +0.000 OA
ENDROOT
BRANCH   1  14
ATOM     13  C   UNL     1       3.049   7.179  17.457  0.00  0.00    +0.000 C 
ATOM     14  O   UNL     1       4.212   6.402  17.753  0.00  0.00    +0.000 OA
ENDBRANCH   1  14
BRANCH   2  15
ATOM     15  C   UNL     1       5.347   4.723  15.540  0.00  0.00    +0.000 C 
ATOM     16  O   UNL     1       4.822   5.239  14.554  0.00  0.00    +0.000 OA
BRANCH  15  17
ATOM     17  C   UNL     1       6.873   4.633  15.682  0.00  0.00    +0.000 C 
ATOM     18  C   UNL     1       7.575   5.069  14.390  0.00  0.00    +0.000 C 
BRANCH  17  19
ATOM     19  C   UNL     1       7.365   5.471  16.852  0.00  0.00    +0.000 A 
ATOM     20  C   UNL     1       7.730   4.859  18.058  0.00  0.00    +0.000 A 
ATOM     21  C   UNL     1       8.125   5.634  19.150  0.00  0.00    +0.000 A 
ATOM     22  C   UNL     1       8.176   7.023  19.042  0.00  0.00    +0.000 A 
ATOM     23  C   UNL     1       7.839   7.640  17.840  0.00  0.00    +0.000 A 
ATOM     24  C   UNL     1       7.438   6.872  16.753  0.00  0.00    +0.000 A 
ENDBRANCH  17  19
ENDBRANCH  15  17
ENDBRANCH   2  15
TORSDOF 4
ENDMDL
MODEL 5
REMARK VINA RESULT:      -7.7      2.734      5.936
REMARK  Name = 
REMARK  8 active torsions:
REMARK  status: ('A' for Active; 'I' for Inactive)
REMARK    1  A    between atoms: C_1  and  O_2
REMARK    2  A    between atoms: O_2  and  C_3
REMARK    3  A    between atoms: C_4  and  C_5
REMARK    4  A    between atoms: C_5  and  C_7
REMARK    5  A    between atoms: C_7  and  C_8
REMARK    6  A    between atoms: C_7  and  C_9
REMARK    7  A    between atoms: C_21  and  C_22
REMARK    8  A    between atoms: C_21  and  C_23
REMARK                            x       y       z     vdW  Elec       q    Type
REMARK                         _______ _______ _______ _____ _____    ______ ____
ROOT
ATOM      1  C   UNL     1       2.593   7.138  19.675  0.00  0.00    +0.000 A 
ATOM      2  C   UNL     1       3.286   7.048  18.450  0.00  0.00    +0.000 A 
ATOM      3  C   UNL     1       3.058   8.019  17.460  0.00  0.00    +0.000 A 
ATOM      4  C   UNL     1       2.152   9.056  17.672  0.00  0.00    +0.000 A 
ATOM      5  C   UNL     1       1.434   9.119  18.860  0.00  0.00    +0.000 A 
ATOM      6  C   UNL     1       1.616   8.149  19.855  0.00  0.00    +0.000 A 
ATOM      7  C   UNL     1       0.726   8.202  21.019  0.00  0.00    +0.000 C 
ATOM      8  C   UNL     1      -0.024   9.292  21.201  0.00  0.00    +0.000 C 
ATOM      9  C   UNL     1       0.055  10.483  20.273  0.00  0.00    +0.000 C 
ATOM     10  C   UNL     1       0.991  11.539  20.874  0.00  0.00    +0.000 C 
ATOM     11  C   UNL     1      -1.334  11.099  20.061  0.00  0.00    +0.000 C 
ATOM     12  O   UNL     1       0.539  10.151  18.954  0.00  0.00    +0.000 OA
ENDROOT
BRANCH   1  14
ATOM     13  C   UNL     1       1.814   5.218  20.827  0.00  0.00    +0.000 C 
ATOM     14  O   UNL     1       2.768   6.279  20.736  0.00  0.00    +0.000 OA
ENDBRANCH   1  14
BRANCH   2  15
ATOM     15  C   UNL     1       4.174   5.888  18.114  0.00  0.00    +0.000 C 
ATOM     16  O   UNL     1       5.248   5.762  18.700  0.00  0.00    +0.000 OA
BRANCH  15  17
ATOM     17  C   UNL     1       3.700   4.860  17.077  0.00  0.00    +0.000 C 
ATOM     18  C   UNL     1       4.881   4.287  16.286  0.00  0.00    +0.000 C 
BRANCH  17  19
ATOM     19  C   UNL     1       2.920   3.733  17.740  0.00  0.00    +0.000 A 
ATOM     20  C   UNL     1       1.522   3.783  17.806  0.00  0.00    +0.000 A 
ATOM     21  C   UNL     1       0.812   2.778  18.467  0.00  0.00    +0.000 A 
ATOM     22  C   UNL     1       1.489   1.709  19.049  0.00  0.00    +0.000 A 
ATOM     23  C   UNL     1       2.877   1.637  18.967  0.00  0.00    +0.000 A 
ATOM     24  C   UNL     1       3.588   2.640  18.317  0.00  0.00    +0.000 A 
ENDBRANCH  17  19
ENDBRANCH  15  17
ENDBRANCH   2  15
TORSDOF 4
ENDMDL
MODEL 6
REMARK VINA RESULT:      -7.7      2.979      6.155
REMARK  Name = 
REMARK  8 active torsions:
REMARK  status: ('A' for Active; 'I' for Inactive)
REMARK    1  A    between atoms: C_1  and  O_2
REMARK    2  A    between atoms: O_2  and  C_3
REMARK    3  A    between atoms: C_4  and  C_5
REMARK    4  A    between atoms: C_5  and  C_7
REMARK    5  A    between atoms: C_7  and  C_8
REMARK    6  A    between atoms: C_7  and  C_9
REMARK    7  A    between atoms: C_21  and  C_22
REMARK    8  A    between atoms: C_21  and  C_23
REMARK                            x       y       z     vdW  Elec       q    Type
REMARK                         _______ _______ _______ _____ _____    ______ ____
ROOT
ATOM      1  C   UNL     1       2.216   7.509  19.883  0.00  0.00    +0.000 A 
ATOM      2  C   UNL     1       2.969   7.333  18.705  0.00  0.00    +0.000 A 
ATOM      3  C   UNL     1       2.839   8.265  17.662  0.00  0.00    +0.000 A 
ATOM      4  C   UNL     1       1.970   9.348  17.775  0.00  0.00    +0.000 A 
ATOM      5  C   UNL     1       1.192   9.496  18.917  0.00  0.00    +0.000 A 
ATOM      6  C   UNL     1       1.275   8.567  19.962  0.00  0.00    +0.000 A 
ATOM      7  C   UNL     1       0.326   8.711  21.071  0.00  0.00    +0.000 C 
ATOM      8  C   UNL     1      -0.384   9.839  21.161  0.00  0.00    +0.000 C 
ATOM      9  C   UNL     1      -0.202  10.981  20.187  0.00  0.00    +0.000 C 
ATOM     10  C   UNL     1       0.745  12.024  20.793  0.00  0.00    +0.000 C 
ATOM     11  C   UNL     1      -1.548  11.644  19.870  0.00  0.00    +0.000 C 
ATOM     12  O   UNL     1       0.339  10.568  18.914  0.00  0.00    +0.000 OA
ENDROOT
BRANCH   1  14
ATOM     13  C   UNL     1       1.561   5.470  20.899  0.00  0.00    +0.000 C 
ATOM     14  O   UNL     1       2.294   6.694  20.989  0.00  0.00    +0.000 OA
ENDBRANCH   1  14
BRANCH   2  15
ATOM     15  C   UNL     1       3.823   6.123  18.471  0.00  0.00    +0.000 C 
ATOM     16  O   UNL     1       4.776   5.904  19.218  0.00  0.00    +0.000 OA
BRANCH  15  17
ATOM     17  C   UNL     1       3.458   5.160  17.332  0.00  0.00    +0.000 C 
ATOM     18  C   UNL     1       4.682   4.839  16.467  0.00  0.00    +0.000 C 
BRANCH  17  19
ATOM     19  C   UNL     1       2.850   3.875  17.874  0.00  0.00    +0.000 A 
ATOM     20  C   UNL     1       3.659   2.760  18.128  0.00  0.00    +0.000 A 
ATOM     21  C   UNL     1       3.090   1.564  18.569  0.00  0.00    +0.000 A 
ATOM     22  C   UNL     1       1.715   1.476  18.777  0.00  0.00    +0.000 A 
ATOM     23  C   UNL     1       0.906   2.586  18.552  0.00  0.00    +0.000 A 
ATOM     24  C   UNL     1       1.467   3.776  18.105  0.00  0.00    +0.000 A 
ENDBRANCH  17  19
ENDBRANCH  15  17
ENDBRANCH   2  15
TORSDOF 4
ENDMDL
MODEL 7
REMARK VINA RESULT:      -7.7      4.393      8.179
REMARK  Name = 
REMARK  8 active torsions:
REMARK  status: ('A' for Active; 'I' for Inactive)
REMARK    1  A    between atoms: C_1  and  O_2
REMARK    2  A    between atoms: O_2  and  C_3
REMARK    3  A    between atoms: C_4  and  C_5
REMARK    4  A    between atoms: C_5  and  C_7
REMARK    5  A    between atoms: C_7  and  C_8
REMARK    6  A    between atoms: C_7  and  C_9
REMARK    7  A    between atoms: C_21  and  C_22
REMARK    8  A    between atoms: C_21  and  C_23
REMARK                            x       y       z     vdW  Elec       q    Type
REMARK                         _______ _______ _______ _____ _____    ______ ____
ROOT
ATOM      1  C   UNL     1       1.422   8.444  20.218  0.00  0.00    +0.000 A 
ATOM      2  C   UNL     1       1.382   9.598  19.409  0.00  0.00    +0.000 A 
ATOM      3  C   UNL     1       1.859   9.527  18.089  0.00  0.00    +0.000 A 
ATOM      4  C   UNL     1       2.379   8.338  17.580  0.00  0.00    +0.000 A 
ATOM      5  C   UNL     1       2.463   7.214  18.391  0.00  0.00    +0.000 A 
ATOM      6  C   UNL     1       2.024   7.260  19.721  0.00  0.00    +0.000 A 
ATOM      7  C   UNL     1       2.271   6.079  20.555  0.00  0.00    +0.000 C 
ATOM      8  C   UNL     1       2.659   4.948  19.960  0.00  0.00    +0.000 C 
ATOM      9  C   UNL     1       2.801   4.839  18.459  0.00  0.00    +0.000 C 
ATOM     10  C   UNL     1       1.528   4.220  17.868  0.00  0.00    +0.000 C 
ATOM     11  C   UNL     1       4.007   3.965  18.090  0.00  0.00    +0.000 C 
ATOM     12  O   UNL     1       3.027   6.109  17.811  0.00  0.00    +0.000 OA
ENDROOT
BRANCH   1  14
ATOM     13  C   UNL     1      -0.484   8.351  21.625  0.00  0.00    +0.000 C 
ATOM     14  O   UNL     1       0.941   8.376  21.505  0.00  0.00    +0.000 OA
ENDBRANCH   1  14
BRANCH   2  15
ATOM     15  C   UNL     1       0.954  10.934  19.937  0.00  0.00    +0.000 C 
ATOM     16  O   UNL     1       1.286  11.268  21.073  0.00  0.00    +0.000 OA
BRANCH  15  17
ATOM     17  C   UNL     1       0.151  11.874  19.027  0.00  0.00    +0.000 C 
ATOM     18  C   UNL     1      -1.238  12.156  19.612  0.00  0.00    +0.000 C 
BRANCH  17  19
ATOM     19  C   UNL     1       0.895  13.181  18.794  0.00  0.00    +0.000 A 
ATOM     20  C   UNL     1       2.180  13.174  18.238  0.00  0.00    +0.000 A 
ATOM     21  C   UNL     1       2.885  14.370  18.081  0.00  0.00    +0.000 A 
ATOM     22  C   UNL     1       2.306  15.580  18.459  0.00  0.00    +0.000 A 
ATOM     23  C   UNL     1       1.018  15.599  18.989  0.00  0.00    +0.000 A 
ATOM     24  C   UNL     1       0.317  14.410  19.155  0.00  0.00    +0.000 A 
ENDBRANCH  17  19
ENDBRANCH  15  17
ENDBRANCH   2  15
TORSDOF 4
ENDMDL
MODEL 8
REMARK VINA RESULT:      -7.6      3.216      5.672
REMARK  Name = 
REMARK  8 active torsions:
REMARK  status: ('A' for Active; 'I' for Inactive)
REMARK    1  A    between atoms: C_1  and  O_2
REMARK    2  A    between atoms: O_2  and  C_3
REMARK    3  A    between atoms: C_4  and  C_5
REMARK    4  A    between atoms: C_5  and  C_7
REMARK    5  A    between atoms: C_7  and  C_8
REMARK    6  A    between atoms: C_7  and  C_9
REMARK    7  A    between atoms: C_21  and  C_22
REMARK    8  A    between atoms: C_21  and  C_23
REMARK                            x       y       z     vdW  Elec       q    Type
REMARK                         _______ _______ _______ _____ _____    ______ ____
ROOT
ATOM      1  C   UNL     1       1.969   6.995  19.899  0.00  0.00    +0.000 A 
ATOM      2  C   UNL     1       2.630   6.748  18.678  0.00  0.00    +0.000 A 
ATOM      3  C   UNL     1       2.621   7.738  17.682  0.00  0.00    +0.000 A 
ATOM      4  C   UNL     1       1.961   8.949  17.882  0.00  0.00    +0.000 A 
ATOM      5  C   UNL     1       1.269   9.174  19.066  0.00  0.00    +0.000 A 
ATOM      6  C   UNL     1       1.233   8.194  20.067  0.00  0.00    +0.000 A 
ATOM      7  C   UNL     1       0.371   8.447  21.227  0.00  0.00    +0.000 C 
ATOM      8  C   UNL     1      -0.127   9.675  21.398  0.00  0.00    +0.000 C 
ATOM      9  C   UNL     1       0.212  10.814  20.463  0.00  0.00    +0.000 C 
ATOM     10  C   UNL     1       1.352  11.647  21.063  0.00  0.00    +0.000 C 
ATOM     11  C   UNL     1      -1.010  11.714  20.241  0.00  0.00    +0.000 C 
ATOM     12  O   UNL     1       0.618  10.376  19.149  0.00  0.00    +0.000 OA
ENDROOT
BRANCH   1  14
ATOM     13  C   UNL     1       1.274   4.888  20.734  0.00  0.00    +0.000 C 
ATOM     14  O   UNL     1       1.950   6.125  20.966  0.00  0.00    +0.000 OA
ENDBRANCH   1  14
BRANCH   2  15
ATOM     15  C   UNL     1       3.248   5.421  18.354  0.00  0.00    +0.000 C 
ATOM     16  O   UNL     1       2.773   4.740  17.446  0.00  0.00    +0.000 OA
BRANCH  15  17
ATOM     17  C   UNL     1       4.490   4.966  19.134  0.00  0.00    +0.000 C 
ATOM     18  C   UNL     1       4.701   3.453  19.002  0.00  0.00    +0.000 C 
BRANCH  17  19
ATOM     19  C   UNL     1       5.733   5.710  18.667  0.00  0.00    +0.000 A 
ATOM     20  C   UNL     1       6.932   5.605  19.384  0.00  0.00    +0.000 A 
ATOM     21  C   UNL     1       8.055   6.335  18.988  0.00  0.00    +0.000 A 
ATOM     22  C   UNL     1       7.995   7.158  17.866  0.00  0.00    +0.000 A 
ATOM     23  C   UNL     1       6.816   7.250  17.132  0.00  0.00    +0.000 A 
ATOM     24  C   UNL     1       5.693   6.532  17.527  0.00  0.00    +0.000 A 
ENDBRANCH  17  19
ENDBRANCH  15  17
ENDBRANCH   2  15
TORSDOF 4
ENDMDL
MODEL 9
REMARK VINA RESULT:      -7.6      2.244      4.466
REMARK  Name = 
REMARK  8 active torsions:
REMARK  status: ('A' for Active; 'I' for Inactive)
REMARK    1  A    between atoms: C_1  and  O_2
REMARK    2  A    between atoms: O_2  and  C_3
REMARK    3  A    between atoms: C_4  and  C_5
REMARK    4  A    between atoms: C_5  and  C_7
REMARK    5  A    between atoms: C_7  and  C_8
REMARK    6  A    between atoms: C_7  and  C_9
REMARK    7  A    between atoms: C_21  and  C_22
REMARK    8  A    between atoms: C_21  and  C_23
REMARK                            x       y       z     vdW  Elec       q    Type
REMARK                         _______ _______ _______ _____ _____    ______ ____
ROOT
ATOM      1  C   UNL     1       2.795   6.022  20.036  0.00  0.00    +0.000 A 
ATOM      2  C   UNL     1       3.706   5.827  18.977  0.00  0.00    +0.000 A 
ATOM      3  C   UNL     1       3.776   6.781  17.948  0.00  0.00    +0.000 A 
ATOM      4  C   UNL     1       2.952   7.905  17.959  0.00  0.00    +0.000 A 
ATOM      5  C   UNL     1       2.022   8.074  18.976  0.00  0.00    +0.000 A 
ATOM      6  C   UNL     1       1.905   7.125  20.000  0.00  0.00    +0.000 A 
ATOM      7  C   UNL     1       0.810   7.299  20.960  0.00  0.00    +0.000 C 
ATOM      8  C   UNL     1       0.149   8.460  20.971  0.00  0.00    +0.000 C 
ATOM      9  C   UNL     1       0.528   9.607  20.062  0.00  0.00    +0.000 C 
ATOM     10  C   UNL     1       1.424  10.591  20.825  0.00  0.00    +0.000 C 
ATOM     11  C   UNL     1      -0.723  10.342  19.566  0.00  0.00    +0.000 C 
ATOM     12  O   UNL     1       1.231   9.188  18.873  0.00  0.00    +0.000 OA
ENDROOT
BRANCH   1  14
ATOM     13  C   UNL     1       1.842   4.038  20.917  0.00  0.00    +0.000 C 
ATOM     14  O   UNL     1       2.670   5.186  21.122  0.00  0.00    +0.000 OA
ENDBRANCH   1  14
BRANCH   2  15
ATOM     15  C   UNL     1       4.526   4.579  18.843  0.00  0.00    +0.000 C 
ATOM     16  O   UNL     1       5.341   4.297  19.720  0.00  0.00    +0.000 OA
BRANCH  15  17
ATOM     17  C   UNL     1       4.294   3.659  17.637  0.00  0.00    +0.000 C 
ATOM     18  C   UNL     1       2.831   3.703  17.181  0.00  0.00    +0.000 C 
BRANCH  17  19
ATOM     19  C   UNL     1       5.213   4.028  16.481  0.00  0.00    +0.000 A 
ATOM     20  C   UNL     1       6.516   4.478  16.728  0.00  0.00    +0.000 A 
ATOM     21  C   UNL     1       7.337   4.872  15.670  0.00  0.00    +0.000 A 
ATOM     22  C   UNL     1       6.871   4.804  14.358  0.00  0.00    +0.000 A 
ATOM     23  C   UNL     1       5.586   4.334  14.100  0.00  0.00    +0.000 A 
ATOM     24  C   UNL     1       4.762   3.949  15.152  0.00  0.00    +0.000 A 
ENDBRANCH  17  19
ENDBRANCH  15  17
ENDBRANCH   2  15
TORSDOF 4
ENDMDL
